@<TRIPOS>MOLECULE
B2S
   41    43     1     0     0
SMALL
bcc


@<TRIPOS>ATOM
      1 C13         0.1870    1.1740   -2.1200 cx        1 B2S     -0.071000
      2 O2          1.7160    1.2220   -2.1500 os        1 B2S     -0.234000
      3 C12         0.9490    1.1730   -0.8200 cx        1 B2S     -0.040000
      4 C5          1.1460   -0.1250   -0.1050 c3        1 B2S     -0.018000
      5 C14         1.4650   -1.4430   -1.2370 c3        1 B2S     -0.215000
      6 C4          1.8080    0.0760    0.3180 c3        1 B2S     -0.161000
      7 C3          1.7050    2.0280    0.1850 c3        1 B2S      0.008000
      8 O3          3.0170    2.6260   -0.6220 oh        1 B2S     -0.310000
      9 C2          1.0370    2.1290   -0.2490 c3        1 B2S      0.009000
     10 O1          0.0370    2.1860    0.5270 os        1 B2S     -0.259000
     11 C11        -0.5260    0.6760    1.2120 c3        1 B2S      0.048000
     12 C10        -2.0650    0.6810    1.0380 c2        1 B2S     -0.117000
     13 C9         -2.6980   -0.1450   -0.0330 c1        1 B2S     -0.171000
     14 C16        -4.1290    0.1590   -0.4880 c2        1 B2S     -0.177000
     15 C8         -2.0020   -1.3240   -0.5490 c2        1 B2S      0.243000
     16 O5         -2.5160   -2.0020   -1.4250 o         1 B2S     -0.287000
     17 C7         -0.7000   -1.7330    0.0400 c3        1 B2S     -0.020000
     18 O4          0.0710   -2.4040   -0.9200 oh        1 B2S     -0.325000
     19 C6          0.1860   -0.4450    0.7690 c3        1 B2S     -0.095000
     20 C15         0.8920   -1.0400    2.0170 c3        1 B2S     -0.013000
     21 O6         -0.0630   -1.7080    2.8270 oh        1 B2S     -0.332000
     22 H13        -0.2700    2.0150   -2.3460 h1        1 B2S      0.125000
     23 H13A       -0.2160    0.3180   -2.3770 h1        1 B2S      0.125000
     24 H14         1.5560   -2.2870   -0.7410 hc        1 B2S      0.092000
     25 H14A        2.3000   -1.2590   -1.7290 hc        1 B2S      0.092000
     26 H14B        0.7200   -1.5150   -1.8740 hc        1 B2S      0.092000
     27 H4          2.6270   -0.2700   -0.1120 hc        1 B2S      0.113000
     28 H4A         1.7380   -0.2200    1.2470 hc        1 B2S      0.113000
     29 H3          1.6150    2.4410    1.0770 h1        1 B2S      0.095000
     30 HO3         3.4640    3.1870   -0.0890 ho        1 B2S      0.203000
     31 H2          1.0930    2.9150   -0.8460 h1        1 B2S      0.131000
     32 H11        -0.3610    0.7330    2.1810 h1        1 B2S      0.149000
     33 H10        -2.6270    1.2080    1.6480 ha        1 B2S      0.149000
     34 H16        -4.1900    0.0620   -1.4640 ha        1 B2S      0.093333
     35 H16A       -4.3650    1.0780   -0.2340 ha        1 B2S      0.093333
     36 H16B       -4.7500   -0.4700   -0.0570 ha        1 B2S      0.093333
     37 H7         -0.8350   -2.4520    0.6990 h1        1 B2S      0.133000
     38 HO4        -0.2460   -3.2350   -1.0300 ho        1 B2S      0.228000
     39 H15         1.3110   -0.3150    2.5350 h1        1 B2S      0.102000
     40 H15A        1.5830   -1.6800    1.7300 h1        1 B2S      0.102000
     41 HO6         0.3350   -2.0160    3.5650 ho        1 B2S      0.212000
@<TRIPOS>BOND
     1    1    2 1   
     2    1    3 1   
     3    1   22 1   
     4    1   23 1   
     5    2    3 1   
     6    3    4 1   
     7    3    9 1   
     8    4    5 1   
     9    4    6 1   
    10    4   19 1   
    11    5   24 1   
    12    5   25 1   
    13    5   26 1   
    14    6    7 1   
    15    6   27 1   
    16    6   28 1   
    17    7    8 1   
    18    7    9 1   
    19    7   29 1   
    20    8   30 1   
    21    9   10 1   
    22    9   31 1   
    23   10   11 1   
    24   11   12 1   
    25   11   19 1   
    26   11   32 1   
    27   12   13 1   
    28   12   33 1   
    29   13   15 1   
    30   14   34 1   
    31   14   35 1   
    32   14   36 1   
    33   15   16 1   
    34   15   17 1   
    35   17   18 1   
    36   17   19 1   
    37   17   37 1   
    38   18   38 1   
    39   19   20 1   
    40   20   21 1   
    41   20   39 1   
    42   20   40 1   
    43   21   41 1   
@<TRIPOS>SUBSTRUCTURE
     1 B2S         1 TEMP              0 ****  ****    0 ROOT
