@<TRIPOS>MOLECULE
B2S
   41    44     1     0     0
SMALL
bcc


@<TRIPOS>ATOM
      1 C13         0.2490    0.1170   -0.1140 cx        1 B2S      0.073400
      2 O2          1.6620    0.0520    0.1310 os        1 B2S     -0.378600
      3 C12         0.7870    0.0430    1.2650 cx        1 B2S      0.027800
      4 C5          0.8930    1.1800    2.2950 c3        1 B2S     -0.015000
      5 C14         1.2680    2.5100    1.6880 c3        1 B2S     -0.084100
      6 C4          2.0720    0.6430    3.1560 c3        1 B2S     -0.119400
      7 C3          1.9970   -0.8960    3.1110 c3        1 B2S      0.128100
      8 O3          1.8530   -1.4760    4.3840 oh        1 B2S     -0.584800
      9 C2          0.8140   -1.2010    2.1520 c3        1 B2S      0.120100
     10 O1         -0.3850   -1.2780    2.9410 os        1 B2S     -0.408600
     11 C11        -1.2040   -0.1200    2.7760 c3        1 B2S      0.154300
     12 C10        -2.4580   -0.2570    3.5620 c2        1 B2S     -0.119200
     13 C9         -3.2860    0.8000    3.6300 ce        1 B2S     -0.190400
     14 C16        -4.6050    0.7540    4.2990 c3        1 B2S     -0.057900
     15 C8         -2.8820    2.1090    3.0560 c         1 B2S      0.530300
     16 O5         -3.6690    3.0590    2.9930 o         1 B2S     -0.498100
     17 C7         -1.4480    2.2970    2.5460 c3        1 B2S      0.073100
     18 O4         -1.0010    3.6030    2.8430 oh        1 B2S     -0.575800
     19 C6         -0.4680    1.2160    3.0660 c3        1 B2S     -0.116000
     20 C15        -0.1830    1.4790    4.5540 c3        1 B2S      0.132400
     21 O6         -1.2520    2.0750    5.2600 oh        1 B2S     -0.608800
     22 H13        -0.1020    1.0810   -0.5260 h1        1 B2S      0.085700
     23 H13A       -0.1760   -0.7810   -0.6000 h1        1 B2S      0.085700
     24 H14         1.3520    3.2840    2.4880 hc        1 B2S      0.052700
     25 H14A        0.5010    2.8510    0.9510 hc        1 B2S      0.052700
     26 H14B        2.2460    2.4210    1.1520 hc        1 B2S      0.052700
     27 H4          3.0290    0.9700    2.6740 hc        1 B2S      0.069200
     28 H4A         2.0950    1.0120    4.2040 hc        1 B2S      0.069200
     29 H3          2.9480   -1.3330    2.7040 h1        1 B2S      0.091700
     30 HO3         0.9330   -1.3680    4.6630 ho        1 B2S      0.412000
     31 H2          0.9060   -2.1730    1.6140 h1        1 B2S      0.098700
     32 H11        -1.5290   -0.0990    1.6850 h1        1 B2S      0.059700
     33 H10        -2.6830   -1.2410    3.9970 ha        1 B2S      0.161000
     34 H16        -5.3910    1.1680    3.6180 hc        1 B2S      0.056700
     35 H16A       -4.5840    1.3890    5.2220 hc        1 B2S      0.056700
     36 H16B       -4.8820   -0.2890    4.5840 hc        1 B2S      0.056700
     37 H7         -1.4820    2.2560    1.4170 h1        1 B2S      0.091700
     38 HO4        -1.1920    3.7740    3.7770 ho        1 B2S      0.427000
     39 H15         0.1360    0.5270    5.0540 h1        1 B2S      0.063200
     40 H15A        0.6270    2.2620    4.6330 h1        1 B2S      0.063200
     41 HO6        -1.9060    1.3910    5.4510 ho        1 B2S      0.409000
@<TRIPOS>BOND
     1    1    2 1   
     2    1    3 1   
     3    1   22 1   
     4    1   23 1   
     5    2    3 1   
     6    3    4 1   
     7    3    9 1   
     8    4    5 1   
     9    4    6 1   
    10    4   19 1   
    11    5   24 1   
    12    5   25 1   
    13    5   26 1   
    14    6    7 1   
    15    6   27 1   
    16    6   28 1   
    17    7    8 1   
    18    7    9 1   
    19    7   29 1   
    20    8   30 1   
    21    9   10 1   
    22    9   31 1   
    23   10   11 1   
    24   11   12 1   
    25   11   19 1   
    26   11   32 1   
    27   12   13 2   
    28   12   33 1   
    29   13   14 1   
    30   13   15 1   
    31   14   34 1   
    32   14   35 1   
    33   14   36 1   
    34   15   16 2   
    35   15   17 1   
    36   17   18 1   
    37   17   19 1   
    38   17   37 1   
    39   18   38 1   
    40   19   20 1   
    41   20   21 1   
    42   20   39 1   
    43   20   40 1   
    44   21   41 1   
@<TRIPOS>SUBSTRUCTURE
     1 B2S         1 TEMP              0 ****  ****    0 ROOT
