@<TRIPOS>MOLECULE
B2S
   41    44     1     0     0
SMALL
bcc


@<TRIPOS>ATOM
      1 C13         0.2820    0.1230   -0.1240 cx        1 B2S      0.074400
      2 O2          1.6930    0.0650    0.1380 os        1 B2S     -0.379600
      3 C12         0.8030    0.0480    1.2610 cx        1 B2S      0.028800
      4 C5          0.8890    1.1830    2.2950 c3        1 B2S     -0.019000
      5 C14         1.2640    2.5160    1.6960 c3        1 B2S     -0.084100
      6 C4          2.0590    0.6490    3.1700 c3        1 B2S     -0.118400
      7 C3          1.9900   -0.8900    3.1240 c3        1 B2S      0.128100
      8 O3          1.8250   -1.4670    4.3960 oh        1 B2S     -0.587800
      9 C2          0.8250   -1.1990    2.1440 c3        1 B2S      0.120100
     10 O1         -0.3840   -1.2880    2.9140 os        1 B2S     -0.408600
     11 C11        -1.2090   -0.1330    2.7460 c3        1 B2S      0.159300
     12 C10        -2.4680   -0.2800    3.5220 c2        1 B2S     -0.116200
     13 C9         -3.3030    0.7710    3.5870 ce        1 B2S     -0.158400
     14 C16        -4.6270    0.7130    4.2460 c3        1 B2S     -0.052900
     15 C8         -2.9000    2.0870    3.0360 c         1 B2S      0.548300
     16 O5         -3.6750    3.0500    3.0060 o         1 B2S     -0.513100
     17 C7         -1.4690    2.2800    2.5150 c3        1 B2S      0.074100
     18 O4         -1.0240    3.5890    2.8080 oh        1 B2S     -0.578800
     19 C6         -0.4840    1.2080    3.0450 c3        1 B2S     -0.080000
     20 C15        -0.2260    1.4630    4.5370 c3        1 B2S      0.135400
     21 O6         -1.3830    2.0190    5.1480 oh        1 B2S     -0.619800
     22 H13        -0.1320   -0.7750   -0.6180 h1        1 B2S      0.085700
     23 H13A       -0.0700    1.0870   -0.5370 h1        1 B2S      0.085700
     24 H14         1.3390    3.2870    2.5010 hc        1 B2S      0.052033
     25 H14A        0.5000    2.8570    0.9570 hc        1 B2S      0.052033
     26 H14B        2.2460    2.4330    1.1680 hc        1 B2S      0.052033
     27 H4          3.0210    0.9810    2.7010 hc        1 B2S      0.067200
     28 H4A         2.0670    1.0150    4.2200 hc        1 B2S      0.067200
     29 H3          2.9510   -1.3240    2.7340 h1        1 B2S      0.090700
     30 HO3         0.8950   -1.3860    4.6460 ho        1 B2S      0.413000
     31 H2          0.9340   -2.1680    1.6040 h1        1 B2S      0.097700
     32 H11        -1.5210   -0.1100    1.6510 h1        1 B2S      0.055700
     33 H10        -2.6880   -1.2650    3.9550 ha        1 B2S      0.156000
     34 H16        -4.6200    1.3550    5.1640 hc        1 B2S      0.053033
     35 H16A       -5.4130    1.1110    3.5560 hc        1 B2S      0.053033
     36 H16B       -4.8920   -0.3320    4.5380 hc        1 B2S      0.053033
     37 H7         -1.5010    2.2320    1.3870 h1        1 B2S      0.087700
     38 HO4        -1.2790    3.7870    3.7200 ho        1 B2S      0.423000
     39 H15         0.0570    0.5030    5.0450 h1        1 B2S      0.042700
     40 H15A        0.5980    2.2240    4.6420 h1        1 B2S      0.042700
     41 HO6        -1.2320    1.9900    6.1000 ho        1 B2S      0.415000
@<TRIPOS>BOND
     1    1    2 1   
     2    1    3 1   
     3    1   22 1   
     4    1   23 1   
     5    2    3 1   
     6    3    4 1   
     7    3    9 1   
     8    4    5 1   
     9    4    6 1   
    10    4   19 1   
    11    5   24 1   
    12    5   25 1   
    13    5   26 1   
    14    6    7 1   
    15    6   27 1   
    16    6   28 1   
    17    7    8 1   
    18    7    9 1   
    19    7   29 1   
    20    8   30 1   
    21    9   10 1   
    22    9   31 1   
    23   10   11 1   
    24   11   12 1   
    25   11   19 1   
    26   11   32 1   
    27   12   13 2   
    28   12   33 1   
    29   13   14 1   
    30   13   15 1   
    31   14   34 1   
    32   14   35 1   
    33   14   36 1   
    34   15   16 2   
    35   15   17 1   
    36   17   18 1   
    37   17   19 1   
    38   17   37 1   
    39   18   38 1   
    40   19   20 1   
    41   20   21 1   
    42   20   39 1   
    43   20   40 1   
    44   21   41 1   
@<TRIPOS>SUBSTRUCTURE
     1 B2S         1 TEMP              0 ****  ****    0 ROOT
