@<TRIPOS>MOLECULE
B2S
   41    44     1     0     0
SMALL
bcc


@<TRIPOS>ATOM
      1 C13        -2.0840   -1.3040   -2.0590 cx        1 B2S      0.077400
      2 O2         -3.1820   -1.2450   -1.1360 os        1 B2S     -0.384600
      3 C12        -1.9990   -0.5000   -0.8180 cx        1 B2S      0.022800
      4 C5         -1.2380   -0.8370    0.4760 c3        1 B2S     -0.009000
      5 C14        -1.2530   -2.3060    0.8200 c3        1 B2S     -0.086100
      6 C4         -2.1210   -0.0520    1.4870 c3        1 B2S     -0.118400
      7 C3         -2.6010    1.2120    0.7480 c3        1 B2S      0.115100
      8 O3         -2.0280    2.3990    1.2580 oh        1 B2S     -0.573800
      9 C2         -2.1380    1.0220   -0.7230 c3        1 B2S      0.165100
     10 O1         -0.8650    1.6430   -0.9220 os        1 B2S     -0.376600
     11 C11         0.1990    0.6890   -0.9150 c3        1 B2S      0.156300
     12 C10         1.4970    1.3860   -1.1190 c2        1 B2S     -0.110200
     13 C9          2.6380    0.6900   -0.9750 ce        1 B2S     -0.193400
     14 C16         3.9740    1.2610   -1.2560 c3        1 B2S     -0.055900
     15 C8          2.6110   -0.7020   -0.4650 c         1 B2S      0.536300
     16 O5          3.6360   -1.3870   -0.3870 o         1 B2S     -0.504100
     17 C7          1.2800   -1.3050    0.0020 c3        1 B2S      0.071100
     18 O4          1.5080   -2.1700    1.0960 oh        1 B2S     -0.577800
     19 C6          0.2030   -0.2430    0.3250 c3        1 B2S     -0.108000
     20 C15         0.5810    0.4710    1.6340 c3        1 B2S      0.123400
     21 O6          1.9710    0.6300    1.8290 oh        1 B2S     -0.611800
     22 H13        -1.5870   -2.2910   -2.1210 h1        1 B2S      0.085200
     23 H13A       -2.2730   -0.8160   -3.0330 h1        1 B2S      0.085200
     24 H14        -0.7480   -2.9130    0.0300 hc        1 B2S      0.052700
     25 H14A       -0.7180   -2.4760    1.7860 hc        1 B2S      0.052700
     26 H14B       -2.3080   -2.6650    0.9090 hc        1 B2S      0.052700
     27 H4         -3.0110   -0.6890    1.7320 hc        1 B2S      0.063200
     28 H4A        -1.6200    0.1940    2.4480 hc        1 B2S      0.063200
     29 H3         -3.7220    1.2840    0.7760 h1        1 B2S      0.051700
     30 HO3        -2.3800    2.5060    2.1510 ho        1 B2S      0.400000
     31 H2         -2.8340    1.4870   -1.4600 h1        1 B2S      0.094700
     32 H11         0.0620    0.0300   -1.8340 h1        1 B2S      0.051700
     33 H10         1.4580    2.4360   -1.4450 ha        1 B2S      0.161000
     34 H16         4.5560    1.3510   -0.3030 hc        1 B2S      0.054700
     35 H16A        4.5420    0.5800   -1.9390 hc        1 B2S      0.054700
     36 H16B        3.8960    2.2690   -1.7290 hc        1 B2S      0.054700
     37 H7          0.9090   -1.9790   -0.8260 h1        1 B2S      0.089700
     38 HO4         2.0700   -1.6980    1.7280 ho        1 B2S      0.426000
     39 H15         0.0530    1.4620    1.6820 h1        1 B2S      0.071700
     40 H15A        0.2890   -0.1900    2.5000 h1        1 B2S      0.071700
     41 HO6         2.2670    1.3730    1.2870 ho        1 B2S      0.410000
@<TRIPOS>BOND
     1    1    2 1   
     2    1    3 1   
     3    1   22 1   
     4    1   23 1   
     5    2    3 1   
     6    3    4 1   
     7    3    9 1   
     8    4    5 1   
     9    4    6 1   
    10    4   19 1   
    11    5   24 1   
    12    5   25 1   
    13    5   26 1   
    14    6    7 1   
    15    6   27 1   
    16    6   28 1   
    17    7    8 1   
    18    7    9 1   
    19    7   29 1   
    20    8   30 1   
    21    9   10 1   
    22    9   31 1   
    23   10   11 1   
    24   11   12 1   
    25   11   19 1   
    26   11   32 1   
    27   12   13 2   
    28   12   33 1   
    29   13   14 1   
    30   13   15 1   
    31   14   34 1   
    32   14   35 1   
    33   14   36 1   
    34   15   16 2   
    35   15   17 1   
    36   17   18 1   
    37   17   19 1   
    38   17   37 1   
    39   18   38 1   
    40   19   20 1   
    41   20   21 1   
    42   20   39 1   
    43   20   40 1   
    44   21   41 1   
@<TRIPOS>SUBSTRUCTURE
     1 B2S         1 TEMP              0 ****  ****    0 ROOT
