@<TRIPOS>MOLECULE
B2T
   26    27     1     0     0
SMALL
bcc


@<TRIPOS>ATOM
      1 C1          0.0140   -0.6000   -0.0340 c3        1 B2T     -0.127000
      2 S2          1.7290   -0.7250    0.2100 ss        1 B2T      0.027600
      3 C3          2.0170   -0.2950    1.8140 ca        1 B2T      0.735300
      4 N4          3.3410   -0.3350    2.2170 nb        1 B2T     -0.657000
      5 N5          0.9700    0.0680    2.6430 nb        1 B2T     -0.770000
      6 C6          1.3630    0.3840    3.9170 ca        1 B2T      0.758900
      7 N7          0.2720    0.7920    4.8590 n4        1 B2T     -0.825300
      8 N10         2.6220    0.3800    4.4280 nb        1 B2T     -0.730000
      9 C11         3.5990    0.0100    3.5040 cp        1 B2T      0.806500
     10 C12         4.9990   -0.0070    3.9900 cp        1 B2T     -0.185500
     11 C13         5.3170   -0.7780    5.1150 ca        1 B2T     -0.075000
     12 C14         6.6310   -0.8350    5.5720 ca        1 B2T     -0.129000
     13 C15         7.6310   -0.1170    4.9130 ca        1 B2T     -0.076000
     14 C16         7.3210    0.6630    3.8010 ca        1 B2T     -0.123000
     15 C17         6.0030    0.7240    3.3330 ca        1 B2T      0.064400
     16 CL18        5.6530    1.7080    1.9980 cl        1 B2T     -0.058400
     17 H1         -0.1340   -0.8930   -1.1070 h1        1 B2T      0.098367
     18 H1A        -0.3830    0.4320    0.1060 h1        1 B2T      0.098367
     19 H1B        -0.5800   -1.2930    0.6050 h1        1 B2T      0.098367
     20 HN7        -0.1950    1.6280    4.4870 hn        1 B2T      0.481133
     21 HN7A       -0.4090    0.0270    4.9370 hn        1 B2T      0.481133
     22 H13         4.5310   -1.3470    5.6350 ha        1 B2T      0.144000
     23 H14         6.8800   -1.4480    6.4520 ha        1 B2T      0.156000
     24 H15         8.6720   -0.1650    5.2720 ha        1 B2T      0.159000
     25 H16         8.1130    1.2330    3.2870 ha        1 B2T      0.168000
     26 H73         0.6680    1.0010    5.7860 hn        1 B2T      0.481133
@<TRIPOS>BOND
     1    1    2 1   
     2    1   17 1   
     3    1   18 1   
     4    1   19 1   
     5    2    3 1   
     6    3    4 ar  
     7    3    5 ar  
     8    4    9 ar  
     9    5    6 ar  
    10    6    7 1   
    11    6    8 ar  
    12    7   20 1   
    13    7   21 1   
    14    7   26 1   
    15    8    9 ar  
    16    9   10 1   
    17   10   11 ar  
    18   10   15 ar  
    19   11   12 ar  
    20   11   22 1   
    21   12   13 ar  
    22   12   23 1   
    23   13   14 ar  
    24   13   24 1   
    25   14   15 ar  
    26   14   25 1   
    27   15   16 1   
@<TRIPOS>SUBSTRUCTURE
     1 B2T         1 TEMP              0 ****  ****    0 ROOT
