@<TRIPOS>MOLECULE
B2T
   25    26     1     0     0
SMALL
bcc


@<TRIPOS>ATOM
      1 C1          0.0030    0.7610    0.0130 c3        1 B2T     -0.076000
      2 S2          1.7240    0.9360    0.2580 ss        1 B2T     -0.164400
      3 C3          2.0270    0.3530    1.8470 ca        1 B2T      0.769300
      4 N4          3.3390    0.4160    2.2500 nb        1 B2T     -0.734000
      5 N5          0.9890   -0.1260    2.5910 nb        1 B2T     -0.813000
      6 C6          1.3330   -0.5620    3.8690 ca        1 B2T      0.908900
      7 N7          0.3160   -0.9830    4.7120 nv        1 B2T     -0.939500
      8 N10         2.6360   -0.5570    4.3700 nb        1 B2T     -0.783000
      9 C11         3.5750   -0.0600    3.5120 cp        1 B2T      0.761500
     10 C12         4.9800   -0.0220    4.0050 cp        1 B2T     -0.131500
     11 C13         5.2790    0.7500    5.1330 ca        1 B2T     -0.084000
     12 C14         6.5880    0.8200    5.6050 ca        1 B2T     -0.137000
     13 C15         7.6030    0.1170    4.9560 ca        1 B2T     -0.109000
     14 C16         7.3130   -0.6620    3.8380 ca        1 B2T     -0.134000
     15 C17         5.9990   -0.7360    3.3600 ca        1 B2T      0.053400
     16 Cl18        5.6750   -1.7140    2.0110 cl        1 B2T     -0.074400
     17 H1         -0.1760    1.1530   -1.0170 h1        1 B2T      0.077367
     18 H1A        -0.5990    1.3530    0.7380 h1        1 B2T      0.077367
     19 H1B        -0.3350   -0.2980    0.0630 h1        1 B2T      0.077367
     20 HN7         0.5650   -1.4550    5.5480 hn        1 B2T      0.441300
     21 HN7A       -0.5760   -1.1630    4.3190 hn        1 B2T      0.441300
     22 H13         4.4750    1.2990    5.6470 ha        1 B2T      0.148000
     23 H14         6.8190    1.4300    6.4900 ha        1 B2T      0.139000
     24 H15         8.6370    0.1740    5.3270 ha        1 B2T      0.138000
     25 H16         8.1150   -1.2200    3.3300 ha        1 B2T      0.149000
@<TRIPOS>BOND
     1    1    2 1   
     2    1   17 1   
     3    1   18 1   
     4    1   19 1   
     5    2    3 1   
     6    3    4 ar  
     7    3    5 ar  
     8    4    9 ar  
     9    5    6 ar  
    10    6    7 1   
    11    6    8 ar  
    12    7   20 1   
    13    7   21 1   
    14    8    9 ar  
    15    9   10 1   
    16   10   11 ar  
    17   10   15 ar  
    18   11   12 ar  
    19   11   22 1   
    20   12   13 ar  
    21   12   23 1   
    22   13   14 ar  
    23   13   24 1   
    24   14   15 ar  
    25   14   25 1   
    26   15   16 1   
@<TRIPOS>SUBSTRUCTURE
     1 B2T         1 TEMP              0 ****  ****    0 ROOT
