@<TRIPOS>MOLECULE
B2T
   25    22     1     0     0
SMALL
bcc


@<TRIPOS>ATOM
      1 C1          0.7540   -0.9750   -4.6910 c3        1 B2T     -0.375000
      2 S2         -0.1150    0.2020   -3.6890 ss        1 B2T      0.339000
      3 C3          0.5000    0.1320   -2.0270 c2        1 B2T     -0.083000
      4 N4         -0.3570    0.0890   -0.9970 n2        1 B2T     -0.219000
      5 N5          1.8210    0.1780   -1.7990 n1        1 B2T     -0.288000
      6 C6          2.2840    0.1810   -0.5400 c1        1 B2T      0.193000
      7 N7          3.6780    0.2920   -0.2980 n3        1 B2T     -0.339000
      8 N10         1.4270    0.1380    0.4900 n1        1 B2T     -0.248000
      9 C11         0.1060    0.0920    0.2620 c1        1 B2T      0.129000
     10 C12        -0.8630    0.1320    1.4230 c2        1 B2T     -0.024000
     11 C13        -1.3820   -1.0480    1.9320 c2        1 B2T     -0.082000
     12 C14        -2.3150   -1.0090    2.9560 c1        1 B2T     -0.137000
     13 C15        -2.7290    0.2090    3.4710 c1        1 B2T     -0.121500
     14 C16        -2.2100    1.3890    2.9620 c1        1 B2T     -0.121500
     15 C17        -1.2770    1.3500    1.9380 c1        1 B2T     -0.025000
     16 CL18       -0.6550    2.8360    1.2690 cl        1 B2T     -0.001000
     17 H1          0.4520   -1.8800   -4.4670 h1        1 B2T      0.116667
     18 H1A         0.5740   -0.7940   -5.6370 h1        1 B2T      0.116667
     19 H1B         1.7160   -0.9000   -4.5210 h1        1 B2T      0.116667
     20 HN7         3.9800    0.5270    0.5320 hn        1 B2T      0.239000
     21 HN7A        4.2730    0.1220   -0.9700 hn        1 B2T      0.239000
     22 H13        -1.0900   -1.9060    1.5700 ha        1 B2T      0.151000
     23 H14        -2.6810   -1.8400    3.3150 ha        1 B2T      0.139000
     24 H15        -3.3870    0.2360    4.1920 ha        1 B2T      0.143500
     25 H16        -2.5020    2.2470    3.3240 ha        1 B2T      0.143500
@<TRIPOS>BOND
     1    1    2 1   
     2    1   17 1   
     3    1   18 1   
     4    1   19 1   
     5    2    3 1   
     6    3    4 1   
     7    3    5 1   
     8    4    9 1   
     9    6    7 1   
    10    6    8 1   
    11    7   20 1   
    12    7   21 1   
    13    9   10 1   
    14   10   11 1   
    15   10   15 1   
    16   11   12 1   
    17   11   22 1   
    18   12   23 1   
    19   13   14 1   
    20   13   24 1   
    21   14   25 1   
    22   15   16 1   
@<TRIPOS>SUBSTRUCTURE
     1 B2T         1 TEMP              0 ****  ****    0 ROOT
