@<TRIPOS>MOLECULE
B2T
   25    26     1     0     0
SMALL
bcc


@<TRIPOS>ATOM
      1 C1         -0.0130    0.7550    0.0270 c3        1 B2T     -0.076000
      2 S2          1.7100    0.9220    0.2610 ss        1 B2T     -0.164400
      3 C3          2.0190    0.3490    1.8520 ca        1 B2T      0.769300
      4 N4          3.3340    0.4080    2.2470 nb        1 B2T     -0.734000
      5 N5          0.9830   -0.1180    2.6060 nb        1 B2T     -0.813000
      6 C6          1.3330   -0.5460    3.8860 ca        1 B2T      0.908900
      7 N7          0.3190   -0.9550    4.7370 nh        1 B2T     -0.939500
      8 N10         2.6390   -0.5440    4.3780 nb        1 B2T     -0.783000
      9 C11         3.5750   -0.0590    3.5110 cp        1 B2T      0.761500
     10 C12         4.9830   -0.0260    3.9950 cp        1 B2T     -0.131500
     11 C13         5.2930    0.7520    5.1160 ca        1 B2T     -0.084000
     12 C14         6.6060    0.8180    5.5790 ca        1 B2T     -0.137000
     13 C15         7.6130    0.1050    4.9290 ca        1 B2T     -0.109000
     14 C16         7.3120   -0.6810    3.8190 ca        1 B2T     -0.134000
     15 C17         5.9950   -0.7500    3.3490 ca        1 B2T      0.053400
     16 CL18        5.6560   -1.7370    2.0090 cl        1 B2T     -0.074400
     17 H1         -0.3570   -0.3020    0.0880 h1        1 B2T      0.077367
     18 H1A        -0.6080    1.3550    0.7510 h1        1 B2T      0.077367
     19 H1B        -0.1960    1.1400   -1.0050 h1        1 B2T      0.077367
     20 HN7         0.5700   -1.4210    5.5760 hn        1 B2T      0.441300
     21 HN7A       -0.5770   -1.1330    4.3520 hn        1 B2T      0.441300
     22 H13         4.4960    1.3090    5.6300 ha        1 B2T      0.148000
     23 H14         6.8450    1.4340    6.4580 ha        1 B2T      0.139000
     24 H15         8.6500    0.1590    5.2930 ha        1 B2T      0.138000
     25 H16         8.1070   -1.2470    3.3100 ha        1 B2T      0.149000
@<TRIPOS>BOND
     1    1    2 1   
     2    1   17 1   
     3    1   18 1   
     4    1   19 1   
     5    2    3 1   
     6    3    4 ar  
     7    3    5 ar  
     8    4    9 ar  
     9    5    6 ar  
    10    6    7 1   
    11    6    8 ar  
    12    7   20 1   
    13    7   21 1   
    14    8    9 ar  
    15    9   10 1   
    16   10   11 ar  
    17   10   15 ar  
    18   11   12 ar  
    19   11   22 1   
    20   12   13 ar  
    21   12   23 1   
    22   13   14 ar  
    23   13   24 1   
    24   14   15 ar  
    25   14   25 1   
    26   15   16 1   
@<TRIPOS>SUBSTRUCTURE
     1 B2T         1 TEMP              0 ****  ****    0 ROOT
