@<TRIPOS>MOLECULE
B2T
   25    26     1     0     0
SMALL
bcc


@<TRIPOS>ATOM
      1 C1          4.5700    0.7960   -0.6010 c3        1 B2T     -0.076000
      2 S2          2.9360    1.3890   -0.7800 ss        1 B2T     -0.164400
      3 C3          1.9180    0.0970   -0.2810 ca        1 B2T      0.769300
      4 N4          0.5700    0.3540   -0.3590 nb        1 B2T     -0.734000
      5 N5          2.4810   -1.0680    0.1520 nb        1 B2T     -0.813000
      6 C6          1.5730   -2.0590    0.5200 ca        1 B2T      0.908900
      7 N7          2.0740   -3.2980    0.8910 nh        1 B2T     -0.939500
      8 N10         0.1870   -1.8950    0.4950 nb        1 B2T     -0.783000
      9 C11        -0.2350   -0.6760    0.0490 cp        1 B2T      0.761500
     10 C12        -1.7070   -0.4560   -0.0080 cp        1 B2T     -0.131500
     11 C13        -2.4800   -1.2750   -0.8380 ca        1 B2T     -0.084000
     12 C14        -3.8570   -1.0790   -0.9260 ca        1 B2T     -0.137000
     13 C15        -4.4680   -0.0690   -0.1840 ca        1 B2T     -0.109000
     14 C16        -3.7080    0.7440    0.6530 ca        1 B2T     -0.134000
     15 C17        -2.3240    0.5520    0.7460 ca        1 B2T      0.053400
     16 CL18       -1.4300    1.5440    1.7940 cl        1 B2T     -0.074400
     17 H1          4.8240    0.5420    0.4520 h1        1 B2T      0.077367
     18 H1A         4.7780   -0.0950   -1.2330 h1        1 B2T      0.077367
     19 H1B         5.2150    1.6430   -0.9380 h1        1 B2T      0.077367
     20 HN7         3.0420   -3.3750    1.0870 hn        1 B2T      0.441300
     21 HN7A        1.4550   -3.9450    1.3170 hn        1 B2T      0.441300
     22 H13        -1.9960   -2.0750   -1.4180 ha        1 B2T      0.148000
     23 H14        -4.4600   -1.7240   -1.5830 ha        1 B2T      0.139000
     24 H15        -5.5550    0.0870   -0.2560 ha        1 B2T      0.138000
     25 H16        -4.1930    1.5380    1.2420 ha        1 B2T      0.149000
@<TRIPOS>BOND
     1    1    2 1   
     2    1   17 1   
     3    1   18 1   
     4    1   19 1   
     5    2    3 1   
     6    3    4 ar  
     7    3    5 ar  
     8    4    9 ar  
     9    5    6 ar  
    10    6    7 1   
    11    6    8 ar  
    12    7   20 1   
    13    7   21 1   
    14    8    9 ar  
    15    9   10 1   
    16   10   11 ar  
    17   10   15 ar  
    18   11   12 ar  
    19   11   22 1   
    20   12   13 ar  
    21   12   23 1   
    22   13   14 ar  
    23   13   24 1   
    24   14   15 ar  
    25   14   25 1   
    26   15   16 1   
@<TRIPOS>SUBSTRUCTURE
     1 B2T         1 TEMP              0 ****  ****    0 ROOT
