@<TRIPOS>MOLECULE
B2X
   37    40     1     0     0
SMALL
bcc


@<TRIPOS>ATOM
      1 C1          0.3170   -0.2780   -0.2040 c3        1 B2X      0.157700
      2 O2          1.6380    0.0600    0.1900 os        1 B2X     -0.391600
      3 C3          1.7890    0.2550    1.5910 c3        1 B2X      0.160700
      4 C4          1.3090   -0.9120    2.3900 ca        1 B2X     -0.079300
      5 C5          1.8060   -1.1800    3.6460 ca        1 B2X     -0.114000
      6 C6          1.3160   -2.2840    4.3810 ca        1 B2X     -0.089000
      7 C7          0.3460   -3.1040    3.8570 ca        1 B2X     -0.139000
      8 C8         -0.1940   -2.8530    2.5660 ca        1 B2X      0.017000
      9 C9          0.2980   -1.7470    1.8280 ca        1 B2X     -0.034000
     10 C10        -0.2150   -1.4680    0.5280 ca        1 B2X     -0.038300
     11 C11        -1.1880   -2.2690   -0.0240 ca        1 B2X     -0.136000
     12 C12        -1.6850   -3.3760    0.7060 ca        1 B2X      0.082400
     13 CL13       -2.8970   -4.3300   -0.0110 cl        1 B2X     -0.078400
     14 C14        -1.2050   -3.6620    1.9720 cp        1 B2X     -0.176500
     15 C15        -1.7550   -4.8250    2.7160 cp        1 B2X      0.808500
     16 N16        -2.6060   -4.6130    3.7490 nb        1 B2X     -0.656000
     17 N17        -1.3650   -6.0840    2.2620 nb        1 B2X     -0.716000
     18 C18        -1.9290   -7.1110    2.9510 ca        1 B2X      0.754900
     19 N19        -1.5550   -8.4890    2.4990 n4        1 B2X     -0.825300
     20 N22        -2.8000   -7.0360    4.0070 nb        1 B2X     -0.769000
     21 C23        -3.1120   -5.7410    4.3780 ca        1 B2X      0.733300
     22 S24        -4.1690   -5.4470    5.6580 ss        1 B2X      0.022600
     23 C25        -4.6630   -7.0020    6.2560 c3        1 B2X     -0.126000
     24 H1          0.4090   -0.4800   -1.3070 h1        1 B2X      0.077200
     25 H1A        -0.3680    0.5990   -0.0320 h1        1 B2X      0.077200
     26 H3          2.8950    0.4150    1.7190 h1        1 B2X      0.074700
     27 H3A         1.2320    1.1800    1.9050 h1        1 B2X      0.074700
     28 H5          2.5880   -0.5430    4.0880 ha        1 B2X      0.152000
     29 H6          1.7280   -2.4790    5.3840 ha        1 B2X      0.146000
     30 H7         -0.0230   -3.9590    4.4400 ha        1 B2X      0.124000
     31 H11        -1.5880   -2.0610   -1.0300 ha        1 B2X      0.167000
     32 HN19       -1.1480   -9.0040    3.2890 hn        1 B2X      0.481133
     33 HN1A       -0.8720   -8.4320    1.7320 hn        1 B2X      0.481133
     34 H25        -3.8240   -7.6120    6.6590 h1        1 B2X      0.098367
     35 H25A       -5.2130   -7.6140    5.5050 h1        1 B2X      0.098367
     36 H25B       -5.3640   -6.7630    7.0990 h1        1 B2X      0.098367
     37 H193       -2.4010   -8.9730    2.1740 hn        1 B2X      0.481133
@<TRIPOS>BOND
     1    1    2 1   
     2    1   10 1   
     3    1   24 1   
     4    1   25 1   
     5    2    3 1   
     6    3    4 1   
     7    3   26 1   
     8    3   27 1   
     9    4    5 ar  
    10    4    9 ar  
    11    5    6 ar  
    12    5   28 1   
    13    6    7 ar  
    14    6   29 1   
    15    7    8 ar  
    16    7   30 1   
    17    8    9 ar  
    18    8   14 ar  
    19    9   10 ar  
    20   10   11 ar  
    21   11   12 ar  
    22   11   31 1   
    23   12   13 1   
    24   12   14 ar  
    25   14   15 1   
    26   15   16 ar  
    27   15   17 ar  
    28   16   21 ar  
    29   17   18 ar  
    30   18   19 1   
    31   18   20 ar  
    32   19   32 1   
    33   19   33 1   
    34   19   37 1   
    35   20   21 ar  
    36   21   22 1   
    37   22   23 1   
    38   23   34 1   
    39   23   35 1   
    40   23   36 1   
@<TRIPOS>SUBSTRUCTURE
     1 B2X         1 TEMP              0 ****  ****    0 ROOT
