@<TRIPOS>MOLECULE
B2X
   36    39     1     0     0
SMALL
bcc


@<TRIPOS>ATOM
      1 C1         -4.5020    1.5130    0.2130 c3        1 B2X      0.168700
      2 O2         -5.4180    0.4290    0.1260 os        1 B2X     -0.403600
      3 C3         -5.1220   -0.4990   -0.9110 c3        1 B2X      0.169700
      4 C4         -3.7220   -1.0120   -0.8580 ca        1 B2X     -0.099300
      5 C5         -3.3800   -2.2330   -1.3930 ca        1 B2X     -0.116000
      6 C6         -2.0380   -2.6780   -1.3450 ca        1 B2X     -0.119000
      7 C7         -1.0620   -1.9050   -0.7640 ca        1 B2X     -0.106000
      8 C8         -1.3830   -0.6400   -0.2000 ca        1 B2X      0.004000
      9 C9         -2.7260   -0.1940   -0.2500 ca        1 B2X     -0.026000
     10 C10        -3.0790    1.0700    0.3070 ca        1 B2X     -0.079300
     11 C11        -2.1210    1.8610    0.8950 ca        1 B2X     -0.122000
     12 C12        -0.7730    1.4200    0.9440 ca        1 B2X      0.053400
     13 CL13        0.3710    2.4420    1.6780 cl        1 B2X     -0.078400
     14 C14        -0.4070    0.2000    0.4110 cp        1 B2X     -0.110500
     15 C15         1.0150   -0.2490    0.4680 cp        1 B2X      0.758500
     16 N16         1.8040    0.0430   -0.6130 nb        1 B2X     -0.737000
     17 N17         1.4100   -0.8980    1.5990 nb        1 B2X     -0.774000
     18 C18         2.7540   -1.2820    1.6120 ca        1 B2X      0.909900
     19 N19         3.2100   -2.0100    2.6970 nh        1 B2X     -0.940500
     20 N22         3.6480   -1.0130    0.5770 nb        1 B2X     -0.814000
     21 C23         3.1120   -0.3630   -0.4950 ca        1 B2X      0.768300
     22 S24         4.1140    0.0130   -1.8400 ss        1 B2X     -0.164400
     23 C25         5.6960   -0.6100   -1.4360 c3        1 B2X     -0.076000
     24 H1         -4.6270    2.1790   -0.6860 h1        1 B2X      0.063200
     25 H1A        -4.8240    2.0610    1.1400 h1        1 B2X      0.063200
     26 H3         -5.8690   -1.3240   -0.7500 h1        1 B2X      0.060700
     27 H3A        -5.3060   -0.0110   -1.9090 h1        1 B2X      0.060700
     28 H5         -4.1420   -2.8740   -1.8600 ha        1 B2X      0.136000
     29 H6         -1.7870   -3.6560   -1.7820 ha        1 B2X      0.137000
     30 H7         -0.0190   -2.2550   -0.7290 ha        1 B2X      0.142000
     31 H11        -2.3850    2.8360    1.3320 ha        1 B2X      0.151000
     32 HN19        2.6320   -2.0710    3.5010 hn        1 B2X      0.443800
     33 HN1A        4.1860   -2.1440    2.8030 hn        1 B2X      0.443800
     34 H25         6.1310   -0.1300   -0.5310 h1        1 B2X      0.077700
     35 H25A        5.7000   -1.7120   -1.2800 h1        1 B2X      0.077700
     36 H25B        6.3300   -0.3630   -2.3220 h1        1 B2X      0.077700
@<TRIPOS>BOND
     1    1    2 1   
     2    1   10 1   
     3    1   24 1   
     4    1   25 1   
     5    2    3 1   
     6    3    4 1   
     7    3   26 1   
     8    3   27 1   
     9    4    5 ar  
    10    4    9 ar  
    11    5    6 ar  
    12    5   28 1   
    13    6    7 ar  
    14    6   29 1   
    15    7    8 ar  
    16    7   30 1   
    17    8    9 ar  
    18    8   14 ar  
    19    9   10 ar  
    20   10   11 ar  
    21   11   12 ar  
    22   11   31 1   
    23   12   13 1   
    24   12   14 ar  
    25   14   15 1   
    26   15   16 ar  
    27   15   17 ar  
    28   16   21 ar  
    29   17   18 ar  
    30   18   19 1   
    31   18   20 ar  
    32   19   32 1   
    33   19   33 1   
    34   20   21 ar  
    35   21   22 1   
    36   22   23 1   
    37   23   34 1   
    38   23   35 1   
    39   23   36 1   
@<TRIPOS>SUBSTRUCTURE
     1 B2X         1 TEMP              0 ****  ****    0 ROOT
