@<TRIPOS>MOLECULE
B2X
   36    34     1     0     0
SMALL
bcc


@<TRIPOS>ATOM
      1 C1          1.9700    0.1980   -4.1340 c3        1 B2X      0.011000
      2 O2          3.3750    0.1570   -4.0480 os        1 B2X     -0.260000
      3 C3          3.9970   -0.1120   -2.8160 c3        1 B2X      0.012000
      4 C4          3.1860    0.0470   -1.5270 c2        1 B2X     -0.092000
      5 C5          3.8340   -0.0310   -0.2780 c2        1 B2X     -0.116000
      6 C6          3.0810   -0.0060    0.9070 c1        1 B2X     -0.119000
      7 C7          1.6810    0.0980    0.8480 c1        1 B2X     -0.106000
      8 C8          1.0310    0.1770   -0.4030 c1        1 B2X      0.004000
      9 C9          1.7830    0.1650   -1.5860 c1        1 B2X     -0.026000
     10 C10         1.1380    0.2020   -2.8230 c2        1 B2X     -0.072000
     11 C11        -0.2690    0.2430   -2.8820 c2        1 B2X     -0.122000
     12 C12        -1.0190    0.2500   -1.7000 c1        1 B2X     -0.025000
     13 CL13       -2.5840   -0.3010   -2.2350 cl        1 B2X      0.000000
     14 C14        -0.3740    0.2170   -0.4620 c2        1 B2X     -0.003000
     15 C15        -1.4620    0.2340    0.5890 c2        1 B2X      0.125000
     16 N16        -1.8810   -0.9150    1.1390 n2        1 B2X     -0.211000
     17 N17        -1.9930    1.4000    0.9850 n1        1 B2X     -0.248000
     18 C18        -2.9420    1.4170    1.9320 c1        1 B2X      0.191000
     19 N19        -3.4810    2.6530    2.3740 n3        1 B2X     -0.338000
     20 N22        -3.3610    0.2680    2.4830 n1        1 B2X     -0.288000
     21 C23        -2.8300   -0.8980    2.0860 c1        1 B2X     -0.085000
     22 S24        -3.4210   -2.4220    2.7760 ss        1 B2X      0.345000
     23 C25        -3.3680   -2.3290    4.5470 c3        1 B2X     -0.376000
     24 H1          1.7300    1.0030   -4.6370 h1        1 B2X      0.102500
     25 H1A         1.6860   -0.5780   -4.6600 h1        1 B2X      0.102500
     26 H3          4.3210   -1.0360   -2.8470 h1        1 B2X      0.100000
     27 H3A         4.7770    0.4760   -2.7460 h1        1 B2X      0.100000
     28 H5          4.8070   -0.1030   -0.2370 ha        1 B2X      0.136000
     29 H6          3.5310   -0.0440    1.7720 ha        1 B2X      0.137000
     30 H7          1.1580    0.1160    1.6720 ha        1 B2X      0.142000
     31 H11        -0.7200    0.2860   -3.7460 ha        1 B2X      0.151000
     32 HN19       -3.0060    3.4260    2.2600 hn        1 B2X      0.239000
     33 HN1A       -4.3000    2.6750    2.7800 hn        1 B2X      0.239000
     34 H25        -3.9760   -1.6240    4.8550 h1        1 B2X      0.117000
     35 H25A       -2.4540   -2.1220    4.8360 h1        1 B2X      0.117000
     36 H25B       -3.6450   -3.1890    4.9270 h1        1 B2X      0.117000
@<TRIPOS>BOND
     1    1    2 1   
     2    1   10 1   
     3    1   24 1   
     4    1   25 1   
     5    2    3 1   
     6    3    4 1   
     7    3   26 1   
     8    3   27 1   
     9    4    5 1   
    10    4    9 1   
    11    5    6 1   
    12    5   28 1   
    13    6   29 1   
    14    7    8 1   
    15    7   30 1   
    16    8   14 1   
    17    9   10 1   
    18   10   11 1   
    19   11   12 1   
    20   11   31 1   
    21   12   14 1   
    22   14   15 1   
    23   15   16 1   
    24   15   17 1   
    25   16   21 1   
    26   18   19 1   
    27   18   20 1   
    28   19   32 1   
    29   19   33 1   
    30   21   22 1   
    31   22   23 1   
    32   23   34 1   
    33   23   35 1   
    34   23   36 1   
@<TRIPOS>SUBSTRUCTURE
     1 B2X         1 TEMP              0 ****  ****    0 ROOT
