@<TRIPOS>MOLECULE
B2X
   36    39     1     0     0
SMALL
bcc


@<TRIPOS>ATOM
      1 C1          0.1920   -0.1790   -0.1480 c3        1 B2X      0.168700
      2 O2          1.5530    0.1010    0.1510 os        1 B2X     -0.403600
      3 C3          1.8370    0.1820    1.5430 c3        1 B2X      0.169700
      4 C4          1.3790   -1.0170    2.3050 ca        1 B2X     -0.099300
      5 C5          1.9690   -1.3870    3.4920 ca        1 B2X     -0.116000
      6 C6          1.4940   -2.5150    4.2000 ca        1 B2X     -0.119000
      7 C7          0.4440   -3.2580    3.7160 ca        1 B2X     -0.106000
      8 C8         -0.1870   -2.9030    2.4910 ca        1 B2X      0.004000
      9 C9          0.2880   -1.7720    1.7840 ca        1 B2X     -0.026000
     10 C10        -0.3240   -1.3920    0.5540 ca        1 B2X     -0.079300
     11 C11        -1.3750   -2.1180    0.0490 ca        1 B2X     -0.122000
     12 C12        -1.8580   -3.2510    0.7550 ca        1 B2X      0.053400
     13 CL13       -3.1630   -4.1090    0.0860 cl        1 B2X     -0.078400
     14 C14        -1.2810   -3.6380    1.9480 cp        1 B2X     -0.110500
     15 C15        -1.8000   -4.8290    2.6830 cp        1 B2X      0.758500
     16 N16        -2.7530   -4.6040    3.6400 nb        1 B2X     -0.737000
     17 N17        -1.2910   -6.0420    2.3250 nb        1 B2X     -0.774000
     18 C18        -1.8210   -7.1270    3.0270 ca        1 B2X      0.909900
     19 N19        -1.3010   -8.3830    2.7690 nh        1 B2X     -0.940500
     20 N22        -2.8120   -7.0120    4.0020 nb        1 B2X     -0.814000
     21 C23        -3.2220   -5.7380    4.2610 ca        1 B2X      0.768300
     22 S24        -4.4290   -5.4680    5.4530 ss        1 B2X     -0.164400
     23 C25        -4.8360   -7.0480    6.0780 c3        1 B2X     -0.076000
     24 H1          0.1870   -0.3170   -1.2640 h1        1 B2X      0.063200
     25 H1A        -0.4410    0.7100    0.1280 h1        1 B2X      0.063200
     26 H3          2.9550    0.2890    1.5800 h1        1 B2X      0.060700
     27 H3A         1.3520    1.1050    1.9670 h1        1 B2X      0.060700
     28 H5          2.8150   -0.8140    3.9000 ha        1 B2X      0.136000
     29 H6          1.9800   -2.7910    5.1480 ha        1 B2X      0.137000
     30 H7          0.0770   -4.1350    4.2690 ha        1 B2X      0.142000
     31 H11        -1.8510   -1.8350   -0.9030 ha        1 B2X      0.151000
     32 HN19       -1.7740   -9.1760    3.1290 hn        1 B2X      0.443800
     33 HN1A       -0.7150   -8.4990    1.9770 hn        1 B2X      0.443800
     34 H25        -5.2570   -7.7250    5.3010 h1        1 B2X      0.077700
     35 H25A       -3.9700   -7.5610    6.5530 h1        1 B2X      0.077700
     36 H25B       -5.6150   -6.8530    6.8540 h1        1 B2X      0.077700
@<TRIPOS>BOND
     1    1    2 1   
     2    1   10 1   
     3    1   24 1   
     4    1   25 1   
     5    2    3 1   
     6    3    4 1   
     7    3   26 1   
     8    3   27 1   
     9    4    5 ar  
    10    4    9 ar  
    11    5    6 ar  
    12    5   28 1   
    13    6    7 ar  
    14    6   29 1   
    15    7    8 ar  
    16    7   30 1   
    17    8    9 ar  
    18    8   14 ar  
    19    9   10 ar  
    20   10   11 ar  
    21   11   12 ar  
    22   11   31 1   
    23   12   13 1   
    24   12   14 ar  
    25   14   15 1   
    26   15   16 ar  
    27   15   17 ar  
    28   16   21 ar  
    29   17   18 ar  
    30   18   19 1   
    31   18   20 ar  
    32   19   32 1   
    33   19   33 1   
    34   20   21 ar  
    35   21   22 1   
    36   22   23 1   
    37   23   34 1   
    38   23   35 1   
    39   23   36 1   
@<TRIPOS>SUBSTRUCTURE
     1 B2X         1 TEMP              0 ****  ****    0 ROOT
