@<TRIPOS>MOLECULE
B2X
   36    39     1     0     0
SMALL
bcc


@<TRIPOS>ATOM
      1 C1          0.1910   -0.1750   -0.1410 c3        1 B2X      0.168700
      2 O2          1.5550    0.1000    0.1550 os        1 B2X     -0.403600
      3 C3          1.8420    0.1760    1.5460 c3        1 B2X      0.169700
      4 C4          1.3830   -1.0240    2.3060 ca        1 B2X     -0.099300
      5 C5          1.9760   -1.3990    3.4900 ca        1 B2X     -0.116000
      6 C6          1.5000   -2.5280    4.1960 ca        1 B2X     -0.119000
      7 C7          0.4470   -3.2660    3.7120 ca        1 B2X     -0.106000
      8 C8         -0.1870   -2.9060    2.4910 ca        1 B2X      0.004000
      9 C9          0.2890   -1.7740    1.7860 ca        1 B2X     -0.026000
     10 C10        -0.3260   -1.3880    0.5590 ca        1 B2X     -0.079300
     11 C11        -1.3800   -2.1110    0.0540 ca        1 B2X     -0.122000
     12 C12        -1.8640   -3.2440    0.7590 ca        1 B2X      0.053400
     13 Cl13       -3.1740   -4.0960    0.0910 cl        1 B2X     -0.078400
     14 C14        -1.2850   -3.6360    1.9490 cp        1 B2X     -0.110500
     15 C15        -1.8050   -4.8280    2.6820 cp        1 B2X      0.758500
     16 N16        -2.7540   -4.6030    3.6420 nb        1 B2X     -0.737000
     17 N17        -1.3010   -6.0420    2.3180 nb        1 B2X     -0.774000
     18 C18        -1.8320   -7.1270    3.0190 ca        1 B2X      0.909900
     19 N19        -1.3160   -8.3840    2.7550 nv        1 B2X     -0.940500
     20 N22        -2.8190   -7.0130    3.9970 nb        1 B2X     -0.814000
     21 C23        -3.2240   -5.7380    4.2610 ca        1 B2X      0.768300
     22 S24        -4.4280   -5.4670    5.4580 ss        1 B2X     -0.164400
     23 C25        -4.8360   -7.0490    6.0800 c3        1 B2X     -0.076000
     24 H1          0.1830   -0.3100   -1.2570 h1        1 B2X      0.063200
     25 H1A        -0.4380    0.7150    0.1400 h1        1 B2X      0.063200
     26 H3          1.3610    1.0990    1.9750 h1        1 B2X      0.060700
     27 H3A         2.9610    0.2800    1.5800 h1        1 B2X      0.060700
     28 H5          2.8250   -0.8290    3.8970 ha        1 B2X      0.136000
     29 H6          1.9880   -2.8080    5.1410 ha        1 B2X      0.137000
     30 H7          0.0790   -4.1440    4.2650 ha        1 B2X      0.142000
     31 H11        -1.8580   -1.8230   -0.8950 ha        1 B2X      0.151000
     32 HN19       -0.7340   -8.4990    1.9610 hn        1 B2X      0.443800
     33 HN1A       -1.7900   -9.1770    3.1140 hn        1 B2X      0.443800
     34 H25        -5.6130   -6.8530    6.8580 h1        1 B2X      0.077700
     35 H25A       -3.9700   -7.5660    6.5500 h1        1 B2X      0.077700
     36 H25B       -5.2620   -7.7220    5.3020 h1        1 B2X      0.077700
@<TRIPOS>BOND
     1    1    2 1   
     2    1   10 1   
     3    1   24 1   
     4    1   25 1   
     5    2    3 1   
     6    3    4 1   
     7    3   26 1   
     8    3   27 1   
     9    4    5 ar  
    10    4    9 ar  
    11    5    6 ar  
    12    5   28 1   
    13    6    7 ar  
    14    6   29 1   
    15    7    8 ar  
    16    7   30 1   
    17    8    9 ar  
    18    8   14 ar  
    19    9   10 ar  
    20   10   11 ar  
    21   11   12 ar  
    22   11   31 1   
    23   12   13 1   
    24   12   14 ar  
    25   14   15 1   
    26   15   16 ar  
    27   15   17 ar  
    28   16   21 ar  
    29   17   18 ar  
    30   18   19 1   
    31   18   20 ar  
    32   19   32 1   
    33   19   33 1   
    34   20   21 ar  
    35   21   22 1   
    36   22   23 1   
    37   23   34 1   
    38   23   35 1   
    39   23   36 1   
@<TRIPOS>SUBSTRUCTURE
     1 B2X         1 TEMP              0 ****  ****    0 ROOT
