@<TRIPOS>MOLECULE
B2Y
   28    29     1     0     0
SMALL
bcc


@<TRIPOS>ATOM
      1 N1         -0.1740   -0.1080    0.1110 n4        1 B2Y     -0.847600
      2 C4          2.4820    0.4560    2.3270 ca        1 B2Y     -0.090000
      3 C5          3.0910   -0.0440    3.4770 ca        1 B2Y     -0.116000
      4 C6          3.1160   -1.4190    3.7110 ca        1 B2Y     -0.078000
      5 C7          2.5350   -2.2980    2.7950 ca        1 B2Y     -0.104000
      6 C8          1.9280   -1.8090    1.6340 cp        1 B2Y     -0.016000
      7 C10         0.0890   -3.3380    0.9510 ca        1 B2Y     -0.142500
      8 C13         1.4560   -4.0040   -1.3900 ca        1 B2Y     -0.120000
      9 C2          1.3080    0.1210    0.1500 c3        1 B2Y      0.176100
     10 C3          1.9050   -0.4200    1.4040 ca        1 B2Y     -0.184300
     11 C9          1.3300   -2.7440    0.6740 cp        1 B2Y     -0.108000
     12 C11        -0.4620   -4.2540    0.0570 ca        1 B2Y     -0.120000
     13 C12         0.2190   -4.5880   -1.1150 ca        1 B2Y     -0.108000
     14 C14         2.0120   -3.0850   -0.5010 ca        1 B2Y     -0.142500
     15 HN1        -0.6240    0.3760    0.8930 hn        1 B2Y      0.460133
     16 HN1A       -0.5630    0.2350   -0.7690 hn        1 B2Y      0.460133
     17 H6          3.5990   -1.8160    4.6190 ha        1 B2Y      0.163000
     18 H7          2.5590   -3.3850    2.9810 ha        1 B2Y      0.165000
     19 H10        -0.4260   -3.1180    1.8990 ha        1 B2Y      0.147000
     20 H13         2.0050   -4.2830   -2.3040 ha        1 B2Y      0.156500
     21 H2          1.7500   -0.4070   -0.7470 hx        1 B2Y      0.111200
     22 H2A         1.4880    1.2300    0.0540 hx        1 B2Y      0.111200
     23 H11        -1.4280   -4.7320    0.2880 ha        1 B2Y      0.156500
     24 H12        -0.2120   -5.3240   -1.8120 ha        1 B2Y      0.159000
     25 H14         3.0020   -2.6480   -0.7080 ha        1 B2Y      0.147000
     26 H4          2.4730    1.5420    2.1440 ha        1 B2Y      0.144000
     27 H131       -0.3620   -1.1200    0.2000 hn        1 B2Y      0.460133
     28 H5          3.5540    0.6480    4.1990 ha        1 B2Y      0.163000
@<TRIPOS>BOND
     1    1    9 1   
     2    1   15 1   
     3    1   16 1   
     4    1   27 1   
     5    2    3 ar  
     6    2   10 ar  
     7    2   26 1   
     8    3    4 ar  
     9    3   28 1   
    10    4    5 ar  
    11    4   17 1   
    12    5    6 ar  
    13    5   18 1   
    14    6   10 ar  
    15    6   11 1   
    16    7   11 ar  
    17    7   12 ar  
    18    7   19 1   
    19    8   13 ar  
    20    8   14 ar  
    21    8   20 1   
    22    9   10 1   
    23    9   21 1   
    24    9   22 1   
    25   11   14 ar  
    26   12   13 ar  
    27   12   23 1   
    28   13   24 1   
    29   14   25 1   
@<TRIPOS>SUBSTRUCTURE
     1 B2Y         1 TEMP              0 ****  ****    0 ROOT
