@<TRIPOS>MOLECULE
B2Y
   28    29     1     0     0
SMALL
bcc


@<TRIPOS>ATOM
      1 N1         -0.1760   -0.1040    0.1230 nz        1 B2Y     -0.847600
      2 C4          2.4900    0.4500    2.3300 ca        1 B2Y     -0.090000
      3 C5          3.1030   -0.0540    3.4760 ca        1 B2Y     -0.116000
      4 C6          3.1280   -1.4310    3.7040 ca        1 B2Y     -0.078000
      5 C7          2.5430   -2.3060    2.7890 ca        1 B2Y     -0.104000
      6 C8          1.9310   -1.8120    1.6310 cp        1 B2Y     -0.016000
      7 C10         0.0880   -3.3370    0.9510 ca        1 B2Y     -0.142500
      8 C13         1.4450   -3.9970   -1.3980 ca        1 B2Y     -0.120000
      9 C2          1.3060    0.1230    0.1570 c3        1 B2Y      0.176100
     10 C3          1.9080   -0.4230    1.4060 ca        1 B2Y     -0.184300
     11 C9          1.3280   -2.7430    0.6710 cp        1 B2Y     -0.108000
     12 C11        -0.4680   -4.2500    0.0560 ca        1 B2Y     -0.120000
     13 C12         0.2080   -4.5800   -1.1190 ca        1 B2Y     -0.108000
     14 C14         2.0050   -3.0800   -0.5080 ca        1 B2Y     -0.142500
     15 HN1        -0.5690    0.2420   -0.7540 hn        1 B2Y      0.460133
     16 HN1A       -0.6220    0.3770    0.9090 hn        1 B2Y      0.460133
     17 H6          3.6140   -1.8310    4.6100 ha        1 B2Y      0.163000
     18 H7          2.5660   -3.3930    2.9700 ha        1 B2Y      0.165000
     19 H10        -0.4220   -3.1200    1.9020 ha        1 B2Y      0.147000
     20 H13         1.9900   -4.2720   -2.3160 ha        1 B2Y      0.156500
     21 H2          1.7440   -0.4020   -0.7440 hx        1 B2Y      0.111200
     22 H2A         1.4870    1.2330    0.0640 hx        1 B2Y      0.111200
     23 H11        -1.4330   -4.7280    0.2890 ha        1 B2Y      0.156500
     24 H12        -0.2260   -5.3130   -1.8180 ha        1 B2Y      0.159000
     25 H14         2.9940   -2.6440   -0.7180 ha        1 B2Y      0.147000
     26 H4          2.4810    1.5370    2.1510 ha        1 B2Y      0.144000
     27 H131       -0.3650   -1.1160    0.2090 hn        1 B2Y      0.460133
     28 H5          3.5700    0.6350    4.1980 ha        1 B2Y      0.163000
@<TRIPOS>BOND
     1    1    9 1   
     2    1   15 1   
     3    1   16 1   
     4    1   27 1   
     5    2    3 ar  
     6    2   10 ar  
     7    2   26 1   
     8    3    4 ar  
     9    3   28 1   
    10    4    5 ar  
    11    4   17 1   
    12    5    6 ar  
    13    5   18 1   
    14    6   10 ar  
    15    6   11 1   
    16    7   11 ar  
    17    7   12 ar  
    18    7   19 1   
    19    8   13 ar  
    20    8   14 ar  
    21    8   20 1   
    22    9   10 1   
    23    9   21 1   
    24    9   22 1   
    25   11   14 ar  
    26   12   13 ar  
    27   12   23 1   
    28   13   24 1   
    29   14   25 1   
@<TRIPOS>SUBSTRUCTURE
     1 B2Y         1 TEMP              0 ****  ****    0 ROOT
