@<TRIPOS>MOLECULE
B2Y
   27    21     1     0     0
SMALL
bcc


@<TRIPOS>ATOM
      1 N1         -0.4290    3.3910   -1.2170 n3        1 B2Y     -0.915800
      2 C4          0.0410    2.3960    1.3120 c1        1 B2Y     -0.068750
      3 C5          0.5890    1.9580    2.5240 c1        1 B2Y     -0.068750
      4 C6          0.9020    0.6050    2.7020 c1        1 B2Y     -0.068750
      5 C7          0.6680   -0.3020    1.6750 c1        1 B2Y     -0.068750
      6 C8          0.1160    0.1420    0.4570 c1        1 B2Y     -0.038000
      7 C10        -1.1110   -1.8150   -0.0960 c1        1 B2Y     -0.060500
      8 C13         1.0150   -2.7480   -1.5820 c1        1 B2Y     -0.068750
      9 C2         -0.7440    1.9710   -1.0440 c3        1 B2Y      0.160900
     10 C3         -0.1930    1.4860    0.2820 c1        1 B2Y     -0.043100
     11 C9          0.0290   -1.0610   -0.2010 c1        1 B2Y     -0.040000
     12 C11        -1.1930   -3.0360   -0.7320 c1        1 B2Y     -0.068750
     13 C12        -0.1240   -3.5010   -1.4770 c1        1 B2Y     -0.068750
     14 C14         1.0950   -1.5210   -0.9420 c1        1 B2Y     -0.068750
     15 HN1         0.2840    3.4780   -1.7870 hn        1 B2Y      0.351300
     16 HN1A       -1.1880    3.8440   -1.5850 hn        1 B2Y      0.351300
     17 H4         -0.1700    3.3070    1.1920 ha        1 B2Y      0.077875
     18 H5          0.7570    2.6150    3.2640 ha        1 B2Y      0.077875
     19 H6          1.2910    0.2930    3.5620 ha        1 B2Y      0.077875
     20 H7          0.8860   -1.2500    1.7970 ha        1 B2Y      0.077875
     21 H10        -1.8660   -1.4860    0.4310 ha        1 B2Y      0.079500
     22 H13         1.7860   -3.0830   -2.1200 ha        1 B2Y      0.077875
     23 H2         -1.7240    1.8480   -1.0570 h1        1 B2Y      0.040700
     24 H2A        -0.3440    1.4600   -1.7660 h1        1 B2Y      0.040700
     25 H11        -2.0730   -3.6160   -0.6490 ha        1 B2Y      0.077875
     26 H12        -0.1820   -4.3740   -1.9310 ha        1 B2Y      0.077875
     27 H14         1.8820   -1.0000   -1.0130 ha        1 B2Y      0.077875
@<TRIPOS>BOND
     1    1    9 1   
     2    1   15 1   
     3    1   16 1   
     4    2    3 3   
     5    2   17 1   
     6    3   18 1   
     7    4    5 3   
     8    4   19 1   
     9    5   20 1   
    10    6   10 3   
    11    7   11 3   
    12    7   21 1   
    13    8   14 3   
    14    8   22 1   
    15    9   10 1   
    16    9   23 1   
    17    9   24 1   
    18   12   13 3   
    19   12   25 1   
    20   13   26 1   
    21   14   27 1   
@<TRIPOS>SUBSTRUCTURE
     1 B2Y         1 TEMP              0 ****  ****    0 ROOT
