@<TRIPOS>MOLECULE
B2Y
   28    29     1     0     0
SMALL
bcc


@<TRIPOS>ATOM
      1 N1         -0.1610   -0.1060    0.0900 n4        1 B2Y     -0.847600
      2 C4          2.4810    0.4600    2.3240 ca        1 B2Y     -0.090000
      3 C5          3.0780   -0.0370    3.4810 ca        1 B2Y     -0.116000
      4 C6          3.0950   -1.4110    3.7220 ca        1 B2Y     -0.078000
      5 C7          2.5180   -2.2920    2.8070 ca        1 B2Y     -0.104000
      6 C8          1.9230   -1.8070    1.6380 cp        1 B2Y     -0.016000
      7 C10         0.0820   -3.3320    0.9500 ca        1 B2Y     -0.142500
      8 C13         1.4650   -4.0180   -1.3770 ca        1 B2Y     -0.120000
      9 C2          1.3220    0.1170    0.1390 c3        1 B2Y      0.176100
     10 C3          1.9060   -0.4200    1.4000 ca        1 B2Y     -0.184300
     11 C9          1.3280   -2.7450    0.6790 cp        1 B2Y     -0.108000
     12 C11        -0.4660   -4.2510    0.0560 ca        1 B2Y     -0.120000
     13 C12         0.2230   -4.5940   -1.1080 ca        1 B2Y     -0.108000
     14 C14         2.0180   -3.0960   -0.4880 ca        1 B2Y     -0.142500
     15 HN1        -0.5410    0.2340   -0.7960 hn        1 B2Y      0.460133
     16 HN1A       -0.6150    0.3840    0.8650 hn        1 B2Y      0.460133
     17 H6          3.5690   -1.8040    4.6370 ha        1 B2Y      0.163000
     18 H7          2.5360   -3.3780    2.9990 ha        1 B2Y      0.165000
     19 H10        -0.4400   -3.1040    1.8920 ha        1 B2Y      0.147000
     20 H13         2.0210   -4.3040   -2.2840 ha        1 B2Y      0.156500
     21 H2          1.7690   -0.4180   -0.7520 hx        1 B2Y      0.111200
     22 H2A         1.5070    1.2250    0.0380 hx        1 B2Y      0.111200
     23 H11        -1.4360   -4.7230    0.2810 ha        1 B2Y      0.156500
     24 H12        -0.2050   -5.3320   -1.8050 ha        1 B2Y      0.159000
     25 H14         3.0120   -2.6650   -0.6890 ha        1 B2Y      0.147000
     26 H4          2.4770    1.5450    2.1350 ha        1 B2Y      0.144000
     27 H131       -0.3540   -1.1170    0.1830 hn        1 B2Y      0.460133
     28 H5          3.5380    0.6580    4.2030 ha        1 B2Y      0.163000
@<TRIPOS>BOND
     1    1    9 1   
     2    1   15 1   
     3    1   16 1   
     4    1   27 1   
     5    2    3 ar  
     6    2   10 ar  
     7    2   26 1   
     8    3    4 ar  
     9    3   28 1   
    10    4    5 ar  
    11    4   17 1   
    12    5    6 ar  
    13    5   18 1   
    14    6   10 ar  
    15    6   11 1   
    16    7   11 ar  
    17    7   12 ar  
    18    7   19 1   
    19    8   13 ar  
    20    8   14 ar  
    21    8   20 1   
    22    9   10 1   
    23    9   21 1   
    24    9   22 1   
    25   11   14 ar  
    26   12   13 ar  
    27   12   23 1   
    28   13   24 1   
    29   14   25 1   
@<TRIPOS>SUBSTRUCTURE
     1 B2Y         1 TEMP              0 ****  ****    0 ROOT
