@<TRIPOS>MOLECULE
B2Y
   27    28     1     0     0
SMALL
bcc


@<TRIPOS>ATOM
      1 N1          0.9060   -2.8110   -1.3100 n3        1 B2Y     -0.909800
      2 C4          2.7110   -0.6830   -0.0480 ca        1 B2Y     -0.134000
      3 C5          3.3650    0.5440    0.0110 ca        1 B2Y     -0.125000
      4 C6          2.6240    1.7220    0.1030 ca        1 B2Y     -0.131000
      5 C7          1.2340    1.6640    0.1420 ca        1 B2Y     -0.117000
      6 C8          0.5650    0.4310    0.0910 cp        1 B2Y     -0.026000
      7 C10        -1.6380    0.9990   -0.9040 ca        1 B2Y     -0.116000
      8 C13        -2.9690   -0.0510    1.3120 ca        1 B2Y     -0.132000
      9 C2          0.6570   -2.1040   -0.0740 c3        1 B2Y      0.197100
     10 C3          1.3120   -0.7530   -0.0120 ca        1 B2Y     -0.063300
     11 C9         -0.9010    0.4360    0.1460 cp        1 B2Y     -0.039000
     12 C11        -3.0310    1.0300   -0.8460 ca        1 B2Y     -0.132000
     13 C12        -3.6980    0.5060    0.2620 ca        1 B2Y     -0.127000
     14 C14        -1.5770   -0.0890    1.2560 ca        1 B2Y     -0.116000
     15 HN1         1.8640   -2.7370   -1.5880 hn        1 B2Y      0.349300
     16 HN1A        0.6650   -3.7770   -1.2080 hn        1 B2Y      0.349300
     17 H5          4.4640    0.5840   -0.0180 ha        1 B2Y      0.132000
     18 H6          3.1350    2.6940    0.1460 ha        1 B2Y      0.133000
     19 H7          0.6460    2.5920    0.2150 ha        1 B2Y      0.137000
     20 H10        -1.1130    1.4100   -1.7790 ha        1 B2Y      0.136500
     21 H13        -3.4920   -0.4630    2.1870 ha        1 B2Y      0.131500
     22 H2         -0.4630   -1.9940    0.0200 h1        1 B2Y      0.038700
     23 H2A         1.0090   -2.6840    0.8340 h1        1 B2Y      0.038700
     24 H11        -3.6030    1.4680   -1.6770 ha        1 B2Y      0.131500
     25 H12        -4.7960    0.5330    0.3070 ha        1 B2Y      0.131000
     26 H14        -1.0030   -0.5290    2.0850 ha        1 B2Y      0.136500
     27 H4          3.2990   -1.6100   -0.1190 ha        1 B2Y      0.126000
@<TRIPOS>BOND
     1    1    9 1   
     2    1   15 1   
     3    1   16 1   
     4    2    3 ar  
     5    2   10 ar  
     6    2   27 1   
     7    3    4 ar  
     8    3   17 1   
     9    4    5 ar  
    10    4   18 1   
    11    5    6 ar  
    12    5   19 1   
    13    6   10 ar  
    14    6   11 1   
    15    7   11 ar  
    16    7   12 ar  
    17    7   20 1   
    18    8   13 ar  
    19    8   14 ar  
    20    8   21 1   
    21    9   10 1   
    22    9   22 1   
    23    9   23 1   
    24   11   14 ar  
    25   12   13 ar  
    26   12   24 1   
    27   13   25 1   
    28   14   26 1   
@<TRIPOS>SUBSTRUCTURE
     1 B2Y         1 TEMP              0 ****  ****    0 ROOT
