@<TRIPOS>MOLECULE
B2Z
   46    48     1     0     0
SMALL
bcc


@<TRIPOS>ATOM
      1 F           0.0370   -1.3670   -2.0520 f         1 B2Z     -0.159900
      2 C18         0.8810   -0.8660   -1.1120 ca        1 B2Z      0.108900
      3 C17         0.7510   -1.2860    0.2220 ca        1 B2Z     -0.149000
      4 C16         1.6200   -0.7820    1.1860 ca        1 B2Z     -0.086000
      5 C15         2.6110    0.1310    0.8280 ca        1 B2Z     -0.129000
      6 C14         2.7360    0.5510   -0.4960 ca        1 B2Z     -0.091000
      7 C13         1.8780    0.0680   -1.4860 ca        1 B2Z     -0.143300
      8 C1          1.9490    0.5260   -2.9080 c3        1 B2Z     -0.000400
      9 C           2.7280    1.8100   -3.0960 c3        1 B2Z     -0.107100
     10 C2          2.5390   -0.5990   -3.7660 c3        1 B2Z     -0.154400
     11 C3          2.1260   -0.4640   -5.2010 c         1 B2Z      0.550100
     12 O           1.6850    0.5110   -5.7910 o         1 B2Z     -0.413100
     13 N           2.2880   -1.7080   -6.0500 n4        1 B2Z     -0.695800
     14 C4          0.9530   -2.3950   -6.3180 c3        1 B2Z      0.209800
     15 C5          0.4210   -3.0900   -5.0750 c3        1 B2Z     -0.133100
     16 C6          1.1220   -3.3320   -7.4740 ca        1 B2Z     -0.199300
     17 C11         0.5940   -2.9460   -8.7210 ca        1 B2Z     -0.106000
     18 C10         0.7350   -3.8210   -9.7850 ca        1 B2Z      0.005600
     19 N1          0.3670   -3.7160  -11.1350 n         1 B2Z     -0.444100
     20 C12         0.7260   -4.9360  -11.7910 c         1 B2Z      0.794500
     21 O1          0.5180   -5.2200  -12.9750 o         1 B2Z     -0.568500
     22 N2          1.4210   -5.7520  -10.8410 n         1 B2Z     -0.453100
     23 C9          1.4180   -5.1010   -9.6090 ca        1 B2Z      0.063600
     24 C8          1.9310   -5.4570   -8.3660 ca        1 B2Z     -0.139000
     25 C7          1.7740   -4.5570   -7.3080 ca        1 B2Z     -0.097000
     26 H17        -0.0400   -2.0030    0.4920 ha        1 B2Z      0.161000
     27 H16         1.5180   -1.1050    2.2340 ha        1 B2Z      0.157000
     28 H15         3.2950    0.5290    1.5940 ha        1 B2Z      0.155000
     29 H14         3.5190    1.2820   -0.7540 ha        1 B2Z      0.147000
     30 H1          0.8880    0.7110   -3.2540 hc        1 B2Z      0.081700
     31 HC1         3.8140    1.6660   -2.8780 hc        1 B2Z      0.056700
     32 HC2         2.6210    2.1660   -4.1510 hc        1 B2Z      0.056700
     33 HC3         2.3300    2.6020   -2.4150 hc        1 B2Z      0.056700
     34 H21C        2.1910   -1.5910   -3.3630 hc        1 B2Z      0.104200
     35 H22C        3.6630   -0.5700   -3.7170 hc        1 B2Z      0.104200
     36 H           2.9160   -2.3710   -5.5900 hn        1 B2Z      0.454800
     37 H4          0.2410   -1.5580   -6.6030 hx        1 B2Z      0.113700
     38 H51C        0.1990   -2.3550   -4.2600 hc        1 B2Z      0.079700
     39 H52C       -0.5340   -3.6050   -5.3520 hc        1 B2Z      0.079700
     40 H53C        1.1290   -3.8610   -4.6860 hc        1 B2Z      0.079700
     41 H11         0.0740   -1.9850   -8.8430 ha        1 B2Z      0.154000
     42 H7          2.1670   -4.8430   -6.3200 ha        1 B2Z      0.134000
     43 HA         -0.3220   -3.1030  -11.4910 hn        1 B2Z      0.364500
     44 H2          1.7220   -6.6750  -11.0210 hn        1 B2Z      0.373500
     45 H8          2.4440   -6.4180   -8.2110 ha        1 B2Z      0.166000
     46 HN3         2.6890   -1.4500   -6.9610 hn        1 B2Z      0.454800
@<TRIPOS>BOND
     1    1    2 1   
     2    2    3 ar  
     3    2    7 ar  
     4    3    4 ar  
     5    3   26 1   
     6    4    5 ar  
     7    4   27 1   
     8    5    6 ar  
     9    5   28 1   
    10    6    7 ar  
    11    6   29 1   
    12    7    8 1   
    13    8    9 1   
    14    8   10 1   
    15    8   30 1   
    16    9   31 1   
    17    9   32 1   
    18    9   33 1   
    19   10   11 1   
    20   10   34 1   
    21   10   35 1   
    22   11   12 2   
    23   11   13 1   
    24   13   14 1   
    25   13   36 1   
    26   13   46 1   
    27   14   15 1   
    28   14   16 1   
    29   14   37 1   
    30   15   38 1   
    31   15   39 1   
    32   15   40 1   
    33   16   17 ar  
    34   16   25 ar  
    35   17   18 ar  
    36   17   41 1   
    37   18   19 1   
    38   18   23 ar  
    39   19   20 1   
    40   19   43 1   
    41   20   21 2   
    42   20   22 1   
    43   22   23 1   
    44   22   44 1   
    45   23   24 ar  
    46   24   25 ar  
    47   24   45 1   
    48   25   42 1   
@<TRIPOS>SUBSTRUCTURE
     1 B2Z         1 TEMP              0 ****  ****    0 ROOT
