@<TRIPOS>MOLECULE
B2Z
   46    48     1     0     0
SMALL
bcc


@<TRIPOS>ATOM
      1 F           0.0100   -1.3180   -2.0760 f         1 B2Z     -0.159900
      2 C18         0.8540   -0.8410   -1.1240 ca        1 B2Z      0.108900
      3 C17         0.6910   -1.2560    0.2080 ca        1 B2Z     -0.149000
      4 C16         1.5600   -0.7770    1.1850 ca        1 B2Z     -0.086000
      5 C15         2.5830    0.1060    0.8410 ca        1 B2Z     -0.129000
      6 C14         2.7410    0.5210   -0.4810 ca        1 B2Z     -0.091000
      7 C13         1.8840    0.0620   -1.4840 ca        1 B2Z     -0.143300
      8 C1          1.9900    0.5170   -2.9040 c3        1 B2Z     -0.000400
      9 C           2.8100    1.7760   -3.0810 c3        1 B2Z     -0.107100
     10 C2          2.5590   -0.6270   -3.7530 c3        1 B2Z     -0.154400
     11 C3          2.1720   -0.4800   -5.1940 c         1 B2Z      0.550100
     12 O           1.7700    0.5060   -5.7910 o         1 B2Z     -0.413100
     13 N           2.3090   -1.7300   -6.0400 ny        1 B2Z     -0.695800
     14 C4          0.9580   -2.3760   -6.3270 c3        1 B2Z      0.209800
     15 C5          0.3870   -3.0540   -5.0920 c3        1 B2Z     -0.133100
     16 C6          1.1150   -3.3190   -7.4810 ca        1 B2Z     -0.199300
     17 C11         0.6190   -2.9170   -8.7350 ca        1 B2Z     -0.106000
     18 C10         0.7490   -3.7960   -9.7970 ca        1 B2Z      0.005600
     19 N1          0.4040   -3.6800  -11.1530 ns        1 B2Z     -0.444100
     20 C12         0.7360   -4.9110  -11.8040 c         1 B2Z      0.794500
     21 O1          0.5370   -5.1890  -12.9910 o         1 B2Z     -0.568500
     22 N2          1.3910   -5.7470  -10.8430 ns        1 B2Z     -0.453100
     23 C9          1.3890   -5.0960   -9.6110 ca        1 B2Z      0.063600
     24 C8          1.8720   -5.4670   -8.3610 ca        1 B2Z     -0.139000
     25 C7          1.7270   -4.5630   -7.3050 ca        1 B2Z     -0.097000
     26 H17        -0.1240   -1.9490    0.4660 ha        1 B2Z      0.161000
     27 H16         1.4330   -1.0970    2.2320 ha        1 B2Z      0.157000
     28 H15         3.2670    0.4840    1.6170 ha        1 B2Z      0.155000
     29 H14         3.5490    1.2280   -0.7270 ha        1 B2Z      0.147000
     30 H1          0.9400    0.7330   -3.2670 hc        1 B2Z      0.081700
     31 HC1         3.8880    1.6000   -2.8470 hc        1 B2Z      0.056700
     32 HC2         2.7290    2.1350   -4.1370 hc        1 B2Z      0.056700
     33 HC3         2.4250    2.5800   -2.4060 hc        1 B2Z      0.056700
     34 H21C        2.1750   -1.6080   -3.3540 hc        1 B2Z      0.104200
     35 H22C        3.6820   -0.6310   -3.6870 hc        1 B2Z      0.104200
     36 H           2.9100   -2.4110   -5.5700 hn        1 B2Z      0.454800
     37 H4          0.2760   -1.5180   -6.6230 hx        1 B2Z      0.113700
     38 H51C        1.0660   -3.8460   -4.6930 hc        1 B2Z      0.079700
     39 H52C        0.1750   -2.3120   -4.2810 hc        1 B2Z      0.079700
     40 H53C       -0.5790   -3.5400   -5.3830 hc        1 B2Z      0.079700
     41 H11         0.1310   -1.9400   -8.8660 ha        1 B2Z      0.154000
     42 H7          2.0960   -4.8600   -6.3110 ha        1 B2Z      0.134000
     43 HA         -0.2600   -3.0460  -11.5190 hn        1 B2Z      0.364500
     44 H2          1.6660   -6.6790  -11.0190 hn        1 B2Z      0.373500
     45 H8          2.3530   -6.4430   -8.1990 ha        1 B2Z      0.166000
     46 HN3         2.7320   -1.4850   -6.9450 hn        1 B2Z      0.454800
@<TRIPOS>BOND
     1    1    2 1   
     2    2    3 ar  
     3    2    7 ar  
     4    3    4 ar  
     5    3   26 1   
     6    4    5 ar  
     7    4   27 1   
     8    5    6 ar  
     9    5   28 1   
    10    6    7 ar  
    11    6   29 1   
    12    7    8 1   
    13    8    9 1   
    14    8   10 1   
    15    8   30 1   
    16    9   31 1   
    17    9   32 1   
    18    9   33 1   
    19   10   11 1   
    20   10   34 1   
    21   10   35 1   
    22   11   12 2   
    23   11   13 1   
    24   13   14 1   
    25   13   36 1   
    26   13   46 1   
    27   14   15 1   
    28   14   16 1   
    29   14   37 1   
    30   15   38 1   
    31   15   39 1   
    32   15   40 1   
    33   16   17 ar  
    34   16   25 ar  
    35   17   18 ar  
    36   17   41 1   
    37   18   19 1   
    38   18   23 ar  
    39   19   20 1   
    40   19   43 1   
    41   20   21 2   
    42   20   22 1   
    43   22   23 1   
    44   22   44 1   
    45   23   24 ar  
    46   24   25 ar  
    47   24   45 1   
    48   25   42 1   
@<TRIPOS>SUBSTRUCTURE
     1 B2Z         1 TEMP              0 ****  ****    0 ROOT
