@<TRIPOS>MOLECULE
B32
   71    73     1     0     0
SMALL
bcc


@<TRIPOS>ATOM
      1 CAR         4.0760    0.8000   -0.4450 c3        1 B32     -0.079400
      2 CAS         4.2760    0.1090    0.8870 c3        1 B32     -0.079400
      3 CAT         5.3440    0.7990    1.7080 c3        1 B32     -0.079400
      4 CAU         5.5420    0.1080    3.0400 c3        1 B32     -0.079400
      5 CAV         6.6110    0.8000    3.8590 c3        1 B32     -0.079400
      6 CAW         6.8050    0.1080    5.1920 c3        1 B32     -0.079400
      7 CAX         7.8760    0.8060    6.0070 c3        1 B32     -0.104400
      8 CAY         8.0410    0.0900    7.3420 c3        1 B32      0.103800
      9 NAZ         9.0870    0.7160    8.2010 n4        1 B32     -0.759000
     10 CBA         9.2490   -0.0100    9.4960 c3        1 B32      0.120800
     11 CBB        10.1650    0.7050   10.4790 c3        1 B32     -0.071300
     12 SD         11.1700   -0.4570   11.3350 ss        1 B32     -0.196200
     13 C5'        12.6940   -0.4450   10.4490 c3        1 B32     -0.062300
     14 C4'        12.6120   -0.9870    9.0360 c3        1 B32      0.107100
     15 O4'        11.9320   -0.0450    8.1900 os        1 B32     -0.472600
     16 C3'        14.0030   -1.2480    8.4140 c3        1 B32      0.085100
     17 O3'        14.1590   -2.6090    8.0760 oh        1 B32     -0.585800
     18 C2'        14.0270   -0.4390    7.0950 c3        1 B32      0.134100
     19 O2'        13.7230   -1.2090    5.9520 oh        1 B32     -0.582800
     20 C1'        12.8300    0.5510    7.2330 c3        1 B32      0.253800
     21 N9         13.1780    1.8890    7.6340 na        1 B32     -0.305000
     22 C8         14.4560    2.4440    7.9310 cc        1 B32      0.409700
     23 N7         14.4270    3.7620    8.1500 nd        1 B32     -0.510100
     24 C5         13.0820    4.1350    8.0050 ca        1 B32     -0.233200
     25 C4         12.2740    2.9670    7.6890 ca        1 B32      0.470800
     26 N3         10.9190    3.0090    7.5130 nb        1 B32     -0.845000
     27 C2         10.4220    4.2720    7.6180 ca        1 B32      0.697900
     28 N1         11.0460    5.4390    7.8860 nb        1 B32     -0.776000
     29 C6         12.4150    5.4050    8.0960 ca        1 B32      0.784200
     30 N6         13.1070    6.5370    8.3900 nh        1 B32     -0.928500
     31 CAP         2.8040    0.7950   -2.5930 c3        1 B32     -0.094100
     32 CAQ         3.0070    0.1110   -1.2670 c3        1 B32     -0.079400
     33 HAR         5.0420    0.8060   -1.0150 hc        1 B32      0.040700
     34 HARA        3.7860    1.8700   -0.2740 hc        1 B32      0.040700
     35 HAS         4.5650   -0.9620    0.7160 hc        1 B32      0.041700
     36 HASA        3.3090    0.1030    1.4560 hc        1 B32      0.041700
     37 HAT         6.3110    0.8040    1.1380 hc        1 B32      0.042700
     38 HATA        5.0550    1.8700    1.8770 hc        1 B32      0.042700
     39 HAU         5.8320   -0.9630    2.8690 hc        1 B32      0.044700
     40 HAUA        4.5750    0.1030    3.6080 hc        1 B32      0.044700
     41 HAV         6.3210    1.8710    4.0280 hc        1 B32      0.047200
     42 HAVA        7.5780    0.8020    3.2910 hc        1 B32      0.047200
     43 HAW         5.8360    0.1060    5.7590 hc        1 B32      0.052700
     44 HAWA        7.0950   -0.9630    5.0210 hc        1 B32      0.052700
     45 HAX         8.8430    0.8010    5.4380 hc        1 B32      0.067200
     46 HAXA        7.5840    1.8770    6.1710 hc        1 B32      0.067200
     47 HAY         7.0670    0.1050    7.9090 hx        1 B32      0.098700
     48 HAYA        8.3370   -0.9850    7.1670 hx        1 B32      0.098700
     49 HNAZ        9.9920    0.7110    7.7000 hn        1 B32      0.466300
     50 HBA         8.2260   -0.1480    9.9500 hx        1 B32      0.104200
     51 HBAA        9.6770   -1.0280    9.2530 hx        1 B32      0.104200
     52 HBB        10.8080    1.4710    9.9730 h1        1 B32      0.107200
     53 HBBA        9.5530    1.2310   11.2570 h1        1 B32      0.107200
     54 H5'        13.1320    0.5840   10.4360 h1        1 B32      0.098700
     55 H5'A       13.3630   -1.1050   11.0620 h1        1 B32      0.098700
     56 H4'        11.9880   -1.9240    9.0000 h1        1 B32      0.098700
     57 H3'        14.8220   -0.9040    9.1000 h1        1 B32      0.068700
     58 HO3'       14.4490   -3.0770    8.8700 ho        1 B32      0.431000
     59 H2'        15.0180    0.0640    6.9470 h1        1 B32      0.075700
     60 HO2'       14.2320   -2.0320    6.0020 ho        1 B32      0.449000
     61 H1'        12.2300    0.5990    6.2720 h2        1 B32      0.123700
     62 H8         15.3620    1.8270    7.9620 h5        1 B32      0.081800
     63 H2          9.3260    4.3690    7.4530 h5        1 B32      0.045100
     64 HN6        12.6530    7.4180    8.4290 hn        1 B32      0.463800
     65 HN6A       14.0920    6.4880    8.5030 hn        1 B32      0.463800
     66 HAP         2.4890    1.8570   -2.4460 hc        1 B32      0.035700
     67 HAPA        3.7490    0.7900   -3.1890 hc        1 B32      0.035700
     68 HAPB        2.0130    0.2720   -3.1830 hc        1 B32      0.035700
     69 HAQ         2.0420    0.1040   -0.6950 hc        1 B32      0.039700
     70 HAQA        3.2980   -0.9600   -1.4360 hc        1 B32      0.039700
     71 HAZ2        8.8430    1.6960    8.3800 hn        1 B32      0.466300
@<TRIPOS>BOND
     1    1    2 1   
     2    1   32 1   
     3    1   33 1   
     4    1   34 1   
     5    2    3 1   
     6    2   35 1   
     7    2   36 1   
     8    3    4 1   
     9    3   37 1   
    10    3   38 1   
    11    4    5 1   
    12    4   39 1   
    13    4   40 1   
    14    5    6 1   
    15    5   41 1   
    16    5   42 1   
    17    6    7 1   
    18    6   43 1   
    19    6   44 1   
    20    7    8 1   
    21    7   45 1   
    22    7   46 1   
    23    8    9 1   
    24    8   47 1   
    25    8   48 1   
    26    9   10 1   
    27    9   49 1   
    28    9   71 1   
    29   10   11 1   
    30   10   50 1   
    31   10   51 1   
    32   11   12 1   
    33   11   52 1   
    34   11   53 1   
    35   12   13 1   
    36   13   14 1   
    37   13   54 1   
    38   13   55 1   
    39   14   15 1   
    40   14   16 1   
    41   14   56 1   
    42   15   20 1   
    43   16   17 1   
    44   16   18 1   
    45   16   57 1   
    46   17   58 1   
    47   18   19 1   
    48   18   20 1   
    49   18   59 1   
    50   19   60 1   
    51   20   21 1   
    52   20   61 1   
    53   21   22 1   
    54   21   25 1   
    55   22   23 2   
    56   22   62 1   
    57   23   24 1   
    58   24   25 ar  
    59   24   29 ar  
    60   25   26 ar  
    61   26   27 ar  
    62   27   28 ar  
    63   27   63 1   
    64   28   29 ar  
    65   29   30 1   
    66   30   64 1   
    67   30   65 1   
    68   31   32 1   
    69   31   66 1   
    70   31   67 1   
    71   31   68 1   
    72   32   69 1   
    73   32   70 1   
@<TRIPOS>SUBSTRUCTURE
     1 B32         1 TEMP              0 ****  ****    0 ROOT
