@<TRIPOS>MOLECULE
B32
   70    68     1     0     0
SMALL
bcc


@<TRIPOS>ATOM
      1 CAR        -9.2320    0.8900   -6.2470 c3        1 B32     -0.079400
      2 CAS        -7.7310    0.5830   -6.1870 c3        1 B32     -0.079400
      3 CAT        -7.2180    0.7840   -4.7100 c3        1 B32     -0.079400
      4 CAU        -5.7140    0.5160   -4.6510 c3        1 B32     -0.079400
      5 CAV        -5.2200    0.6280   -3.1750 c3        1 B32     -0.078400
      6 CAW        -3.7580    0.3270   -3.1110 c3        1 B32     -0.078400
      7 CAX        -3.2620    0.4560   -1.6320 c3        1 B32     -0.083400
      8 CAY        -1.7820    0.1490   -1.5690 c3        1 B32      0.162800
      9 NAZ        -1.2930    0.3980   -0.2250 n3        1 B32     -0.822200
     10 CBA         0.1560    0.2360   -0.2020 c3        1 B32      0.174800
     11 CBB         0.6810    0.4080    1.2550 c3        1 B32     -0.029300
     12 SD          2.4300    0.0050    1.3140 ss        1 B32     -0.275200
     13 C5'         2.9620   -0.0700    3.0060 c3        1 B32     -0.045300
     14 C4'         4.2330   -0.9900    3.1180 c3        1 B32      0.128100
     15 O4'         5.2610   -0.2920    3.3100 os        1 B32     -0.408600
     16 C3'         4.1200   -1.9210    4.3870 c3        1 B32      0.125100
     17 O3'         3.9270   -3.2290    4.0020 oh        1 B32     -0.592800
     18 C2'         5.4180   -1.7800    5.1030 c3        1 B32      0.086100
     19 O2'         5.9850   -3.1450    5.4480 oh        1 B32     -0.599800
     20 C1'         6.2120   -1.1510    4.2490 c3        1 B32      0.229800
     21 N9          7.1040   -0.3000    4.9480 n3        1 B32     -0.135400
     22 C8          6.8160    0.7780    5.7040 c1        1 B32      0.190400
     23 N7          7.9790    1.3300    6.1000 ne        1 B32     -0.392400
     24 C5          8.9690    0.6060    5.5980 cg        1 B32     -0.185000
     25 C4          8.4290   -0.4110    4.8800 c1        1 B32      0.330500
     26 N3          9.2300   -1.3830    4.3750 n1        1 B32     -0.567800
     27 C2         10.5980   -1.3360    4.5940 c1        1 B32      0.413300
     28 N1         11.1260   -0.3340    5.3000 n1        1 B32     -0.594800
     29 C6         10.3160    0.6500    5.8120 c1        1 B32      0.301800
     30 N6         11.2310    1.4790    6.5270 n3        1 B32     -0.820400
     31 CAP       -11.2680    1.0440   -7.7760 c3        1 B32     -0.092100
     32 CAQ        -9.7530    0.6940   -7.7160 c3        1 B32     -0.080400
     33 HAR        -9.7250    0.2690   -5.6310 hc        1 B32      0.039700
     34 HARA       -9.3930    1.8470   -5.9590 hc        1 B32      0.039700
     35 HAS        -7.2530    1.1840   -6.7810 hc        1 B32      0.039700
     36 HASA       -7.5780   -0.3200   -6.4580 hc        1 B32      0.039700
     37 HAT        -7.3990    1.7140   -4.4230 hc        1 B32      0.039700
     38 HATA       -7.6950    0.1500   -4.1040 hc        1 B32      0.039700
     39 HAU        -5.5280   -0.3910   -4.9920 hc        1 B32      0.039700
     40 HAUA       -5.2420    1.1780   -5.2060 hc        1 B32      0.039700
     41 HAV        -5.3800    1.5430   -2.8440 hc        1 B32      0.040700
     42 HAVA       -5.7080   -0.0080   -2.6210 hc        1 B32      0.040700
     43 HAW        -3.2570    0.9770   -3.6880 hc        1 B32      0.041200
     44 HAWA       -3.5950   -0.5980   -3.4360 hc        1 B32      0.041200
     45 HAX        -3.4210    1.3890   -1.3060 hc        1 B32      0.046700
     46 HAXA       -3.7620   -0.1880   -1.0550 hc        1 B32      0.046700
     47 HAY        -1.3000    0.7250   -2.2050 h1        1 B32      0.030700
     48 HAYA       -1.6360   -0.7660   -1.7970 h1        1 B32      0.030700
     49 HNAZ       -1.6820   -0.2040    0.3620 hn        1 B32      0.356800
     50 HBA         0.5620    0.9060   -0.7710 h1        1 B32      0.043700
     51 HBAA        0.3940   -0.6730   -0.5380 h1        1 B32      0.043700
     52 HBB         0.2090   -0.1640    1.8280 h1        1 B32      0.072700
     53 HBBA        0.5500    1.3450    1.5440 h1        1 B32      0.072700
     54 H5'         2.2590   -0.4320    3.5450 h1        1 B32      0.085200
     55 H5'A        3.1810    0.8300    3.3200 h1        1 B32      0.085200
     56 H4'         4.3350   -1.5290    2.3120 h1        1 B32      0.116700
     57 H3'         3.3850   -1.6230    4.9590 h1        1 B32      0.060700
     58 HO3'        3.1000   -3.4950    4.2430 ho        1 B32      0.435000
     59 H2'         5.3010   -1.2540    5.9010 h1        1 B32      0.078700
     60 HO2'        6.0800   -3.2120    6.3330 ho        1 B32      0.442000
     61 H1'         6.7320   -1.8240    3.6960 h2        1 B32      0.103700
     62 H8          5.8930    1.1560    5.8740 DU        1 B32      0.216000
     63 H2         11.1740   -2.0310    4.2310 ha        1 B32      0.130500
     64 HN6        12.1510    1.4490    6.3230 hn        1 B32      0.451300
     65 HN6A       10.9180    2.0380    7.2220 hn        1 B32      0.451300
     66 HAP       -11.5880    0.9620   -8.7030 hc        1 B32      0.032700
     67 HAPA      -11.7680    0.4320   -7.2040 hc        1 B32      0.032700
     68 HAPB      -11.3980    1.9400   -7.4730 hc        1 B32      0.032700
     69 HAQ        -9.2450    1.3010   -8.3350 hc        1 B32      0.038700
     70 HAQA       -9.6190   -0.2440   -7.9930 hc        1 B32      0.038700
@<TRIPOS>BOND
     1    1    2 1   
     2    1   32 1   
     3    1   33 1   
     4    1   34 1   
     5    2    3 1   
     6    2   35 1   
     7    2   36 1   
     8    3    4 1   
     9    3   37 1   
    10    3   38 1   
    11    4    5 1   
    12    4   39 1   
    13    4   40 1   
    14    5    6 1   
    15    5   41 1   
    16    5   42 1   
    17    6    7 1   
    18    6   43 1   
    19    6   44 1   
    20    7    8 1   
    21    7   45 1   
    22    7   46 1   
    23    8    9 1   
    24    8   47 1   
    25    8   48 1   
    26    9   10 1   
    27    9   49 1   
    28   10   11 1   
    29   10   50 1   
    30   10   51 1   
    31   11   12 1   
    32   11   52 1   
    33   11   53 1   
    34   12   13 1   
    35   13   14 1   
    36   13   54 1   
    37   13   55 1   
    38   14   15 1   
    39   14   16 1   
    40   14   56 1   
    41   15   20 1   
    42   16   17 1   
    43   16   18 1   
    44   16   57 1   
    45   17   58 1   
    46   18   19 1   
    47   18   20 1   
    48   18   59 1   
    49   19   60 1   
    50   20   21 1   
    51   20   61 1   
    52   21   22 2   
    53   21   25 1   
    54   22   23 2   
    55   23   24 1   
    56   24   29 3   
    57   25   26 3   
    58   27   28 3   
    59   27   63 1   
    60   29   30 1   
    61   30   64 1   
    62   30   65 1   
    63   31   32 1   
    64   31   66 1   
    65   31   67 1   
    66   31   68 1   
    67   32   69 1   
    68   32   70 1   
@<TRIPOS>SUBSTRUCTURE
     1 B32         1 TEMP              0 ****  ****    0 ROOT
