@<TRIPOS>MOLECULE
B32
   71    73     1     0     0
SMALL
bcc


@<TRIPOS>ATOM
      1 CAR         4.1380    0.7660   -0.4910 c3        1 B32     -0.079400
      2 CAS         4.3550    0.0430    0.8220 c3        1 B32     -0.079400
      3 CAT         5.3840    0.7540    1.6740 c3        1 B32     -0.079400
      4 CAU         5.6010    0.0310    2.9870 c3        1 B32     -0.079400
      5 CAV         6.6300    0.7440    3.8380 c3        1 B32     -0.079400
      6 CAW         6.8440    0.0170    5.1500 c3        1 B32     -0.079400
      7 CAX         7.8760    0.7350    5.9970 c3        1 B32     -0.104400
      8 CAY         8.0660   -0.0180    7.3080 c3        1 B32      0.103800
      9 NAZ         9.0760    0.6260    8.1970 ny        1 B32     -0.759000
     10 CBA         9.2650   -0.1380    9.4660 c3        1 B32      0.120800
     11 CBB        10.1410    0.5830   10.4800 c3        1 B32     -0.071300
     12 SD         11.1950   -0.5610   11.3000 ss        1 B32     -0.196200
     13 C5'        12.7210   -0.4450   10.4250 c3        1 B32     -0.062300
     14 C4'        12.6730   -0.9390    8.9940 c3        1 B32      0.107100
     15 O4'        11.9540    0.0010    8.1770 os        1 B32     -0.472600
     16 C3'        14.0780   -1.1120    8.3720 c3        1 B32      0.085100
     17 O3'        14.3000   -2.4510    7.9860 oh        1 B32     -0.585800
     18 C2'        14.0700   -0.2550    7.0830 c3        1 B32      0.134100
     19 O2'        13.8090   -0.9950    5.9110 oh        1 B32     -0.582800
     20 C1'        12.8270    0.6730    7.2490 c3        1 B32      0.253800
     21 N9         13.1100    2.0100    7.7000 na        1 B32     -0.305000
     22 C8         14.3580    2.6130    8.0260 cc        1 B32      0.409700
     23 N7         14.2670    3.9200    8.2930 nd        1 B32     -0.510100
     24 C5         12.9060    4.2340    8.1520 ca        1 B32     -0.233200
     25 C4         12.1560    3.0410    7.7880 ca        1 B32      0.470800
     26 N3         10.8010    3.0270    7.6050 nb        1 B32     -0.845000
     27 C2         10.2450    4.2600    7.7530 ca        1 B32      0.697900
     28 N1         10.8110    5.4440    8.0670 nb        1 B32     -0.776000
     29 C6         12.1790    5.4670    8.2850 ca        1 B32      0.784200
     30 N6         12.8160    6.6190    8.6250 nv        1 B32     -0.928500
     31 CAP         2.8900    0.7710   -2.6530 c3        1 B32     -0.094100
     32 CAQ         3.1090    0.0560   -1.3450 c3        1 B32     -0.079400
     33 HAR         5.1090    0.8320   -1.0500 hc        1 B32      0.040700
     34 HARA        3.8000    1.8170   -0.2910 hc        1 B32      0.040700
     35 HAS         3.3840   -0.0220    1.3790 hc        1 B32      0.041700
     36 HASA        4.6930   -1.0070    0.6210 hc        1 B32      0.041700
     37 HAT         5.0450    1.8050    1.8750 hc        1 B32      0.042700
     38 HATA        6.3550    0.8200    1.1160 hc        1 B32      0.042700
     39 HAU         4.6290   -0.0340    3.5450 hc        1 B32      0.044700
     40 HAUA        5.9390   -1.0200    2.7850 hc        1 B32      0.044700
     41 HAV         7.6010    0.8080    3.2790 hc        1 B32      0.047200
     42 HAVA        6.2900    1.7940    4.0390 hc        1 B32      0.047200
     43 HAW         5.8720   -0.0460    5.7070 hc        1 B32      0.052700
     44 HAWA        7.1840   -1.0330    4.9470 hc        1 B32      0.052700
     45 HAX         8.8470    0.7950    5.4360 hc        1 B32      0.067200
     46 HAXA        7.5340    1.7860    6.1950 hc        1 B32      0.067200
     47 HAY         7.0880   -0.0670    7.8670 hx        1 B32      0.098700
     48 HAYA        8.4120   -1.0710    7.0990 hx        1 B32      0.098700
     49 HNAZ        9.9820    0.6810    7.7020 hn        1 B32      0.466300
     50 HBA         9.7410   -1.1260    9.1900 hx        1 B32      0.104200
     51 HBAA        8.2470   -0.3400    9.9070 hx        1 B32      0.104200
     52 HBB         9.5020    1.0510   11.2730 h1        1 B32      0.107200
     53 HBBA       10.7500    1.3960   10.0060 h1        1 B32      0.107200
     54 H5'        13.4180   -1.0950   11.0190 h1        1 B32      0.098700
     55 H5'A       13.1110    0.6020   10.4530 h1        1 B32      0.098700
     56 H4'        12.0940   -1.9020    8.9190 h1        1 B32      0.098700
     57 H3'        14.8760   -0.7550    9.0750 h1        1 B32      0.068700
     58 HO3'       14.6070   -2.9330    8.7640 ho        1 B32      0.431000
     59 H2'        15.0370    0.2990    6.9600 h1        1 B32      0.075700
     60 HO2'       14.3560   -1.7950    5.9350 ho        1 B32      0.449000
     61 H1'        12.2310    0.7280    6.2860 h2        1 B32      0.123700
     62 H8         15.2930    2.0390    8.0410 h5        1 B32      0.081800
     63 H2          9.1460    4.3110    7.5840 h5        1 B32      0.045100
     64 HN6        12.3200    7.4760    8.6930 hn        1 B32      0.463800
     65 HN6A       13.8010    6.6120    8.7420 hn        1 B32      0.463800
     66 HAP         2.1290    0.2320   -3.2670 hc        1 B32      0.035700
     67 HAPA        2.5280    1.8130   -2.4780 hc        1 B32      0.035700
     68 HAPB        3.8400    0.8260   -3.2380 hc        1 B32      0.035700
     69 HAQ         2.1400   -0.0100   -0.7850 hc        1 B32      0.039700
     70 HAQA        3.4490   -0.9950   -1.5430 hc        1 B32      0.039700
     71 HAZ2        8.7840    1.5860    8.4090 hn        1 B32      0.466300
@<TRIPOS>BOND
     1    1    2 1   
     2    1   32 1   
     3    1   33 1   
     4    1   34 1   
     5    2    3 1   
     6    2   35 1   
     7    2   36 1   
     8    3    4 1   
     9    3   37 1   
    10    3   38 1   
    11    4    5 1   
    12    4   39 1   
    13    4   40 1   
    14    5    6 1   
    15    5   41 1   
    16    5   42 1   
    17    6    7 1   
    18    6   43 1   
    19    6   44 1   
    20    7    8 1   
    21    7   45 1   
    22    7   46 1   
    23    8    9 1   
    24    8   47 1   
    25    8   48 1   
    26    9   10 1   
    27    9   49 1   
    28    9   71 1   
    29   10   11 1   
    30   10   50 1   
    31   10   51 1   
    32   11   12 1   
    33   11   52 1   
    34   11   53 1   
    35   12   13 1   
    36   13   14 1   
    37   13   54 1   
    38   13   55 1   
    39   14   15 1   
    40   14   16 1   
    41   14   56 1   
    42   15   20 1   
    43   16   17 1   
    44   16   18 1   
    45   16   57 1   
    46   17   58 1   
    47   18   19 1   
    48   18   20 1   
    49   18   59 1   
    50   19   60 1   
    51   20   21 1   
    52   20   61 1   
    53   21   22 1   
    54   21   25 1   
    55   22   23 2   
    56   22   62 1   
    57   23   24 1   
    58   24   25 ar  
    59   24   29 ar  
    60   25   26 ar  
    61   26   27 ar  
    62   27   28 ar  
    63   27   63 1   
    64   28   29 ar  
    65   29   30 1   
    66   30   64 1   
    67   30   65 1   
    68   31   32 1   
    69   31   66 1   
    70   31   67 1   
    71   31   68 1   
    72   32   69 1   
    73   32   70 1   
@<TRIPOS>SUBSTRUCTURE
     1 B32         1 TEMP              0 ****  ****    0 ROOT
