@<TRIPOS>MOLECULE
B32
   72    74     1     0     0
SMALL
bcc


@<TRIPOS>ATOM
      1 CAR         0.4920   -1.8350    0.4380 c3        1 B32     -0.079400
      2 CAS         1.7130   -0.9400    0.4600 c3        1 B32     -0.079400
      3 CAT         2.3740   -0.9490    1.8210 c3        1 B32     -0.079400
      4 CAU         3.5940   -0.0530    1.8410 c3        1 B32     -0.079400
      5 CAV         4.2540   -0.0640    3.2040 c3        1 B32     -0.079400
      6 CAW         5.4750    0.8340    3.2200 c3        1 B32     -0.078400
      7 CAX         6.1300    0.8170    4.5880 c3        1 B32     -0.110400
      8 CAY         7.3510    1.7280    4.5680 c3        1 B32      0.102800
      9 NAZ         8.0540    1.7670    5.8900 n4        1 B32     -0.765000
     10 CBA         9.2480    2.6660    5.8590 c3        1 B32      0.119800
     11 CBB         9.9700    2.7350    7.1920 c3        1 B32     -0.091300
     12 SD         11.1570    4.0300    6.9960 ss        1 B32     -0.191200
     13 C5'        12.4450    3.6520    8.1310 c3        1 B32     -0.047300
     14 C4'        13.2210    2.3940    7.7930 c3        1 B32      0.129100
     15 O4'        14.6280    2.6960    7.8610 os        1 B32     -0.408600
     16 C3'        12.9430    1.2080    8.7370 c3        1 B32      0.075100
     17 O3'        12.1720    0.2680    8.0130 oh        1 B32     -0.612800
     18 C2'        14.3280    0.6460    9.1220 c3        1 B32      0.080100
     19 O2'        14.5440   -0.6240    8.5650 oh        1 B32     -0.556800
     20 C1'        15.3540    1.6900    8.5730 c3        1 B32      0.220800
     21 N9         16.1570    2.3340    9.5970 na        1 B32     -0.272000
     22 C8         15.9630    3.5990   10.1970 cc        1 B32      0.511700
     23 N7         16.9630    3.9810   11.0130 nd        1 B32     -0.572100
     24 C5         17.8960    2.9410   10.9490 ca        1 B32     -0.137200
     25 C4         17.4130    1.8790   10.0380 ca        1 B32      0.458800
     26 N3         18.1160    0.7520    9.7720 nb        1 B32     -0.616000
     27 C2         19.3080    0.6800   10.4200 ca        1 B32      0.682900
     28 N1         19.8650    1.5820   11.2810 nb        1 B32     -0.668000
     29 C6         19.1540    2.7070   11.5370 ca        1 B32      0.531200
     30 N6         19.7090    3.7220   12.4500 n4        1 B32     -0.817300
     31 CAP        -1.3860   -2.7180   -0.9490 c3        1 B32     -0.094100
     32 CAQ        -0.1710   -1.8270   -0.9230 c3        1 B32     -0.079400
     33 HAR        -0.2410   -1.4920    1.2150 hc        1 B32      0.041700
     34 HARA        0.7900   -2.8840    0.7040 hc        1 B32      0.041700
     35 HAS         2.4450   -1.2840   -0.3180 hc        1 B32      0.042200
     36 HASA        1.4140    0.1080    0.1930 hc        1 B32      0.042200
     37 HAT         2.6720   -1.9980    2.0870 hc        1 B32      0.043200
     38 HATA        1.6410   -0.6050    2.5980 hc        1 B32      0.043200
     39 HAU         4.3270   -0.3980    1.0640 hc        1 B32      0.046200
     40 HAUA        3.2950    0.9950    1.5750 hc        1 B32      0.046200
     41 HAV         3.5210    0.2810    3.9800 hc        1 B32      0.048700
     42 HAVA        4.5520   -1.1130    3.4690 hc        1 B32      0.048700
     43 HAW         6.2070    0.4860    2.4430 hc        1 B32      0.057200
     44 HAWA        5.1730    1.8820    2.9550 hc        1 B32      0.057200
     45 HAX         5.3910    1.1650    5.3580 hc        1 B32      0.067700
     46 HAXA        6.4280   -0.2340    4.8460 hc        1 B32      0.067700
     47 HAY         7.0430    2.7830    4.3110 hx        1 B32      0.109700
     48 HAYA        8.0900    1.3700    3.7950 hx        1 B32      0.109700
     49 HNAZ        8.3480    0.8170    6.1440 hn        1 B32      0.450300
     50 HBA         8.8920    3.6960    5.5580 hx        1 B32      0.120200
     51 HBAA        9.9470    2.2830    5.0590 hx        1 B32      0.120200
     52 HBB         9.2670    2.9850    8.0260 h1        1 B32      0.096200
     53 HBBA       10.4730    1.7650    7.4410 h1        1 B32      0.096200
     54 H5'        12.0620    3.6190    9.1800 h1        1 B32      0.105200
     55 H5'A       13.1260    4.5450    8.0420 h1        1 B32      0.105200
     56 H4'        13.0270    2.0910    6.7230 h1        1 B32      0.102700
     57 H3'        12.3770    1.5220    9.6550 h1        1 B32      0.073700
     58 HO3'       12.2570   -0.5870    8.4640 ho        1 B32      0.445000
     59 H2'        14.4180    0.4840   10.2310 h1        1 B32      0.121700
     60 HO2'       14.4650   -0.5550    7.6010 ho        1 B32      0.424000
     61 H1'        16.0650    1.2040    7.8350 h2        1 B32      0.127700
     62 H8         15.0610    4.1960    9.9800 h5        1 B32      0.104800
     63 H2         19.9200   -0.2350   10.2270 h5        1 B32      0.109100
     64 HN6        19.0340    3.8880   13.2080 hn        1 B32      0.482467
     65 HN6A       19.8480    4.5950   11.9240 hn        1 B32      0.482467
     66 HAP        -1.1080   -3.7730   -0.7120 hc        1 B32      0.037033
     67 HAPA       -2.1410   -2.3770   -0.2000 hc        1 B32      0.037033
     68 HAPB       -1.8590   -2.6970   -1.9610 hc        1 B32      0.037033
     69 HAQ        -0.4670   -0.7780   -1.1890 hc        1 B32      0.040200
     70 HAQA        0.5640   -2.1690   -1.6990 hc        1 B32      0.040200
     71 HAZ2        7.3990    2.0940    6.6100 hn        1 B32      0.450300
     72 H63        20.6080    3.4140   12.8490 hn        1 B32      0.482467
@<TRIPOS>BOND
     1    1    2 1   
     2    1   32 1   
     3    1   33 1   
     4    1   34 1   
     5    2    3 1   
     6    2   35 1   
     7    2   36 1   
     8    3    4 1   
     9    3   37 1   
    10    3   38 1   
    11    4    5 1   
    12    4   39 1   
    13    4   40 1   
    14    5    6 1   
    15    5   41 1   
    16    5   42 1   
    17    6    7 1   
    18    6   43 1   
    19    6   44 1   
    20    7    8 1   
    21    7   45 1   
    22    7   46 1   
    23    8    9 1   
    24    8   47 1   
    25    8   48 1   
    26    9   10 1   
    27    9   49 1   
    28    9   71 1   
    29   10   11 1   
    30   10   50 1   
    31   10   51 1   
    32   11   12 1   
    33   11   52 1   
    34   11   53 1   
    35   12   13 1   
    36   13   14 1   
    37   13   54 1   
    38   13   55 1   
    39   14   15 1   
    40   14   16 1   
    41   14   56 1   
    42   15   20 1   
    43   16   17 1   
    44   16   18 1   
    45   16   57 1   
    46   17   58 1   
    47   18   19 1   
    48   18   20 1   
    49   18   59 1   
    50   19   60 1   
    51   20   21 1   
    52   20   61 1   
    53   21   22 1   
    54   21   25 1   
    55   22   23 2   
    56   22   62 1   
    57   23   24 1   
    58   24   25 ar  
    59   24   29 ar  
    60   25   26 ar  
    61   26   27 ar  
    62   27   28 ar  
    63   27   63 1   
    64   28   29 ar  
    65   29   30 1   
    66   30   64 1   
    67   30   65 1   
    68   30   72 1   
    69   31   32 1   
    70   31   66 1   
    71   31   67 1   
    72   31   68 1   
    73   32   69 1   
    74   32   70 1   
@<TRIPOS>SUBSTRUCTURE
     1 B32         1 TEMP              0 ****  ****    0 ROOT
