@<TRIPOS>MOLECULE
B32
   70    72     1     0     0
SMALL
bcc


@<TRIPOS>ATOM
      1 CAR        13.0320    0.0790   -0.0780 c3        1 B32     -0.079400
      2 CAS        11.7290    0.6290    0.4630 c3        1 B32     -0.079400
      3 CAT        10.5380   -0.0040   -0.2230 c3        1 B32     -0.079400
      4 CAU         9.2360    0.5460    0.3180 c3        1 B32     -0.079400
      5 CAV         8.0450   -0.0880   -0.3680 c3        1 B32     -0.078400
      6 CAW         6.7430    0.4630    0.1730 c3        1 B32     -0.078400
      7 CAX         5.5540   -0.1730   -0.5140 c3        1 B32     -0.083400
      8 CAY         4.2550    0.4010    0.0470 c3        1 B32      0.162800
      9 NAZ         3.0700   -0.2060   -0.5280 n3        1 B32     -0.822200
     10 CBA         1.8490    0.4830   -0.1550 c3        1 B32      0.173800
     11 CBB         0.6170   -0.1000   -0.8320 c3        1 B32     -0.021300
     12 SD         -0.7520    0.8920   -0.3060 ss        1 B32     -0.278200
     13 C5'        -2.1340    0.0300   -0.9820 c3        1 B32     -0.041300
     14 C4'        -2.5630   -1.1950   -0.1960 c3        1 B32      0.099100
     15 O4'        -3.3500   -0.8110    0.9440 os        1 B32     -0.397600
     16 C3'        -3.4070   -2.1710   -1.0490 c3        1 B32      0.127100
     17 O3'        -2.8560   -3.4640   -1.0470 oh        1 B32     -0.574800
     18 C2'        -4.8350   -2.0970   -0.4660 c3        1 B32      0.083100
     19 O2'        -5.1920   -3.3750    0.0140 oh        1 B32     -0.592800
     20 C1'        -4.7320   -1.1120    0.7460 c3        1 B32      0.222800
     21 N9         -5.4950    0.1040    0.5730 na        1 B32     -0.294000
     22 C8         -5.0720    1.4430    0.7610 cc        1 B32      0.421700
     23 N7         -6.0620    2.3370    0.6310 nd        1 B32     -0.546100
     24 C5         -7.2100    1.5790    0.3570 ca        1 B32     -0.228200
     25 C4         -6.8750    0.1610    0.3250 ca        1 B32      0.450800
     26 N3         -7.7850   -0.8340    0.0930 nb        1 B32     -0.761000
     27 C2         -9.0360   -0.3540   -0.1020 ca        1 B32      0.690900
     28 N1         -9.4950    0.9240   -0.1030 nb        1 B32     -0.795000
     29 C6         -8.5830    1.9310    0.1230 ca        1 B32      0.765200
     30 N6         -8.9650    3.2450    0.1100 nh        1 B32     -0.957500
     31 CAP        15.5230    0.1670    0.0720 c3        1 B32     -0.092100
     32 CAQ        14.2240    0.7120    0.6080 c3        1 B32     -0.080400
     33 HAR        13.0610   -1.0330    0.0690 hc        1 B32      0.039700
     34 HARA       13.0900    0.2680   -1.1820 hc        1 B32      0.039700
     35 HAS        11.6710    0.4400    1.5680 hc        1 B32      0.039700
     36 HASA       11.7010    1.7410    0.3160 hc        1 B32      0.039700
     37 HAT        10.5960    0.1840   -1.3270 hc        1 B32      0.039700
     38 HATA       10.5670   -1.1160   -0.0760 hc        1 B32      0.039700
     39 HAU         9.1780    0.3570    1.4230 hc        1 B32      0.040200
     40 HAUA        9.2070    1.6580    0.1710 hc        1 B32      0.040200
     41 HAV         8.1030    0.1000   -1.4730 hc        1 B32      0.040700
     42 HAVA        8.0730   -1.2000   -0.2210 hc        1 B32      0.040700
     43 HAW         6.6850    0.2740    1.2780 hc        1 B32      0.041200
     44 HAWA        6.7150    1.5750    0.0250 hc        1 B32      0.041200
     45 HAX         5.6130    0.0140   -1.6190 hc        1 B32      0.046700
     46 HAXA        5.5790   -1.2840   -0.3620 hc        1 B32      0.046700
     47 HAY         4.2200    0.2110    1.1580 h1        1 B32      0.030700
     48 HAYA        4.2700    1.5230   -0.0970 h1        1 B32      0.030700
     49 HNAZ        3.1510   -0.2640   -1.5270 hn        1 B32      0.354800
     50 HBA         1.7360    0.3820    0.9630 h1        1 B32      0.044700
     51 HBAA        1.8950    1.5900   -0.3890 h1        1 B32      0.044700
     52 HBB         0.7110   -0.0650   -1.9440 h1        1 B32      0.067200
     53 HBBA        0.4710   -1.1670   -0.5350 h1        1 B32      0.067200
     54 H5'        -2.9640    0.7830   -0.9920 h1        1 B32      0.084700
     55 H5'A       -1.9110   -0.2670   -2.0360 h1        1 B32      0.084700
     56 H4'        -1.6690   -1.7220    0.2410 h1        1 B32      0.098700
     57 H3'        -3.4120   -1.8700   -2.1330 h1        1 B32      0.092700
     58 HO3'       -3.0620   -3.8810   -0.1990 ho        1 B32      0.426000
     59 H2'        -5.5610   -1.7460   -1.2460 h1        1 B32      0.085700
     60 HO2'       -6.1520   -3.3730    0.1270 ho        1 B32      0.435000
     61 H1'        -5.0710   -1.6190    1.7010 h2        1 B32      0.103700
     62 H8         -4.0230    1.6680    0.9970 h5        1 B32      0.090800
     63 H2         -9.8160   -1.1240   -0.2900 h5        1 B32      0.051100
     64 HN6        -8.2980    3.9380    0.3390 hn        1 B32      0.450300
     65 HN6A       -9.9170    3.4940    0.0000 hn        1 B32      0.450300
     66 HAP        15.5840   -0.9370    0.2320 hc        1 B32      0.032700
     67 HAPA       15.6130    0.3670   -1.0230 hc        1 B32      0.032700
     68 HAPB       16.3880    0.6460    0.5910 hc        1 B32      0.032700
     69 HAQ        14.1930    1.8240    0.4610 hc        1 B32      0.038700
     70 HAQA       14.1630    0.5230    1.7120 hc        1 B32      0.038700
@<TRIPOS>BOND
     1    1    2 1   
     2    1   32 1   
     3    1   33 1   
     4    1   34 1   
     5    2    3 1   
     6    2   35 1   
     7    2   36 1   
     8    3    4 1   
     9    3   37 1   
    10    3   38 1   
    11    4    5 1   
    12    4   39 1   
    13    4   40 1   
    14    5    6 1   
    15    5   41 1   
    16    5   42 1   
    17    6    7 1   
    18    6   43 1   
    19    6   44 1   
    20    7    8 1   
    21    7   45 1   
    22    7   46 1   
    23    8    9 1   
    24    8   47 1   
    25    8   48 1   
    26    9   10 1   
    27    9   49 1   
    28   10   11 1   
    29   10   50 1   
    30   10   51 1   
    31   11   12 1   
    32   11   52 1   
    33   11   53 1   
    34   12   13 1   
    35   13   14 1   
    36   13   54 1   
    37   13   55 1   
    38   14   15 1   
    39   14   16 1   
    40   14   56 1   
    41   15   20 1   
    42   16   17 1   
    43   16   18 1   
    44   16   57 1   
    45   17   58 1   
    46   18   19 1   
    47   18   20 1   
    48   18   59 1   
    49   19   60 1   
    50   20   21 1   
    51   20   61 1   
    52   21   22 1   
    53   21   25 1   
    54   22   23 2   
    55   22   62 1   
    56   23   24 1   
    57   24   25 ar  
    58   24   29 ar  
    59   25   26 ar  
    60   26   27 ar  
    61   27   28 ar  
    62   27   63 1   
    63   28   29 ar  
    64   29   30 1   
    65   30   64 1   
    66   30   65 1   
    67   31   32 1   
    68   31   66 1   
    69   31   67 1   
    70   31   68 1   
    71   32   69 1   
    72   32   70 1   
@<TRIPOS>SUBSTRUCTURE
     1 B32         1 TEMP              0 ****  ****    0 ROOT
