@<TRIPOS>MOLECULE
B33
   41    40     1     0     0
SMALL
bcc


@<TRIPOS>ATOM
      1 C10         3.0920    0.3080    0.1890 c3        1 B33      0.165800
      2 C12         5.4950    0.3990   -0.0520 c3        1 B33      0.163800
      3 C13         6.7820   -0.4020   -0.2450 c3        1 B33     -0.084400
      4 C1         -7.9770   -0.1350   -0.4700 c3        1 B33     -0.098100
      5 C2         -6.6770    0.6130   -0.2240 c3        1 B33      0.163800
      6 N3         -5.5540   -0.2610    0.0530 n3        1 B33     -0.824200
      7 C4         -4.2860    0.4380    0.0840 c3        1 B33      0.165800
      8 C5         -3.0880   -0.5040    0.1860 c3        1 B33     -0.088400
      9 C6         -1.8080    0.3260    0.2640 c3        1 B33      0.165800
     10 N7         -0.6160   -0.4850    0.4120 n3        1 B33     -0.823200
     11 C8          0.6080    0.2830    0.2980 c3        1 B33      0.165800
     12 C9          1.8590   -0.5920    0.2570 c3        1 B33     -0.088400
     13 N11         4.3360   -0.4360    0.1950 n3        1 B33     -0.824200
     14 C14         7.9520    0.5270   -0.4380 c3        1 B33     -0.093100
     15 H101        3.1040    0.9840    1.0910 h1        1 B33      0.028200
     16 H102        2.9990    0.9740   -0.7220 h1        1 B33      0.028200
     17 H121        5.6160    1.0750    0.8420 h1        1 B33      0.027700
     18 H122        5.3540    1.0670   -0.9550 h1        1 B33      0.027700
     19 H131        6.6840   -1.0750   -1.1370 hc        1 B33      0.045700
     20 H132        6.9610   -1.0560    0.6480 hc        1 B33      0.045700
     21 H11        -7.9060   -0.7770   -1.3800 hc        1 B33      0.039367
     22 H12        -8.2380   -0.7830    0.4010 hc        1 B33      0.039367
     23 H13        -8.7980    0.6060   -0.6220 hc        1 B33      0.039367
     24 H21        -6.8030    1.2830    0.6750 h1        1 B33      0.026700
     25 H22        -6.4810    1.2870   -1.1120 h1        1 B33      0.026700
     26 HN3        -5.5260   -1.0200   -0.6020 hn        1 B33      0.355800
     27 H41        -4.2990    1.1140    0.9860 h1        1 B33      0.028200
     28 H42        -4.1430    1.1010   -0.8230 h1        1 B33      0.028200
     29 H51        -3.0540   -1.1820   -0.7070 hc        1 B33      0.053700
     30 H52        -3.1830   -1.1490    1.0980 hc        1 B33      0.053700
     31 H61        -1.8640    1.0040    1.1630 h1        1 B33      0.029200
     32 H62        -1.7580    0.9920   -0.6500 h1        1 B33      0.029200
     33 HN7        -0.6200   -1.2460   -0.2410 hn        1 B33      0.355800
     34 H81         0.6620    0.9600    1.1990 h1        1 B33      0.029200
     35 H82         0.6080    0.9500   -0.6170 h1        1 B33      0.029200
     36 H91         1.8270   -1.2690   -0.6360 hc        1 B33      0.053700
     37 H92         1.9060   -1.2380    1.1720 hc        1 B33      0.053700
     38 HN11        4.2990   -1.1950   -0.4590 hn        1 B33      0.354800
     39 H141        8.0820    1.1890    0.4520 hc        1 B33      0.034367
     40 H142        8.8910   -0.0600   -0.5810 hc        1 B33      0.034367
     41 H143        7.8020    1.1750   -1.3360 hc        1 B33      0.034367
@<TRIPOS>BOND
     1    1   12 1   
     2    1   13 1   
     3    1   15 1   
     4    1   16 1   
     5    2    3 1   
     6    2   13 1   
     7    2   17 1   
     8    2   18 1   
     9    3   14 1   
    10    3   19 1   
    11    3   20 1   
    12    4    5 1   
    13    4   21 1   
    14    4   22 1   
    15    4   23 1   
    16    5    6 1   
    17    5   24 1   
    18    5   25 1   
    19    6    7 1   
    20    6   26 1   
    21    7    8 1   
    22    7   27 1   
    23    7   28 1   
    24    8    9 1   
    25    8   29 1   
    26    8   30 1   
    27    9   10 1   
    28    9   31 1   
    29    9   32 1   
    30   10   11 1   
    31   10   33 1   
    32   11   12 1   
    33   11   34 1   
    34   11   35 1   
    35   12   36 1   
    36   12   37 1   
    37   13   38 1   
    38   14   39 1   
    39   14   40 1   
    40   14   41 1   
@<TRIPOS>SUBSTRUCTURE
     1 B33         1 TEMP              0 ****  ****    0 ROOT
