@<TRIPOS>MOLECULE
B33
   41    40     1     0     0
SMALL
bcc


@<TRIPOS>ATOM
      1 C10        -2.5840   -0.0060    1.7040 c3        1 B33      0.165800
      2 C12        -4.3490   -1.1350    2.7950 c3        1 B33      0.163800
      3 C13        -4.7480   -1.8960    4.0670 c3        1 B33     -0.084400
      4 C1          6.3390    0.5320   -4.5870 c3        1 B33     -0.098100
      5 C2          5.0070    1.2120   -4.2140 c3        1 B33      0.163800
      6 N3          4.3640    0.4680   -3.1300 n3        1 B33     -0.825200
      7 C4          3.1420    1.1670   -2.7150 c3        1 B33      0.165800
      8 C5          2.6970    0.6460   -1.3150 c3        1 B33     -0.089400
      9 C6          1.2440    1.0960   -1.0340 c3        1 B33      0.165800
     10 N7          0.8220    0.5840    0.2450 n3        1 B33     -0.824200
     11 C8         -0.6060    0.6820    0.3540 c3        1 B33      0.165800
     12 C9         -1.0570    0.0790    1.6790 c3        1 B33     -0.088400
     13 N11        -3.0150   -0.6050    2.9500 n3        1 B33     -0.824200
     14 C14        -6.1060   -2.5660    3.8550 c3        1 B33     -0.093100
     15 H101       -2.8930   -0.5550    0.9540 h1        1 B33      0.028700
     16 H102       -2.9620    0.8940    1.6270 h1        1 B33      0.028700
     17 H121       -4.3710   -1.7480    2.0250 h1        1 B33      0.028200
     18 H122       -4.9810   -0.3940    2.6430 h1        1 B33      0.028200
     19 H131       -4.8070   -1.2710    4.8140 hc        1 B33      0.045700
     20 H132       -4.0740   -2.5790    4.2640 hc        1 B33      0.045700
     21 H11         6.1570   -0.3410   -4.9890 hc        1 B33      0.039367
     22 H12         6.8780    0.4150   -3.7860 hc        1 B33      0.039367
     23 H13         6.8250    1.0940   -5.2310 hc        1 B33      0.039367
     24 H21         5.1810    2.1270   -3.9230 h1        1 B33      0.026700
     25 H22         4.4180    1.2250   -4.9950 h1        1 B33      0.026700
     26 HN3         4.1500   -0.3780   -3.4230 hn        1 B33      0.356800
     27 H41         2.4320    0.9980   -3.3670 h1        1 B33      0.028200
     28 H42         3.3170    2.1280   -2.6650 h1        1 B33      0.028200
     29 H51         2.7440   -0.3350   -1.3010 hc        1 B33      0.053200
     30 H52         3.2940    1.0140   -0.6230 hc        1 B33      0.053200
     31 H61         0.6550    0.7530   -1.7320 h1        1 B33      0.029200
     32 H62         1.2010    2.0800   -1.0230 h1        1 B33      0.029200
     33 HN7         1.2150    1.0720    0.9150 hn        1 B33      0.356800
     34 H81        -1.0240    0.1950   -0.3840 h1        1 B33      0.029200
     35 H82        -0.8740    1.6270    0.3160 h1        1 B33      0.029200
     36 H91        -0.6790   -0.8140    1.7760 hc        1 B33      0.053200
     37 H92        -0.7500    0.6430    2.4140 hc        1 B33      0.053200
     38 HN11       -3.0130    0.0290    3.6100 hn        1 B33      0.354800
     39 H141       -6.7620   -1.8950    3.5800 hc        1 B33      0.034367
     40 H142       -6.0270   -3.2520    3.1560 hc        1 B33      0.034367
     41 H143       -6.4000   -2.9870    4.6970 hc        1 B33      0.034367
@<TRIPOS>BOND
     1    1   12 1   
     2    1   13 1   
     3    1   15 1   
     4    1   16 1   
     5    2    3 1   
     6    2   13 1   
     7    2   17 1   
     8    2   18 1   
     9    3   14 1   
    10    3   19 1   
    11    3   20 1   
    12    4    5 1   
    13    4   21 1   
    14    4   22 1   
    15    4   23 1   
    16    5    6 1   
    17    5   24 1   
    18    5   25 1   
    19    6    7 1   
    20    6   26 1   
    21    7    8 1   
    22    7   27 1   
    23    7   28 1   
    24    8    9 1   
    25    8   29 1   
    26    8   30 1   
    27    9   10 1   
    28    9   31 1   
    29    9   32 1   
    30   10   11 1   
    31   10   33 1   
    32   11   12 1   
    33   11   34 1   
    34   11   35 1   
    35   12   36 1   
    36   12   37 1   
    37   13   38 1   
    38   14   39 1   
    39   14   40 1   
    40   14   41 1   
@<TRIPOS>SUBSTRUCTURE
     1 B33         1 TEMP              0 ****  ****    0 ROOT
