@<TRIPOS>MOLECULE
B33
   44    43     1     0     0
SMALL
bcc


@<TRIPOS>ATOM
      1 C10         0.0340   -0.0000    0.1140 c3        1 B33      0.105800
      2 C12        -2.1070    0.0000    1.3680 c3        1 B33      0.105800
      3 C13        -2.7620   -0.0000    2.7450 c3        1 B33     -0.107400
      4 C1          9.2800   -0.0020   -6.3070 c3        1 B33     -0.150100
      5 C2          7.7870   -0.0030   -6.0680 c3        1 B33      0.118800
      6 N3          7.4560   -0.0010   -4.5930 ny        1 B33     -0.770000
      7 C4          5.9860   -0.0020   -4.3590 c3        1 B33      0.105800
      8 C5          5.6030   -0.0010   -2.8760 c3        1 B33     -0.138400
      9 C6          4.0770   -0.0020   -2.7670 c3        1 B33      0.109800
     10 N7          3.5910   -0.0010   -1.3480 ny        1 B33     -0.764000
     11 C8          2.0930   -0.0010   -1.2770 c3        1 B33      0.109800
     12 C9          1.5650   -0.0000    0.1590 c3        1 B33     -0.138400
     13 N11        -0.6010   -0.0000    1.4610 ny        1 B33     -0.767000
     14 C14        -4.2630    0.0010    2.5710 c3        1 B33     -0.107100
     15 H101       -0.3350   -0.9160   -0.4370 hx        1 B33      0.122700
     16 H102       -0.3340    0.9160   -0.4370 hx        1 B33      0.122700
     17 H121       -2.4170   -0.9180    0.7920 hx        1 B33      0.114700
     18 H122       -2.4160    0.9200    0.7930 hx        1 B33      0.114700
     19 H131       -2.4540    0.9080    3.3290 hc        1 B33      0.075700
     20 H132       -2.4540   -0.9100    3.3280 hc        1 B33      0.075700
     21 H11         9.7760   -0.9130   -5.8900 hc        1 B33      0.099700
     22 H12         9.7740    0.9110   -5.8930 hc        1 B33      0.099700
     23 H13         9.4450   -0.0040   -7.4200 hc        1 B33      0.099700
     24 H21         7.3150    0.9150   -6.5230 hx        1 B33      0.114700
     25 H22         7.3160   -0.9240   -6.5200 hx        1 B33      0.114700
     26 HN3         7.8840   -0.8310   -4.1610 hn        1 B33      0.460800
     27 H41         5.5580    0.9130   -4.8670 hx        1 B33      0.122700
     28 H42         5.5600   -0.9190   -4.8650 hx        1 B33      0.122700
     29 H51         6.0290    0.9090   -2.3700 hc        1 B33      0.094700
     30 H52         6.0300   -0.9090   -2.3680 hc        1 B33      0.094700
     31 H61         3.6540    0.9150   -3.2750 hx        1 B33      0.126700
     32 H62         3.6550   -0.9200   -3.2730 hx        1 B33      0.126700
     33 HN7         3.9560    0.8320   -0.8640 hn        1 B33      0.465800
     34 H81         1.7240    0.9170   -1.8240 hx        1 B33      0.126700
     35 H82         1.7240   -0.9190   -1.8230 hx        1 B33      0.126700
     36 H91         1.9330    0.9090    0.7090 hc        1 B33      0.094700
     37 H92         1.9330   -0.9100    0.7100 hc        1 B33      0.094700
     38 HN11       -0.3060   -0.8310    1.9900 hn        1 B33      0.460800
     39 H141       -4.7490    0.0000    3.5810 hc        1 B33      0.075033
     40 H142       -4.6060   -0.9080    2.0190 hc        1 B33      0.075033
     41 H143       -4.6050    0.9100    2.0210 hc        1 B33      0.075033
     42 H32         7.8820    0.8310   -4.1640 hn        1 B33      0.460800
     43 H72         3.9560   -0.8320   -0.8620 hn        1 B33      0.465800
     44 H112       -0.3060    0.8300    1.9910 hn        1 B33      0.460800
@<TRIPOS>BOND
     1    1   12 1   
     2    1   13 1   
     3    1   15 1   
     4    1   16 1   
     5    2    3 1   
     6    2   13 1   
     7    2   17 1   
     8    2   18 1   
     9    3   14 1   
    10    3   19 1   
    11    3   20 1   
    12    4    5 1   
    13    4   21 1   
    14    4   22 1   
    15    4   23 1   
    16    5    6 1   
    17    5   24 1   
    18    5   25 1   
    19    6    7 1   
    20    6   26 1   
    21    6   42 1   
    22    7    8 1   
    23    7   27 1   
    24    7   28 1   
    25    8    9 1   
    26    8   29 1   
    27    8   30 1   
    28    9   10 1   
    29    9   31 1   
    30    9   32 1   
    31   10   11 1   
    32   10   33 1   
    33   10   43 1   
    34   11   12 1   
    35   11   34 1   
    36   11   35 1   
    37   12   36 1   
    38   12   37 1   
    39   13   38 1   
    40   13   44 1   
    41   14   39 1   
    42   14   40 1   
    43   14   41 1   
@<TRIPOS>SUBSTRUCTURE
     1 B33         1 TEMP              0 ****  ****    0 ROOT
