@<TRIPOS>MOLECULE
B34
   48    51     1     0     0
SMALL
bcc


@<TRIPOS>ATOM
      1 O26        -0.6040    0.6100    1.9100 o         1 B34     -0.630300
      2 S28         0.4600    0.5190    0.9950 sy        1 B34      1.475700
      3 O25         0.1990   -0.2350   -0.1600 o         1 B34     -0.630300
      4 C12         1.8810   -0.0540    1.7910 ca        1 B34     -0.326500
      5 C9          2.1210   -1.2610    2.4110 ca        1 B34      0.006000
      6 C5          3.3580   -1.4840    3.0440 ca        1 B34     -0.126000
      7 N22         1.1350    2.0040    0.6650 ne        1 B34     -0.805300
      8 C13         2.3750    2.1580    1.0490 cf        1 B34      0.737200
      9 C10         2.8930    0.9530    1.7800 ca        1 B34     -0.164900
     10 C6          4.0960    0.7470    2.4230 ca        1 B34     -0.061000
     11 C2          4.3240   -0.4910    3.0540 ca        1 B34     -0.096000
     12 C14         3.0920    3.3810    0.8040 cf        1 B34     -0.418800
     13 C16         4.5690    3.5800    0.7080 c         1 B34      0.729700
     14 O24         5.4810    2.7580    0.8700 o         1 B34     -0.617500
     15 N23         4.8080    4.9230    0.3150 n         1 B34     -0.459800
     16 C17         3.5510    5.6830    0.2870 c3        1 B34      0.107900
     17 C21         3.3280    6.4700   -1.0180 c3        1 B34     -0.052700
     18 C19         2.9830    5.5670   -2.1800 c3        1 B34     -0.100100
     19 C18         2.2510    7.5140   -0.8070 c3        1 B34     -0.100100
     20 C15         2.4920    4.5990    0.5290 c2        1 B34      0.242900
     21 O27         1.2090    4.9640    0.4860 oh        1 B34     -0.448100
     22 C20         6.0430    5.5930    0.6190 c3        1 B34      0.136300
     23 C11         6.1830    6.1070    2.0250 ca        1 B34     -0.135300
     24 C7          6.0820    7.4750    2.2940 ca        1 B34     -0.117000
     25 C3          6.2470    7.9450    3.5970 ca        1 B34     -0.131000
     26 C8          6.4470    5.2130    3.0670 ca        1 B34     -0.117000
     27 C4          6.6100    5.6840    4.3690 ca        1 B34     -0.131000
     28 C1          6.5110    7.0510    4.6350 ca        1 B34     -0.120000
     29 H9          1.3530   -2.0510    2.4210 ha        1 B34      0.149000
     30 H5          3.5480   -2.4510    3.5330 ha        1 B34      0.144000
     31 H6          4.8820    1.5180    2.4520 ha        1 B34      0.174000
     32 H2          5.2900   -0.6620    3.5560 ha        1 B34      0.143000
     33 H17         3.5190    6.4130    1.1520 h1        1 B34      0.089700
     34 H21         4.2930    7.0050   -1.2580 hc        1 B34      0.061700
     35 H19         2.0200    5.0320   -1.9890 hc        1 B34      0.046033
     36 H19A        2.8690    6.1730   -3.1120 hc        1 B34      0.046033
     37 H19B        3.7870    4.8100   -2.3460 hc        1 B34      0.046033
     38 H18         2.5450    8.2290   -0.0010 hc        1 B34      0.046033
     39 H18A        1.2840    7.0330   -0.5210 hc        1 B34      0.046033
     40 H18B        2.0940    8.0890   -1.7510 hc        1 B34      0.046033
     41 H20         6.1490    6.4510   -0.1060 h1        1 B34      0.075700
     42 H20A        6.8740    4.8510    0.4210 h1        1 B34      0.075700
     43 H7          5.8780    8.1840    1.4780 ha        1 B34      0.138500
     44 H3          6.1710    9.0220    3.8050 ha        1 B34      0.135500
     45 H8          6.5260    4.1350    2.8490 ha        1 B34      0.138500
     46 H4          6.8200    4.9780    5.1860 ha        1 B34      0.135500
     47 H1          6.6420    7.4220    5.6620 ha        1 B34      0.135000
     48 H201        0.6290    4.1810    0.5890 ho        1 B34      0.484000
@<TRIPOS>BOND
     1    1    2 2   
     2    2    3 2   
     3    2    4 1   
     4    2    7 1   
     5    4    5 ar  
     6    4    9 ar  
     7    5    6 ar  
     8    5   29 1   
     9    6   11 ar  
    10    6   30 1   
    11    7    8 2   
    12    8    9 1   
    13    8   12 1   
    14    9   10 ar  
    15   10   11 ar  
    16   10   31 1   
    17   11   32 1   
    18   12   13 1   
    19   12   20 2   
    20   13   14 2   
    21   13   15 1   
    22   15   16 1   
    23   15   22 1   
    24   16   17 1   
    25   16   20 1   
    26   16   33 1   
    27   17   18 1   
    28   17   19 1   
    29   17   34 1   
    30   18   35 1   
    31   18   36 1   
    32   18   37 1   
    33   19   38 1   
    34   19   39 1   
    35   19   40 1   
    36   20   21 1   
    37   21   48 1   
    38   22   23 1   
    39   22   41 1   
    40   22   42 1   
    41   23   24 ar  
    42   23   26 ar  
    43   24   25 ar  
    44   24   43 1   
    45   25   28 ar  
    46   25   44 1   
    47   26   27 ar  
    48   26   45 1   
    49   27   28 ar  
    50   27   46 1   
    51   28   47 1   
@<TRIPOS>SUBSTRUCTURE
     1 B34         1 TEMP              0 ****  ****    0 ROOT
