@<TRIPOS>MOLECULE
B34
   48    51     1     0     0
SMALL
bcc


@<TRIPOS>ATOM
      1 O26        -0.6340    0.6460    1.8920 o         1 B34     -0.630300
      2 S28         0.4360    0.5440    0.9850 sy        1 B34      1.475700
      3 O25         0.1760   -0.2120   -0.1690 o         1 B34     -0.630300
      4 C12         1.8470   -0.0360    1.7920 ca        1 B34     -0.326500
      5 C9          2.0740   -1.2420    2.4180 ca        1 B34      0.006000
      6 C5          3.3060   -1.4720    3.0590 ca        1 B34     -0.126000
      7 N22         1.1230    2.0230    0.6530 ne        1 B34     -0.805300
      8 C13         2.3610    2.1700    1.0440 cf        1 B34      0.737200
      9 C10         2.8670    0.9640    1.7840 ca        1 B34     -0.164900
     10 C6          4.0640    0.7520    2.4350 ca        1 B34     -0.061000
     11 C2          4.2790   -0.4860    3.0720 ca        1 B34     -0.096000
     12 C14         3.0890    3.3870    0.8000 cf        1 B34     -0.418800
     13 C16         4.5680    3.5740    0.7120 c         1 B34      0.729700
     14 O24         5.4720    2.7470    0.8820 o         1 B34     -0.617500
     15 N23         4.8190    4.9140    0.3160 n         1 B34     -0.459800
     16 C17         3.5680    5.6830    0.2790 c3        1 B34      0.107900
     17 C21         3.3590    6.4680   -1.0310 c3        1 B34     -0.052700
     18 C19         3.0140    5.5630   -2.1920 c3        1 B34     -0.100100
     19 C18         2.2880    7.5210   -0.8300 c3        1 B34     -0.100100
     20 C15         2.4990    4.6080    0.5170 c2        1 B34      0.242900
     21 O27         1.2200    4.9820    0.4650 oh        1 B34     -0.448100
     22 C20         6.0570    5.5770    0.6250 c3        1 B34      0.136300
     23 C11         6.1920    6.0950    2.0300 ca        1 B34     -0.135300
     24 C7          6.1010    7.4640    2.2950 ca        1 B34     -0.117000
     25 C3          6.2620    7.9360    3.5970 ca        1 B34     -0.131000
     26 C8          6.4420    5.2010    3.0780 ca        1 B34     -0.117000
     27 C4          6.6010    5.6760    4.3780 ca        1 B34     -0.131000
     28 C1          6.5120    7.0440    4.6390 ca        1 B34     -0.120000
     29 H9          1.3000   -2.0270    2.4260 ha        1 B34      0.149000
     30 H5          3.4860   -2.4380    3.5540 ha        1 B34      0.144000
     31 H6          4.8560    1.5170    2.4650 ha        1 B34      0.174000
     32 H2          5.2400   -0.6620    3.5810 ha        1 B34      0.143000
     33 H17         3.5360    6.4170    1.1410 h1        1 B34      0.089700
     34 H21         4.3290    6.9950   -1.2660 hc        1 B34      0.061700
     35 H19         2.9110    6.1670   -3.1260 hc        1 B34      0.046033
     36 H19A        2.0470    5.0360   -2.0050 hc        1 B34      0.046033
     37 H19B        3.8140    4.8000   -2.3510 hc        1 B34      0.046033
     38 H18         1.3150    7.0480   -0.5480 hc        1 B34      0.046033
     39 H18A        2.5830    8.2360   -0.0250 hc        1 B34      0.046033
     40 H18B        2.1410    8.0940   -1.7770 hc        1 B34      0.046033
     41 H20         6.1740    6.4310   -0.1020 h1        1 B34      0.075700
     42 H20A        6.8840    4.8290    0.4340 h1        1 B34      0.075700
     43 H7          5.9090    8.1720    1.4750 ha        1 B34      0.138500
     44 H3          6.1940    9.0150    3.8010 ha        1 B34      0.135500
     45 H8          6.5140    4.1220    2.8630 ha        1 B34      0.138500
     46 H4          6.8000    4.9710    5.1990 ha        1 B34      0.135500
     47 H1          6.6390    7.4180    5.6660 ha        1 B34      0.135000
     48 H201        0.6340    4.2040    0.5660 ho        1 B34      0.484000
@<TRIPOS>BOND
     1    1    2 2   
     2    2    3 2   
     3    2    4 1   
     4    2    7 1   
     5    4    5 ar  
     6    4    9 ar  
     7    5    6 ar  
     8    5   29 1   
     9    6   11 ar  
    10    6   30 1   
    11    7    8 2   
    12    8    9 1   
    13    8   12 1   
    14    9   10 ar  
    15   10   11 ar  
    16   10   31 1   
    17   11   32 1   
    18   12   13 1   
    19   12   20 2   
    20   13   14 2   
    21   13   15 1   
    22   15   16 1   
    23   15   22 1   
    24   16   17 1   
    25   16   20 1   
    26   16   33 1   
    27   17   18 1   
    28   17   19 1   
    29   17   34 1   
    30   18   35 1   
    31   18   36 1   
    32   18   37 1   
    33   19   38 1   
    34   19   39 1   
    35   19   40 1   
    36   20   21 1   
    37   21   48 1   
    38   22   23 1   
    39   22   41 1   
    40   22   42 1   
    41   23   24 ar  
    42   23   26 ar  
    43   24   25 ar  
    44   24   43 1   
    45   25   28 ar  
    46   25   44 1   
    47   26   27 ar  
    48   26   45 1   
    49   27   28 ar  
    50   27   46 1   
    51   28   47 1   
@<TRIPOS>SUBSTRUCTURE
     1 B34         1 TEMP              0 ****  ****    0 ROOT
