@<TRIPOS>MOLECULE
B34
   48    44     1     0     0
SMALL
bcc


@<TRIPOS>ATOM
      1 O26        -1.0420   -4.7550    0.5500 o         1 B34     -0.909500
      2 S28        -1.1190   -3.4220    1.0940 ss        1 B34      2.750000
      3 O25        -2.5150   -3.0800    1.0830 o         1 B34     -0.909500
      4 C12        -0.3520   -3.2710    2.7450 c1        1 B34     -0.426000
      5 C9         -0.6510   -3.7580    3.9930 c1        1 B34     -0.027500
      6 C5          0.0710   -3.3070    5.1180 c1        1 B34     -0.111000
      7 N22        -0.2570   -2.4270    0.3570 n1        1 B34     -0.789000
      8 C13         0.6630   -1.8470    1.0720 c1        1 B34      0.279000
      9 C10         0.7260   -2.2760    2.5810 c1        1 B34     -0.426000
     10 C6          1.4280   -1.8390    3.6810 c1        1 B34     -0.027500
     11 C2          1.1180   -2.3410    4.9610 c1        1 B34     -0.111000
     12 C14         1.2430   -0.4610    0.6260 c2        1 B34     -0.307000
     13 C16         0.0950    0.7190    0.4500 c2        1 B34      0.381000
     14 O24         0.4260    1.8760    0.2900 o         1 B34     -0.354000
     15 N23        -0.4870    0.2660   -0.4920 n         1 B34     -0.355000
     16 C17         0.7900   -0.4130   -1.3840 c3        1 B34      0.051000
     17 C21         1.2380    0.4190   -2.4310 c3        1 B34     -0.109000
     18 C19         2.7540    0.5480   -2.3640 c3        1 B34     -0.216500
     19 C18         0.8340   -0.1960   -3.7870 c3        1 B34     -0.216500
     20 C15         1.7200   -0.6040   -0.3170 c2        1 B34      0.198000
     21 O27         2.7560   -1.5400   -0.4460 oh        1 B34     -0.204000
     22 C20        -1.7410    0.7550   -1.0340 c3        1 B34      0.039000
     23 C11        -1.7510    2.2910   -0.9990 c2        1 B34     -0.113000
     24 C7         -2.2360    3.0090   -2.0960 c2        1 B34     -0.124000
     25 C3         -2.3830    4.3840   -2.0140 c1        1 B34     -0.132000
     26 C8         -1.4180    2.9540    0.1670 c1        1 B34     -0.112000
     27 C4         -1.5670    4.3420    0.2480 c2        1 B34     -0.131000
     28 C1         -2.0480    5.0520   -0.8400 c1        1 B34     -0.122000
     29 H9         -1.3720   -4.4230    4.1030 ha        1 B34      0.162000
     30 H5         -0.1450   -3.6590    6.0170 ha        1 B34      0.143000
     31 H6          2.1460   -1.1760    3.5740 ha        1 B34      0.162000
     32 H2          1.6210   -2.0280    5.7480 ha        1 B34      0.143000
     33 H17         0.5730   -1.2380   -1.8500 h1        1 B34      0.129000
     34 H21         0.8310    1.3050   -2.3400 hc        1 B34      0.111000
     35 H19         3.1580   -0.3440   -2.3800 hc        1 B34      0.084667
     36 H19A        3.0080    1.0080   -1.5330 hc        1 B34      0.084667
     37 H19B        3.0710    1.0630   -3.1310 hc        1 B34      0.084667
     38 H18         1.2750   -1.0690   -3.8950 hc        1 B34      0.084667
     39 H18A       -0.1450   -0.3160   -3.8150 hc        1 B34      0.084667
     40 H18B        1.1110    0.4050   -4.5160 hc        1 B34      0.084667
     41 H20        -1.8380    0.4470   -1.9630 h1        1 B34      0.107000
     42 H20A       -2.4820    0.4130   -0.4990 h1        1 B34      0.107000
     43 H7         -2.4710    2.5410   -2.9200 ha        1 B34      0.128000
     44 H3         -2.7230    4.8850   -2.7810 ha        1 B34      0.133000
     45 H8         -1.0810    2.4560    0.9300 DU        1 B34      0.153000
     46 H4         -1.3330    4.8090    1.0690 ha        1 B34      0.135000
     47 H1         -2.1520    6.0200   -0.7830 ha        1 B34      0.133000
     48 H201        2.6520   -2.1780    0.1540 ho        1 B34      0.284000
@<TRIPOS>BOND
     1    1    2 1   
     2    2    3 1   
     3    4    5 1   
     4    4    9 1   
     5    5   29 1   
     6    6   11 1   
     7    6   30 1   
     8    7    8 1   
     9    8   12 1   
    10    9   10 1   
    11   10   31 1   
    12   11   32 1   
    13   12   13 1   
    14   12   20 1   
    15   13   14 1   
    16   13   15 1   
    17   15   16 1   
    18   15   22 1   
    19   16   17 1   
    20   16   20 1   
    21   16   33 1   
    22   17   18 1   
    23   17   19 1   
    24   17   34 1   
    25   18   35 1   
    26   18   36 1   
    27   18   37 1   
    28   19   38 1   
    29   19   39 1   
    30   19   40 1   
    31   20   21 1   
    32   21   48 1   
    33   22   23 1   
    34   22   41 1   
    35   22   42 1   
    36   23   24 1   
    37   23   26 1   
    38   24   25 1   
    39   24   43 1   
    40   25   44 1   
    41   26   27 1   
    42   27   28 1   
    43   27   46 1   
    44   28   47 1   
@<TRIPOS>SUBSTRUCTURE
     1 B34         1 TEMP              0 ****  ****    0 ROOT
