@<TRIPOS>MOLECULE
B34
   48    51     1     0     0
SMALL
bcc


@<TRIPOS>ATOM
      1 O26         4.3860   -0.1330    2.3690 o         1 B34     -0.630300
      2 S28         3.9990   -0.2980    1.0270 sy        1 B34      1.475700
      3 O25         4.9290   -0.9620    0.2110 o         1 B34     -0.630300
      4 C12         3.5620    1.2240    0.3420 ca        1 B34     -0.326500
      5 C9          4.3260    2.3520    0.1340 ca        1 B34      0.006000
      6 C5          3.7280    3.5080   -0.4030 ca        1 B34     -0.126000
      7 N22         2.4580   -0.9070    0.8860 ne        1 B34     -0.805300
      8 C13         1.5850   -0.1100    0.3270 cf        1 B34      0.737200
      9 C10         2.1760    1.2310   -0.0030 ca        1 B34     -0.164900
     10 C6          1.5820    2.3710   -0.5030 ca        1 B34     -0.061000
     11 C2          2.3770    3.5160   -0.7080 ca        1 B34     -0.096000
     12 C14         0.2210   -0.5160    0.1160 cf        1 B34     -0.418800
     13 C16        -0.7490    0.0040   -0.8930 c         1 B34      0.729700
     14 O24        -0.6080    0.9190   -1.7150 o         1 B34     -0.617500
     15 N23        -1.9240   -0.7900   -0.8240 n         1 B34     -0.459800
     16 C17        -1.8420   -1.7340    0.3000 c3        1 B34      0.107900
     17 C21        -2.1740   -3.1880   -0.0850 c3        1 B34     -0.052700
     18 C19        -1.0750   -3.8300   -0.9010 c3        1 B34     -0.100100
     19 C18        -2.4590   -3.9950    1.1650 c3        1 B34     -0.100100
     20 C15        -0.4010   -1.5510    0.7940 c2        1 B34      0.242900
     21 O27         0.0200   -2.3410    1.7830 oh        1 B34     -0.448100
     22 C20        -3.2040   -0.2880   -1.2450 c3        1 B34      0.136300
     23 C11        -3.9060    0.6200   -0.2730 ca        1 B34     -0.135300
     24 C7         -5.0090    0.1650    0.4550 ca        1 B34     -0.117000
     25 C3         -5.6740    1.0260    1.3280 ca        1 B34     -0.131000
     26 C8         -3.4720    1.9410   -0.1210 ca        1 B34     -0.117000
     27 C4         -4.1370    2.7990    0.7530 ca        1 B34     -0.131000
     28 C1         -5.2380    2.3420    1.4780 ca        1 B34     -0.120000
     29 H9          5.3990    2.3600    0.3870 ha        1 B34      0.149000
     30 H5          4.3430    4.4050   -0.5730 ha        1 B34      0.144000
     31 H6          0.5090    2.4090   -0.7520 ha        1 B34      0.174000
     32 H2          1.9060    4.4220   -1.1190 ha        1 B34      0.143000
     33 H17        -2.5470   -1.4160    1.1270 h1        1 B34      0.089700
     34 H21        -3.1130   -3.1660   -0.7100 hc        1 B34      0.061700
     35 H19        -0.1290   -3.8880   -0.3080 hc        1 B34      0.046033
     36 H19A       -1.3720   -4.8670   -1.1910 hc        1 B34      0.046033
     37 H19B       -0.8790   -3.2450   -1.8320 hc        1 B34      0.046033
     38 H18        -1.5680   -4.0070    1.8410 hc        1 B34      0.046033
     39 H18A       -3.3240   -3.5640    1.7250 hc        1 B34      0.046033
     40 H18B       -2.7050   -5.0480    0.8860 hc        1 B34      0.046033
     41 H20        -3.0310    0.2780   -2.2090 h1        1 B34      0.075700
     42 H20A       -3.8600   -1.1790   -1.4660 h1        1 B34      0.075700
     43 H7         -5.3580   -0.8720    0.3360 ha        1 B34      0.138500
     44 H3         -6.5430    0.6660    1.8970 ha        1 B34      0.135500
     45 H8         -2.6020    2.2940   -0.6990 ha        1 B34      0.138500
     46 H4         -3.7930    3.8380    0.8690 ha        1 B34      0.135500
     47 H1         -5.7640    3.0210    2.1660 ha        1 B34      0.135000
     48 H201        0.9690   -2.1790    1.9670 ho        1 B34      0.484000
@<TRIPOS>BOND
     1    1    2 2   
     2    2    3 2   
     3    2    4 1   
     4    2    7 1   
     5    4    5 ar  
     6    4    9 ar  
     7    5    6 ar  
     8    5   29 1   
     9    6   11 ar  
    10    6   30 1   
    11    7    8 2   
    12    8    9 1   
    13    8   12 1   
    14    9   10 ar  
    15   10   11 ar  
    16   10   31 1   
    17   11   32 1   
    18   12   13 1   
    19   12   20 2   
    20   13   14 2   
    21   13   15 1   
    22   15   16 1   
    23   15   22 1   
    24   16   17 1   
    25   16   20 1   
    26   16   33 1   
    27   17   18 1   
    28   17   19 1   
    29   17   34 1   
    30   18   35 1   
    31   18   36 1   
    32   18   37 1   
    33   19   38 1   
    34   19   39 1   
    35   19   40 1   
    36   20   21 1   
    37   21   48 1   
    38   22   23 1   
    39   22   41 1   
    40   22   42 1   
    41   23   24 ar  
    42   23   26 ar  
    43   24   25 ar  
    44   24   43 1   
    45   25   28 ar  
    46   25   44 1   
    47   26   27 ar  
    48   26   45 1   
    49   27   28 ar  
    50   27   46 1   
    51   28   47 1   
@<TRIPOS>SUBSTRUCTURE
     1 B34         1 TEMP              0 ****  ****    0 ROOT
