@<TRIPOS>MOLECULE
B34
   48    51     1     0     0
SMALL
bcc


@<TRIPOS>ATOM
      1 O26        -0.6020    0.6010    1.8840 o         1 B34     -0.630300
      2 S28         0.4630    0.5180    0.9690 sy        1 B34      1.475700
      3 O25         0.2030   -0.2280   -0.1920 o         1 B34     -0.630300
      4 C12         1.8840   -0.0590    1.7610 ca        1 B34     -0.326500
      5 C9          2.1250   -1.2700    2.3730 ca        1 B34      0.006000
      6 C5          3.3630   -1.4970    3.0030 ca        1 B34     -0.126000
      7 N22         1.1360    2.0060    0.6490 ne        1 B34     -0.805300
      8 C13         2.3760    2.1590    1.0340 cf        1 B34      0.737200
      9 C10         2.8960    0.9490    1.7570 ca        1 B34     -0.164900
     10 C6          4.0990    0.7400    2.3990 ca        1 B34     -0.061000
     11 C2          4.3280   -0.5030    3.0210 ca        1 B34     -0.096000
     12 C14         3.0920    3.3840    0.7990 cf        1 B34     -0.418800
     13 C16         4.5690    3.5850    0.7030 c         1 B34      0.729700
     14 O24         5.4810    2.7630    0.8590 o         1 B34     -0.617500
     15 N23         4.8060    4.9310    0.3200 n         1 B34     -0.459800
     16 C17         3.5480    5.6900    0.3000 c3        1 B34      0.107900
     17 C21         3.3240    6.4870   -1.0000 c3        1 B34     -0.052700
     18 C19         2.9800    5.5920   -2.1690 c3        1 B34     -0.100100
     19 C18         2.2460    7.5290   -0.7800 c3        1 B34     -0.100100
     20 C15         2.4910    4.6030    0.5330 c2        1 B34      0.242900
     21 O27         1.2080    4.9680    0.4940 oh        1 B34     -0.448100
     22 C20         6.0410    5.6000    0.6290 c3        1 B34      0.136300
     23 C11         6.1820    6.1040    2.0380 ca        1 B34     -0.135300
     24 C7          6.0790    7.4690    2.3190 ca        1 B34     -0.117000
     25 C3          6.2460    7.9280    3.6250 ca        1 B34     -0.131000
     26 C8          6.4490    5.2010    3.0740 ca        1 B34     -0.117000
     27 C4          6.6130    5.6620    4.3780 ca        1 B34     -0.131000
     28 C1          6.5120    7.0260    4.6550 ca        1 B34     -0.120000
     29 H9          1.3580   -2.0620    2.3770 ha        1 B34      0.149000
     30 H5          3.5540   -2.4670    3.4860 ha        1 B34      0.144000
     31 H6          4.8840    1.5110    2.4320 ha        1 B34      0.174000
     32 H2          5.2940   -0.6760    3.5220 ha        1 B34      0.143000
     33 H17         3.5160    6.4140    1.1700 h1        1 B34      0.089700
     34 H21         4.2880    7.0240   -1.2360 hc        1 B34      0.061700
     35 H19         3.7840    4.8380   -2.3410 hc        1 B34      0.046033
     36 H19A        2.0180    5.0550   -1.9810 hc        1 B34      0.046033
     37 H19B        2.8650    6.2050   -3.0950 hc        1 B34      0.046033
     38 H18         2.5400    8.2380    0.0310 hc        1 B34      0.046033
     39 H18A        1.2800    7.0450   -0.4970 hc        1 B34      0.046033
     40 H18B        2.0880    8.1110   -1.7200 hc        1 B34      0.046033
     41 H20         6.8720    4.8610    0.4240 h1        1 B34      0.075700
     42 H20A        6.1460    6.4640   -0.0900 h1        1 B34      0.075700
     43 H7          5.8730    8.1840    1.5090 ha        1 B34      0.138500
     44 H3          6.1680    9.0040    3.8420 ha        1 B34      0.135500
     45 H8          6.5300    4.1250    2.8460 ha        1 B34      0.138500
     46 H4          6.8260    4.9500    5.1890 ha        1 B34      0.135500
     47 H1          6.6440    7.3900    5.6850 ha        1 B34      0.135000
     48 H201        0.6290    4.1830    0.5910 ho        1 B34      0.484000
@<TRIPOS>BOND
     1    1    2 2   
     2    2    3 2   
     3    2    4 1   
     4    2    7 1   
     5    4    5 ar  
     6    4    9 ar  
     7    5    6 ar  
     8    5   29 1   
     9    6   11 ar  
    10    6   30 1   
    11    7    8 2   
    12    8    9 1   
    13    8   12 1   
    14    9   10 ar  
    15   10   11 ar  
    16   10   31 1   
    17   11   32 1   
    18   12   13 1   
    19   12   20 2   
    20   13   14 2   
    21   13   15 1   
    22   15   16 1   
    23   15   22 1   
    24   16   17 1   
    25   16   20 1   
    26   16   33 1   
    27   17   18 1   
    28   17   19 1   
    29   17   34 1   
    30   18   35 1   
    31   18   36 1   
    32   18   37 1   
    33   19   38 1   
    34   19   39 1   
    35   19   40 1   
    36   20   21 1   
    37   21   48 1   
    38   22   23 1   
    39   22   41 1   
    40   22   42 1   
    41   23   24 ar  
    42   23   26 ar  
    43   24   25 ar  
    44   24   43 1   
    45   25   28 ar  
    46   25   44 1   
    47   26   27 ar  
    48   26   45 1   
    49   27   28 ar  
    50   27   46 1   
    51   28   47 1   
@<TRIPOS>SUBSTRUCTURE
     1 B34         1 TEMP              0 ****  ****    0 ROOT
