@<TRIPOS>MOLECULE
B35
   47    41     1     0     0
SMALL
bcc


@<TRIPOS>ATOM
      1 C1         -1.9590   -0.0270   -3.8000 c1        1 B35      0.047000
      2 C2         -0.6110   -0.3200   -3.6710 c1        1 B35     -0.180000
      3 C3         -0.0040   -0.2680   -2.4170 c1        1 B35     -0.097000
      4 C4         -0.7520    0.0780   -1.2950 c1        1 B35     -0.079000
      5 N           1.4050    2.4760   -0.1070 n2        1 B35     -0.153000
      6 C5         -2.1030    0.3710   -1.4260 c1        1 B35     -0.140000
      7 C6         -2.8990   -1.3560   -5.5890 c3        1 B35     -0.077000
      8 C7          0.1230    0.4520   -0.1200 c3        1 B35      0.017000
      9 C8          0.1810    1.9400    0.0020 c2        1 B35     -0.116000
     10 C          -2.7090    0.3190   -2.6780 c1        1 B35      0.066000
     11 O          -2.5730   -0.0330   -5.0980 os        1 B35     -0.197000
     12 F          -3.9850    0.7210   -2.8240 f         1 B35     -0.094000
     13 C9         -0.4660   -0.1480    1.1770 c3        1 B35     -0.114000
     14 C10         0.6020   -1.0420    1.8640 c2        1 B35     -0.094000
     15 C11         1.2430   -2.0400    1.1400 c2        1 B35     -0.038000
     16 C12         2.1610   -2.8890    1.7800 c1        1 B35     -0.167000
     17 C13         2.4260   -2.7300    3.1260 c1        1 B35     -0.125500
     18 C14         1.7880   -1.7360    3.8460 c1        1 B35     -0.125500
     19 C15         0.8720   -0.8880    3.2140 c1        1 B35      0.131000
     20 O16         0.2490    0.1610    3.9560 os        1 B35     -0.202000
     21 C17        -0.4800   -0.2940    5.0840 c3        1 B35     -0.079000
     22 C18         1.2660    3.8290   -0.1800 c1        1 B35     -0.008000
     23 N19        -0.0630    4.1200   -0.1150 n2        1 B35     -0.178000
     24 C20        -0.7350    2.9690   -0.0030 c1        1 B35     -0.148000
     25 N21         2.3260    4.7760   -0.3040 n2        1 B35     -0.274000
     26 N22         2.8020   -3.8960    1.0580 no        1 B35      0.574000
     27 O23         2.1330   -5.0630    0.7650 o         1 B35     -0.365500
     28 O24         3.9920   -3.7810    0.7670 o         1 B35     -0.365500
     29 H2         -0.0920   -0.5600   -4.4490 ha        1 B35      0.144000
     30 H3          0.9430   -0.4740   -2.3260 ha        1 B35      0.145000
     31 H5         -2.6260    0.6130   -0.6430 ha        1 B35      0.147000
     32 H6         -3.0610   -1.9540   -4.8300 h1        1 B35      0.086333
     33 H6A        -3.7100   -1.3090   -6.1470 h1        1 B35      0.086333
     34 H6B        -2.1440   -1.7050   -6.1300 h1        1 B35      0.086333
     35 H7          1.0170    0.1040   -0.2590 hc        1 B35      0.119000
     36 H9         -1.2350   -0.6770    0.9650 hc        1 B35      0.105500
     37 H9A        -0.7250    0.5730    1.7800 hc        1 B35      0.105500
     38 H11         1.0580   -2.1490    0.2020 ha        1 B35      0.173000
     39 H13         3.0910   -3.3440    3.5890 ha        1 B35      0.160000
     40 H14         1.9750   -1.6280    4.7850 ha        1 B35      0.160000
     41 H17         0.1410   -0.6210    5.7620 h1        1 B35      0.090333
     42 H17A       -1.0730   -1.0150    4.8160 h1        1 B35      0.090333
     43 H17B       -1.0100    0.4460    5.4540 h1        1 B35      0.090333
     44 HN19       -0.4340    4.9650   -0.1430 DU        1 B35      0.220000
     45 H20        -1.7010    2.8740    0.0640 DU        1 B35      0.220000
     46 HN21        3.2080    4.4820   -0.3720 hn        1 B35      0.176500
     47 HN2A        2.1430    5.6780   -0.2730 hn        1 B35      0.176500
@<TRIPOS>BOND
     1    1    2 1   
     2    1   11 1   
     3    2   29 1   
     4    3    4 1   
     5    3   30 1   
     6    4    8 1   
     7    5    9 1   
     8    5   22 1   
     9    6   10 1   
    10    6   31 1   
    11    7   11 1   
    12    7   32 1   
    13    7   33 1   
    14    7   34 1   
    15    8    9 1   
    16    8   13 1   
    17    8   35 1   
    18    9   24 1   
    19   10   12 1   
    20   13   14 1   
    21   13   36 1   
    22   13   37 1   
    23   14   15 1   
    24   14   19 1   
    25   15   16 1   
    26   15   38 1   
    27   16   26 1   
    28   17   18 1   
    29   17   39 1   
    30   18   40 1   
    31   19   20 1   
    32   20   21 1   
    33   21   41 1   
    34   21   42 1   
    35   21   43 1   
    36   22   23 1   
    37   23   24 1   
    38   25   46 1   
    39   25   47 1   
    40   26   27 1   
    41   26   28 1   
@<TRIPOS>SUBSTRUCTURE
     1 B35         1 TEMP              0 ****  ****    0 ROOT
