@<TRIPOS>MOLECULE
B35
   47    49     1     0     0
SMALL
bcc


@<TRIPOS>ATOM
      1 C1          0.1700   -0.1330   -0.0350 ca        1 B35      0.092100
      2 C2          1.5580   -0.0340    0.0880 ca        1 B35     -0.180000
      3 C3          2.1380    0.0750    1.3500 ca        1 B35     -0.097000
      4 C4          1.3490    0.0870    2.5050 ca        1 B35     -0.086300
      5 N           3.1470    2.3580    4.5750 nc        1 B35     -0.679000
      6 C5         -0.0400   -0.0090    2.3910 ca        1 B35     -0.140000
      7 C6          0.2810   -0.2750   -2.4060 c3        1 B35      0.112700
      8 C7          2.0120    0.2060    3.8470 c3        1 B35     -0.030700
      9 C8          1.9930    1.6220    4.3120 cc        1 B35      0.306600
     10 C          -0.6430   -0.1200    1.1300 ca        1 B35      0.100900
     11 O          -0.5160   -0.2450   -1.2260 os        1 B35     -0.313900
     12 F          -1.9890   -0.2130    1.0250 f         1 B35     -0.128900
     13 C9          1.3470   -0.7210    4.8700 c3        1 B35     -0.028100
     14 C10         2.2380   -1.0510    6.0160 ca        1 B35     -0.101300
     15 C11         3.4400   -1.7210    5.7950 ca        1 B35     -0.038000
     16 C12         4.2810   -2.0440    6.8730 ca        1 B35     -0.212200
     17 C13         3.9290   -1.7000    8.1870 ca        1 B35     -0.032000
     18 C14         2.7270   -1.0430    8.4190 ca        1 B35     -0.219000
     19 C15         1.8810   -0.7220    7.3460 ca        1 B35      0.176100
     20 O16         0.6650   -0.0970    7.5020 os        1 B35     -0.318900
     21 C17         0.3110    0.2930    8.8260 c3        1 B35      0.110700
     22 C18         2.7210    3.5980    4.9740 cd        1 B35      0.536400
     23 N19         1.3050    3.6590    4.9660 na        1 B35     -0.291900
     24 C20         0.8500    2.4200    4.5460 cd        1 B35     -0.237600
     25 N21         3.4950    4.7180    5.3870 nh        1 B35     -0.876500
     26 N22         5.5570   -2.7550    6.6180 no        1 B35      0.319200
     27 O23         5.8420   -3.0600    5.4900 o         1 B35     -0.215500
     28 O24         6.2770   -3.0120    7.5470 o         1 B35     -0.215500
     29 H2          2.1990   -0.0420   -0.8050 ha        1 B35      0.144000
     30 H3          3.2330    0.1570    1.4340 ha        1 B35      0.145000
     31 H5         -0.6790    0.0020    3.2870 ha        1 B35      0.147000
     32 H6          0.9710   -1.1540   -2.3940 h1        1 B35      0.047033
     33 H6A        -0.4760   -0.3760   -3.2240 h1        1 B35      0.047033
     34 H6B         0.8580    0.6750   -2.5160 h1        1 B35      0.047033
     35 H7          3.0890   -0.1210    3.7300 hc        1 B35      0.079700
     36 H9          0.4010   -0.2450    5.2430 hc        1 B35      0.066200
     37 H9A         1.0620   -1.6790    4.3530 hc        1 B35      0.066200
     38 H11         3.7320   -2.0000    4.7660 ha        1 B35      0.173000
     39 H13         4.5980   -1.9520    9.0280 ha        1 B35      0.170000
     40 H14         2.4540   -0.7790    9.4510 ha        1 B35      0.150000
     41 H17         1.0600    1.0090    9.2410 h1        1 B35      0.051033
     42 H17A        0.2110   -0.6040    9.4850 h1        1 B35      0.051033
     43 H17B       -0.6820    0.7930    8.6870 h1        1 B35      0.051033
     44 HN19        0.7570    4.4430    5.2050 hn        1 B35      0.308700
     45 H20        -0.2090    2.1890    4.4360 h4        1 B35      0.181000
     46 HN21        3.8890    5.1680    4.5810 hn        1 B35      0.381300
     47 HN2A        4.2310    4.4140    5.9980 hn        1 B35      0.381300
@<TRIPOS>BOND
     1    1    2 ar  
     2    1   10 ar  
     3    1   11 1   
     4    2    3 ar  
     5    2   29 1   
     6    3    4 ar  
     7    3   30 1   
     8    4    6 ar  
     9    4    8 1   
    10    5    9 1   
    11    5   22 2   
    12    6   10 ar  
    13    6   31 1   
    14    7   11 1   
    15    7   32 1   
    16    7   33 1   
    17    7   34 1   
    18    8    9 1   
    19    8   13 1   
    20    8   35 1   
    21    9   24 2   
    22   10   12 1   
    23   13   14 1   
    24   13   36 1   
    25   13   37 1   
    26   14   15 ar  
    27   14   19 ar  
    28   15   16 ar  
    29   15   38 1   
    30   16   17 ar  
    31   16   26 1   
    32   17   18 ar  
    33   17   39 1   
    34   18   19 ar  
    35   18   40 1   
    36   19   20 1   
    37   20   21 1   
    38   21   41 1   
    39   21   42 1   
    40   21   43 1   
    41   22   23 1   
    42   22   25 1   
    43   23   24 1   
    44   23   44 1   
    45   24   45 1   
    46   25   46 1   
    47   25   47 1   
    48   26   27 1   
    49   26   28 1   
@<TRIPOS>SUBSTRUCTURE
     1 B35         1 TEMP              0 ****  ****    0 ROOT
