@<TRIPOS>MOLECULE
B35
   47    49     1     0     0
SMALL
bcc


@<TRIPOS>ATOM
      1 C1         -4.5890    1.2240    0.1220 ca        1 B35      0.092100
      2 C2         -3.8090    1.5480    1.2340 ca        1 B35     -0.180000
      3 C3         -2.4770    1.1430    1.2910 ca        1 B35     -0.097000
      4 C4         -1.9030    0.4110    0.2460 ca        1 B35     -0.086300
      5 N           0.2900   -1.7650    2.0150 nc        1 B35     -0.679000
      6 C5         -2.6780    0.0810   -0.8690 ca        1 B35     -0.140000
      7 C6         -6.5000    2.3280    1.0060 c3        1 B35      0.112700
      8 C7         -0.4650   -0.0070    0.3440 c3        1 B35     -0.030700
      9 C8         -0.3650   -1.4110    0.8360 cc        1 B35      0.306600
     10 C          -4.0200    0.4800   -0.9450 ca        1 B35      0.100900
     11 O          -5.9140    1.5690   -0.0460 os        1 B35     -0.313900
     12 F          -4.7650    0.1580   -2.0280 f         1 B35     -0.128900
     13 C9          0.2470    0.1590   -1.0030 c3        1 B35     -0.028100
     14 C10         1.7240    0.2780   -0.8650 ca        1 B35     -0.101300
     15 C11         2.2750    1.3350   -0.1430 ca        1 B35     -0.038000
     16 C12         3.6690    1.4590   -0.0170 ca        1 B35     -0.212200
     17 C13         4.5300    0.5250   -0.6130 ca        1 B35     -0.032000
     18 C14         3.9910   -0.5260   -1.3450 ca        1 B35     -0.219000
     19 C15         2.6000   -0.6510   -1.4780 ca        1 B35      0.176100
     20 O16         1.9950   -1.6490   -2.2070 os        1 B35     -0.318900
     21 C17         2.8540   -2.6280   -2.7870 c3        1 B35      0.110700
     22 C18         0.1650   -3.1260    2.1200 cd        1 B35      0.536400
     23 N19        -0.5650   -3.6410    1.0210 na        1 B35     -0.291900
     24 C20        -0.9010   -2.5630    0.2180 cd        1 B35     -0.237600
     25 N21         0.6790   -3.9930    3.1250 nh        1 B35     -0.876500
     26 N22         4.2360    2.5900    0.7560 no        1 B35      0.319200
     27 O23         3.4900    3.3950    1.2480 o         1 B35     -0.215500
     28 O24         5.4300    2.6760    0.8710 o         1 B35     -0.215500
     29 H2         -4.2370    2.1230    2.0680 ha        1 B35      0.144000
     30 H3         -1.8730    1.4000    2.1750 ha        1 B35      0.145000
     31 H5         -2.2470   -0.4960   -1.7010 ha        1 B35      0.147000
     32 H6         -6.4930    1.7490    1.9620 h1        1 B35      0.047033
     33 H6A        -5.9700    3.3030    1.1330 h1        1 B35      0.047033
     34 H6B        -7.5500    2.4920    0.6510 h1        1 B35      0.047033
     35 H7          0.0420    0.6750    1.0920 hc        1 B35      0.079700
     36 H9         -0.0090   -0.7090   -1.6670 hc        1 B35      0.066200
     37 H9A        -0.1410    1.0910   -1.4990 hc        1 B35      0.066200
     38 H11         1.6110    2.0810    0.3310 ha        1 B35      0.173000
     39 H13         5.6230    0.6250   -0.5040 ha        1 B35      0.170000
     40 H14         4.6700   -1.2540   -1.8130 ha        1 B35      0.150000
     41 H17         3.5380   -2.1570   -3.5350 h1        1 B35      0.051033
     42 H17A        3.4370   -3.1600   -1.9960 h1        1 B35      0.051033
     43 H17B        2.1400   -3.3280   -3.2910 h1        1 B35      0.051033
     44 HN19       -0.7950   -4.5880    0.8700 hn        1 B35      0.308700
     45 H20        -1.4780   -2.6710   -0.6980 h4        1 B35      0.181000
     46 HN21        1.6230   -3.7340    3.3450 hn        1 B35      0.381300
     47 HN2A        0.1080   -3.9260    3.9480 hn        1 B35      0.381300
@<TRIPOS>BOND
     1    1    2 ar  
     2    1   10 ar  
     3    1   11 1   
     4    2    3 ar  
     5    2   29 1   
     6    3    4 ar  
     7    3   30 1   
     8    4    6 ar  
     9    4    8 1   
    10    5    9 1   
    11    5   22 2   
    12    6   10 ar  
    13    6   31 1   
    14    7   11 1   
    15    7   32 1   
    16    7   33 1   
    17    7   34 1   
    18    8    9 1   
    19    8   13 1   
    20    8   35 1   
    21    9   24 2   
    22   10   12 1   
    23   13   14 1   
    24   13   36 1   
    25   13   37 1   
    26   14   15 ar  
    27   14   19 ar  
    28   15   16 ar  
    29   15   38 1   
    30   16   17 ar  
    31   16   26 1   
    32   17   18 ar  
    33   17   39 1   
    34   18   19 ar  
    35   18   40 1   
    36   19   20 1   
    37   20   21 1   
    38   21   41 1   
    39   21   42 1   
    40   21   43 1   
    41   22   23 1   
    42   22   25 1   
    43   23   24 1   
    44   23   44 1   
    45   24   45 1   
    46   25   46 1   
    47   25   47 1   
    48   26   27 1   
    49   26   28 1   
@<TRIPOS>SUBSTRUCTURE
     1 B35         1 TEMP              0 ****  ****    0 ROOT
