@<TRIPOS>MOLECULE
B35
   47    49     1     0     0
SMALL
bcc


@<TRIPOS>ATOM
      1 C1          0.1640   -0.1350   -0.0330 ca        1 B35      0.092100
      2 C2          1.5530   -0.0390    0.0880 ca        1 B35     -0.180000
      3 C3          2.1350    0.0710    1.3500 ca        1 B35     -0.097000
      4 C4          1.3470    0.0860    2.5050 ca        1 B35     -0.086300
      5 N           3.1520    2.3560    4.5730 nc        1 B35     -0.679000
      6 C5         -0.0430   -0.0070    2.3930 ca        1 B35     -0.140000
      7 C6          0.2730   -0.2810   -2.4040 c3        1 B35      0.112700
      8 C7          2.0110    0.2060    3.8470 c3        1 B35     -0.030700
      9 C8          1.9960    1.6220    4.3100 cc        1 B35      0.306600
     10 C          -0.6470   -0.1190    1.1330 ca        1 B35      0.100900
     11 O          -0.5220   -0.2470   -1.2230 os        1 B35     -0.313900
     12 F          -1.9930   -0.2090    1.0300 f         1 B35     -0.128900
     13 C9          1.3460   -0.7190    4.8710 c3        1 B35     -0.028100
     14 C10         2.2370   -1.0490    6.0170 ca        1 B35     -0.101300
     15 C11         3.4370   -1.7220    5.7950 ca        1 B35     -0.038000
     16 C12         4.2790   -2.0460    6.8730 ca        1 B35     -0.212200
     17 C13         3.9290   -1.7000    8.1870 ca        1 B35     -0.032000
     18 C14         2.7290   -1.0390    8.4200 ca        1 B35     -0.219000
     19 C15         1.8830   -0.7180    7.3470 ca        1 B35      0.176100
     20 O16         0.6680   -0.0900    7.5030 os        1 B35     -0.318900
     21 C17         0.3160    0.3020    8.8270 c3        1 B35      0.110700
     22 C18         2.7280    3.5970    4.9710 cd        1 B35      0.536400
     23 N19         1.3130    3.6620    4.9610 na        1 B35     -0.291900
     24 C20         0.8540    2.4230    4.5420 cd        1 B35     -0.237600
     25 N21         3.5060    4.7150    5.3830 nv        1 B35     -0.876500
     26 N22         5.5530   -2.7600    6.6170 no        1 B35      0.319200
     27 O23         5.8360   -3.0670    5.4900 o         1 B35     -0.215500
     28 O24         6.2740   -3.0170    7.5460 o         1 B35     -0.215500
     29 H2          2.1930   -0.0490   -0.8050 ha        1 B35      0.144000
     30 H3          3.2300    0.1500    1.4320 ha        1 B35      0.145000
     31 H5         -0.6810    0.0060    3.2890 ha        1 B35      0.147000
     32 H6          0.8520    0.6680   -2.5160 h1        1 B35      0.047033
     33 H6A        -0.4850   -0.3810   -3.2210 h1        1 B35      0.047033
     34 H6B         0.9610   -1.1610   -2.3920 h1        1 B35      0.047033
     35 H7          3.0880   -0.1240    3.7290 hc        1 B35      0.079700
     36 H9          0.4010   -0.2410    5.2450 hc        1 B35      0.066200
     37 H9A         1.0590   -1.6770    4.3560 hc        1 B35      0.066200
     38 H11         3.7270   -2.0030    4.7670 ha        1 B35      0.173000
     39 H13         4.5990   -1.9510    9.0270 ha        1 B35      0.170000
     40 H14         2.4580   -0.7740    9.4510 ha        1 B35      0.150000
     41 H17         1.0670    1.0180    9.2400 h1        1 B35      0.051033
     42 H17A       -0.6750    0.8050    8.6890 h1        1 B35      0.051033
     43 H17B        0.2150   -0.5930    9.4880 h1        1 B35      0.051033
     44 HN19        0.7660    4.4470    5.1990 hn        1 B35      0.308700
     45 H20        -0.2040    2.1950    4.4320 h4        1 B35      0.181000
     46 HN21        4.2400    4.4100    5.9940 hn        1 B35      0.381300
     47 HN2A        3.9010    5.1630    4.5760 hn        1 B35      0.381300
@<TRIPOS>BOND
     1    1    2 ar  
     2    1   10 ar  
     3    1   11 1   
     4    2    3 ar  
     5    2   29 1   
     6    3    4 ar  
     7    3   30 1   
     8    4    6 ar  
     9    4    8 1   
    10    5    9 1   
    11    5   22 2   
    12    6   10 ar  
    13    6   31 1   
    14    7   11 1   
    15    7   32 1   
    16    7   33 1   
    17    7   34 1   
    18    8    9 1   
    19    8   13 1   
    20    8   35 1   
    21    9   24 2   
    22   10   12 1   
    23   13   14 1   
    24   13   36 1   
    25   13   37 1   
    26   14   15 ar  
    27   14   19 ar  
    28   15   16 ar  
    29   15   38 1   
    30   16   17 ar  
    31   16   26 1   
    32   17   18 ar  
    33   17   39 1   
    34   18   19 ar  
    35   18   40 1   
    36   19   20 1   
    37   20   21 1   
    38   21   41 1   
    39   21   42 1   
    40   21   43 1   
    41   22   23 1   
    42   22   25 1   
    43   23   24 1   
    44   23   44 1   
    45   24   45 1   
    46   25   46 1   
    47   25   47 1   
    48   26   27 1   
    49   26   28 1   
@<TRIPOS>SUBSTRUCTURE
     1 B35         1 TEMP              0 ****  ****    0 ROOT
