@<TRIPOS>MOLECULE
B35
   47    49     1     0     0
SMALL
bcc


@<TRIPOS>ATOM
      1 C1          0.1670   -0.1400   -0.0340 ca        1 B35      0.092100
      2 C2          1.5550   -0.0380    0.0880 ca        1 B35     -0.180000
      3 C3          2.1360    0.0730    1.3500 ca        1 B35     -0.097000
      4 C4          1.3480    0.0850    2.5050 ca        1 B35     -0.086300
      5 N           3.1440    2.3580    4.5790 nc        1 B35     -0.679000
      6 C5         -0.0410   -0.0140    2.3920 ca        1 B35     -0.140000
      7 C6          0.2780   -0.2830   -2.4040 c3        1 B35      0.112700
      8 C7          2.0110    0.2060    3.8470 c3        1 B35     -0.030700
      9 C8          1.9900    1.6220    4.3110 cc        1 B35      0.306600
     10 C          -0.6450   -0.1270    1.1310 ca        1 B35      0.100900
     11 O          -0.5190   -0.2540   -1.2240 os        1 B35     -0.313900
     12 F          -1.9900   -0.2230    1.0280 f         1 B35     -0.128900
     13 C9          1.3490   -0.7220    4.8710 c3        1 B35     -0.028100
     14 C10         2.2410   -1.0490    6.0160 ca        1 B35     -0.101300
     15 C11         3.4440   -1.7180    5.7950 ca        1 B35     -0.038000
     16 C12         4.2870   -2.0380    6.8730 ca        1 B35     -0.212200
     17 C13         3.9350   -1.6930    8.1870 ca        1 B35     -0.032000
     18 C14         2.7320   -1.0370    8.4190 ca        1 B35     -0.219000
     19 C15         1.8850   -0.7190    7.3470 ca        1 B35      0.176100
     20 O16         0.6690   -0.0950    7.5020 os        1 B35     -0.317900
     21 C17         0.3150    0.2960    8.8260 c3        1 B35      0.110700
     22 C18         2.7150    3.5980    4.9760 cd        1 B35      0.536400
     23 N19         1.3000    3.6590    4.9610 na        1 B35     -0.291900
     24 C20         0.8460    2.4200    4.5390 cd        1 B35     -0.237600
     25 N21         3.4880    4.7180    5.3920 nh        1 B35     -0.876500
     26 N22         5.5630   -2.7480    6.6180 no        1 B35      0.319200
     27 O23         5.8470   -3.0540    5.4900 o         1 B35     -0.215500
     28 O24         6.2840   -3.0030    7.5460 o         1 B35     -0.215500
     29 H2          2.1960   -0.0450   -0.8050 ha        1 B35      0.144000
     30 H3          3.2310    0.1570    1.4330 ha        1 B35      0.145000
     31 H5         -0.6800   -0.0050    3.2880 ha        1 B35      0.147000
     32 H6          0.9690   -1.1610   -2.3930 h1        1 B35      0.047033
     33 H6A        -0.4800   -0.3860   -3.2230 h1        1 B35      0.047033
     34 H6B         0.8530    0.6680   -2.5160 h1        1 B35      0.047033
     35 H7          3.0890   -0.1200    3.7290 hc        1 B35      0.079700
     36 H9          1.0660   -1.6800    4.3550 hc        1 B35      0.066200
     37 H9A         0.4020   -0.2470    5.2440 hc        1 B35      0.066200
     38 H11         3.7350   -1.9980    4.7670 ha        1 B35      0.173000
     39 H13         4.6050   -1.9430    9.0280 ha        1 B35      0.170000
     40 H14         2.4600   -0.7730    9.4510 ha        1 B35      0.150000
     41 H17         1.0640    1.0140    9.2390 h1        1 B35      0.051033
     42 H17A        0.2170   -0.5990    9.4870 h1        1 B35      0.051033
     43 H17B       -0.6780    0.7950    8.6880 h1        1 B35      0.051033
     44 HN19        0.7500    4.4430    5.1970 hn        1 B35      0.308700
     45 H20        -0.2120    2.1890    4.4250 h4        1 B35      0.181000
     46 HN21        3.8850    5.1680    4.5870 hn        1 B35      0.381300
     47 HN2A        4.2210    4.4140    6.0050 hn        1 B35      0.381300
@<TRIPOS>BOND
     1    1    2 ar  
     2    1   10 ar  
     3    1   11 1   
     4    2    3 ar  
     5    2   29 1   
     6    3    4 ar  
     7    3   30 1   
     8    4    6 ar  
     9    4    8 1   
    10    5    9 1   
    11    5   22 2   
    12    6   10 ar  
    13    6   31 1   
    14    7   11 1   
    15    7   32 1   
    16    7   33 1   
    17    7   34 1   
    18    8    9 1   
    19    8   13 1   
    20    8   35 1   
    21    9   24 2   
    22   10   12 1   
    23   13   14 1   
    24   13   36 1   
    25   13   37 1   
    26   14   15 ar  
    27   14   19 ar  
    28   15   16 ar  
    29   15   38 1   
    30   16   17 ar  
    31   16   26 1   
    32   17   18 ar  
    33   17   39 1   
    34   18   19 ar  
    35   18   40 1   
    36   19   20 1   
    37   20   21 1   
    38   21   41 1   
    39   21   42 1   
    40   21   43 1   
    41   22   23 1   
    42   22   25 1   
    43   23   24 1   
    44   23   44 1   
    45   24   45 1   
    46   25   46 1   
    47   25   47 1   
    48   26   27 1   
    49   26   28 1   
@<TRIPOS>SUBSTRUCTURE
     1 B35         1 TEMP              0 ****  ****    0 ROOT
