@<TRIPOS>MOLECULE
B36
   62    67     1     0     0
SMALL
bcc


@<TRIPOS>ATOM
      1 CBE        -3.9650    1.0950    0.1130 ca        1 B36     -0.003000
      2 CAK        -3.1100    2.1960    0.4510 ca        1 B36     -0.121000
      3 CAE        -3.4110    3.4650    0.0520 ca        1 B36     -0.119500
      4 CAC        -4.5840    3.7240   -0.7150 ca        1 B36     -0.126000
      5 CAI        -5.4250    2.7040   -1.0530 ca        1 B36     -0.117000
      6 CBB        -5.1460    1.3580   -0.6470 ca        1 B36     -0.040500
      7 CAP        -6.0050    0.3050   -0.9780 ca        1 B36     -0.091000
      8 CBC        -5.7320   -1.0040   -0.5690 ca        1 B36     -0.040500
      9 CAJ        -6.6140   -2.0860   -0.8950 ca        1 B36     -0.117000
     10 CAD        -6.3440   -3.3570   -0.4800 ca        1 B36     -0.126000
     11 CAF        -5.1770   -3.6280    0.2930 ca        1 B36     -0.119500
     12 CAL        -4.3120   -2.6250    0.6190 ca        1 B36     -0.121000
     13 CBF        -4.5550   -1.2770    0.1940 ca        1 B36     -0.003000
     14 CAZ        -3.6830   -0.2230    0.5080 ca        1 B36     -0.110600
     15 CAW        -2.4610   -0.4940    1.3290 c         1 B36      0.664700
     16 OAB        -2.4950   -0.4150    2.5730 o         1 B36     -0.589100
     17 NBH        -1.3010   -0.9160    0.6790 n         1 B36     -0.454800
     18 CAT        -1.1260   -0.7720   -0.7490 c3        1 B36      0.080000
     19 CAR        -0.1320    0.3220   -1.1460 c3        1 B36     -0.102400
     20 CAS        -0.0610   -1.0190    1.4240 c3        1 B36      0.080000
     21 CAQ         0.9600    0.0650    1.0790 c3        1 B36     -0.102400
     22 CBG         1.1940    0.1380   -0.4220 c3        1 B36     -0.061700
     23 CAU         2.1490    1.2700   -0.7810 c3        1 B36     -0.035100
     24 CAY         3.5530    0.9750   -0.3820 ca        1 B36     -0.077300
     25 CAO         4.4030    0.2980   -1.2300 ca        1 B36     -0.110000
     26 CBA         5.7410    0.0300   -0.8530 ca        1 B36     -0.149300
     27 CAM         6.6450   -0.6670   -1.7060 ca        1 B36     -0.080000
     28 CAG         7.9270   -0.8960   -1.2850 ca        1 B36     -0.249300
     29 CAX         8.3340   -0.4260    0.0140 ca        1 B36      0.429600
     30 CAA         9.7480   -0.7080    0.4150 c3        1 B36     -0.153400
     31 NAV         7.5200    0.2270    0.8360 nb        1 B36     -0.661000
     32 CBD         6.2240    0.4620    0.4200 ca        1 B36      0.400600
     33 CAN         5.3190    1.1630    1.2820 ca        1 B36     -0.165300
     34 CAH         4.0290    1.4060    0.8840 ca        1 B36     -0.121000
     35 HAK        -2.2120    1.9890    1.0560 ha        1 B36      0.145000
     36 HAE        -2.7590    4.3100    0.3180 ha        1 B36      0.135500
     37 HAC        -4.7970    4.7590   -1.0220 ha        1 B36      0.134500
     38 HAI        -6.3370    2.8880   -1.6400 ha        1 B36      0.133500
     39 HAP        -6.9120    0.5110   -1.5670 ha        1 B36      0.137000
     40 HAJ        -7.5130   -1.8590   -1.4870 ha        1 B36      0.133500
     41 HAD        -7.0190   -4.1900   -0.7270 ha        1 B36      0.134500
     42 HAF        -4.9920   -4.6620    0.6230 ha        1 B36      0.135500
     43 HAL        -3.4150   -2.8250    1.2280 ha        1 B36      0.145000
     44 HAT        -0.7450   -1.7610   -1.1370 h1        1 B36      0.062450
     45 HATA       -2.1160   -0.5640   -1.2430 h1        1 B36      0.062450
     46 HAR         0.0250    0.2710   -2.2540 hc        1 B36      0.051950
     47 HARA       -0.5570    1.3320   -0.9060 hc        1 B36      0.051950
     48 HAS        -0.2830   -0.9820    2.5290 h1        1 B36      0.062450
     49 HASA        0.3850   -2.0280    1.1870 h1        1 B36      0.062450
     50 HAQ         0.6030    1.0590    1.4550 hc        1 B36      0.051950
     51 HAQA        1.9240   -0.1690    1.6000 hc        1 B36      0.051950
     52 HBG         1.6510   -0.8360   -0.7600 hc        1 B36      0.055700
     53 HAU         2.1070    1.4400   -1.8910 hc        1 B36      0.050700
     54 HAUA        1.8040    2.2170   -0.2860 hc        1 B36      0.050700
     55 HAO         4.0550   -0.0430   -2.2170 ha        1 B36      0.133000
     56 HAM         6.2930   -1.0080   -2.6910 ha        1 B36      0.137000
     57 HAG         8.6570   -1.4280   -1.9090 ha        1 B36      0.142000
     58 HAA        10.4400   -0.2350   -0.3240 hc        1 B36      0.055367
     59 HAAA        9.9890   -0.3140    1.4330 hc        1 B36      0.055367
     60 HAAB        9.9170   -1.8130    0.4100 hc        1 B36      0.055367
     61 HAN         5.6770    1.5040    2.2660 ha        1 B36      0.151000
     62 HAH         3.3370    1.9430    1.5510 ha        1 B36      0.136000
@<TRIPOS>BOND
     1    1    2 ar  
     2    1    6 ar  
     3    1   14 ar  
     4    2    3 ar  
     5    2   35 1   
     6    3    4 ar  
     7    3   36 1   
     8    4    5 ar  
     9    4   37 1   
    10    5    6 ar  
    11    5   38 1   
    12    6    7 ar  
    13    7    8 ar  
    14    7   39 1   
    15    8    9 ar  
    16    8   13 ar  
    17    9   10 ar  
    18    9   40 1   
    19   10   11 ar  
    20   10   41 1   
    21   11   12 ar  
    22   11   42 1   
    23   12   13 ar  
    24   12   43 1   
    25   13   14 ar  
    26   14   15 1   
    27   15   16 2   
    28   15   17 1   
    29   17   18 1   
    30   17   20 1   
    31   18   19 1   
    32   18   44 1   
    33   18   45 1   
    34   19   22 1   
    35   19   46 1   
    36   19   47 1   
    37   20   21 1   
    38   20   48 1   
    39   20   49 1   
    40   21   22 1   
    41   21   50 1   
    42   21   51 1   
    43   22   23 1   
    44   22   52 1   
    45   23   24 1   
    46   23   53 1   
    47   23   54 1   
    48   24   25 ar  
    49   24   34 ar  
    50   25   26 ar  
    51   25   55 1   
    52   26   27 ar  
    53   26   32 ar  
    54   27   28 ar  
    55   27   56 1   
    56   28   29 ar  
    57   28   57 1   
    58   29   30 1   
    59   29   31 ar  
    60   30   58 1   
    61   30   59 1   
    62   30   60 1   
    63   31   32 ar  
    64   32   33 ar  
    65   33   34 ar  
    66   33   61 1   
    67   34   62 1   
@<TRIPOS>SUBSTRUCTURE
     1 B36         1 TEMP              0 ****  ****    0 ROOT
