@<TRIPOS>MOLECULE
B36
   62    67     1     0     0
SMALL
bcc


@<TRIPOS>ATOM
      1 CBE        -0.0070    0.1750    0.0110 ca        1 B36     -0.003000
      2 CAK         1.4210    0.2710   -0.0780 ca        1 B36     -0.121000
      3 CAE         2.1840    0.4280    1.0420 ca        1 B36     -0.119500
      4 CAC         1.5750    0.5050    2.3280 ca        1 B36     -0.126000
      5 CAI         0.2190    0.4140    2.4540 ca        1 B36     -0.117000
      6 CBB        -0.6150    0.2420    1.3020 ca        1 B36     -0.040500
      7 CAP        -2.0050    0.1370    1.4180 ca        1 B36     -0.091000
      8 CBC        -2.8120   -0.0430    0.2910 ca        1 B36     -0.040500
      9 CAJ        -4.2360   -0.1620    0.4040 ca        1 B36     -0.117000
     10 CAD        -5.0110   -0.3500   -0.7020 ca        1 B36     -0.126000
     11 CAF        -4.4140   -0.4340   -1.9940 ca        1 B36     -0.119500
     12 CAL        -3.0620   -0.3200   -2.1410 ca        1 B36     -0.121000
     13 CBF        -2.2130   -0.1130   -1.0050 ca        1 B36     -0.003000
     14 CAZ        -0.8200    0.0130   -1.1230 ca        1 B36     -0.110600
     15 CAW        -0.1810   -0.0860   -2.4740 c         1 B36      0.664700
     16 OAB         0.2010   -1.1850   -2.9220 o         1 B36     -0.589100
     17 NBH        -0.0920    1.0660   -3.2540 n         1 B36     -0.454800
     18 CAT        -0.2690    2.3880   -2.6960 c3        1 B36      0.080000
     19 CAR         1.0280    3.1940   -2.5800 c3        1 B36     -0.102400
     20 CAS         0.6710    1.0370   -4.4870 c3        1 B36      0.080000
     21 CAQ         1.9880    1.8120   -4.4180 c3        1 B36     -0.102400
     22 CBG         1.7640    3.2280   -3.9120 c3        1 B36     -0.061700
     23 CAU         3.0820    3.9790   -3.7640 c3        1 B36     -0.035100
     24 CAY         3.6800    4.3380   -5.0790 ca        1 B36     -0.077300
     25 CAO         3.3460    5.5160   -5.7120 ca        1 B36     -0.110000
     26 CBA         3.9260    5.8590   -6.9570 ca        1 B36     -0.149300
     27 CAM         3.6010    7.0680   -7.6380 ca        1 B36     -0.080000
     28 CAG         4.1970    7.3450   -8.8390 ca        1 B36     -0.249300
     29 CAX         5.1390    6.4060   -9.3880 ca        1 B36      0.429600
     30 CAA         5.7550    6.7660  -10.7030 c3        1 B36     -0.153400
     31 NAV         5.4670    5.2690   -8.7820 nb        1 B36     -0.661000
     32 CBD         4.8710    4.9810   -7.5700 ca        1 B36      0.400600
     33 CAN         5.2020    3.7640   -6.8890 ca        1 B36     -0.165300
     34 CAH         4.6200    3.4630   -5.6850 ca        1 B36     -0.121000
     35 HAK         1.8850    0.1970   -1.0750 ha        1 B36      0.145000
     36 HAE         3.2800    0.4940    0.9740 ha        1 B36      0.135500
     37 HAC         2.2190    0.6340    3.2110 ha        1 B36      0.134500
     38 HAI        -0.2660    0.4650    3.4400 ha        1 B36      0.133500
     39 HAP        -2.4710    0.1920    2.4150 ha        1 B36      0.137000
     40 HAJ        -4.6810   -0.1020    1.4090 ha        1 B36      0.133500
     41 HAD        -6.1040   -0.4440   -0.6190 ha        1 B36      0.134500
     42 HAF        -5.0650   -0.5970   -2.8660 ha        1 B36      0.135500
     43 HAL        -2.5920   -0.3980   -3.1350 ha        1 B36      0.145000
     44 HAT        -0.7500    2.3200   -1.6800 h1        1 B36      0.062450
     45 HATA       -0.9770    2.9440   -3.3780 h1        1 B36      0.062450
     46 HAR         1.6880    2.7450   -1.7940 hc        1 B36      0.051950
     47 HARA        0.7690    4.2340   -2.2570 hc        1 B36      0.051950
     48 HAS         0.8840   -0.0320   -4.7710 h1        1 B36      0.062450
     49 HASA        0.0230    1.4940   -5.2890 h1        1 B36      0.062450
     50 HAQ         2.7080    1.2780   -3.7440 hc        1 B36      0.051950
     51 HAQA        2.4410    1.8430   -5.4420 hc        1 B36      0.051950
     52 HBG         1.1220    3.7760   -4.6590 hc        1 B36      0.055700
     53 HAU         2.8980    4.9170   -3.1710 hc        1 B36      0.050700
     54 HAUA        3.8030    3.3510   -3.1750 hc        1 B36      0.050700
     55 HAO         2.6210    6.2100   -5.2590 ha        1 B36      0.133000
     56 HAM         2.8760    7.7580   -7.1830 ha        1 B36      0.137000
     57 HAG         3.9770    8.2640   -9.3980 ha        1 B36      0.142000
     58 HAA         6.4750    5.9920  -11.0650 hc        1 B36      0.055367
     59 HAAA        6.2990    7.7380  -10.6000 hc        1 B36      0.055367
     60 HAAB        4.9470    6.8870  -11.4660 hc        1 B36      0.055367
     61 HAN         5.9300    3.0770   -7.3490 ha        1 B36      0.151000
     62 HAH         4.8750    2.5250   -5.1670 ha        1 B36      0.136000
@<TRIPOS>BOND
     1    1    2 ar  
     2    1    6 ar  
     3    1   14 ar  
     4    2    3 ar  
     5    2   35 1   
     6    3    4 ar  
     7    3   36 1   
     8    4    5 ar  
     9    4   37 1   
    10    5    6 ar  
    11    5   38 1   
    12    6    7 ar  
    13    7    8 ar  
    14    7   39 1   
    15    8    9 ar  
    16    8   13 ar  
    17    9   10 ar  
    18    9   40 1   
    19   10   11 ar  
    20   10   41 1   
    21   11   12 ar  
    22   11   42 1   
    23   12   13 ar  
    24   12   43 1   
    25   13   14 ar  
    26   14   15 1   
    27   15   16 2   
    28   15   17 1   
    29   17   18 1   
    30   17   20 1   
    31   18   19 1   
    32   18   44 1   
    33   18   45 1   
    34   19   22 1   
    35   19   46 1   
    36   19   47 1   
    37   20   21 1   
    38   20   48 1   
    39   20   49 1   
    40   21   22 1   
    41   21   50 1   
    42   21   51 1   
    43   22   23 1   
    44   22   52 1   
    45   23   24 1   
    46   23   53 1   
    47   23   54 1   
    48   24   25 ar  
    49   24   34 ar  
    50   25   26 ar  
    51   25   55 1   
    52   26   27 ar  
    53   26   32 ar  
    54   27   28 ar  
    55   27   56 1   
    56   28   29 ar  
    57   28   57 1   
    58   29   30 1   
    59   29   31 ar  
    60   30   58 1   
    61   30   59 1   
    62   30   60 1   
    63   31   32 ar  
    64   32   33 ar  
    65   33   34 ar  
    66   33   61 1   
    67   34   62 1   
@<TRIPOS>SUBSTRUCTURE
     1 B36         1 TEMP              0 ****  ****    0 ROOT
