@<TRIPOS>MOLECULE
B36
   62    67     1     0     0
SMALL
bcc


@<TRIPOS>ATOM
      1 CBE        -0.0080    0.1740    0.0080 ca        1 B36     -0.003000
      2 CAK         1.4190    0.2660   -0.0840 ca        1 B36     -0.121000
      3 CAE         2.1850    0.4200    1.0360 ca        1 B36     -0.119500
      4 CAC         1.5780    0.4960    2.3230 ca        1 B36     -0.126000
      5 CAI         0.2230    0.4080    2.4510 ca        1 B36     -0.117000
      6 CBB        -0.6150    0.2410    1.3000 ca        1 B36     -0.040500
      7 CAP        -2.0040    0.1390    1.4190 ca        1 B36     -0.091000
      8 CBC        -2.8140   -0.0370    0.2920 ca        1 B36     -0.040500
      9 CAJ        -4.2370   -0.1520    0.4080 ca        1 B36     -0.117000
     10 CAD        -5.0160   -0.3360   -0.6970 ca        1 B36     -0.126000
     11 CAF        -4.4210   -0.4190   -1.9900 ca        1 B36     -0.119500
     12 CAL        -3.0690   -0.3090   -2.1400 ca        1 B36     -0.121000
     13 CBF        -2.2170   -0.1070   -1.0040 ca        1 B36     -0.003000
     14 CAZ        -0.8240    0.0160   -1.1240 ca        1 B36     -0.110600
     15 CAW        -0.1880   -0.0820   -2.4770 c         1 B36      0.664700
     16 OAB         0.1900   -1.1820   -2.9270 o         1 B36     -0.589100
     17 NBH        -0.0970    1.0710   -3.2560 n         1 B36     -0.454800
     18 CAT        -0.2680    2.3920   -2.6940 c3        1 B36      0.080000
     19 CAR         1.0320    3.1930   -2.5790 c3        1 B36     -0.102400
     20 CAS         0.6650    1.0410   -4.4900 c3        1 B36      0.080000
     21 CAQ         1.9840    1.8110   -4.4200 c3        1 B36     -0.102400
     22 CBG         1.7660    3.2270   -3.9110 c3        1 B36     -0.061700
     23 CAU         3.0870    3.9730   -3.7630 c3        1 B36     -0.035100
     24 CAY         3.6850    4.3330   -5.0780 ca        1 B36     -0.077300
     25 CAO         3.3540    5.5140   -5.7080 ca        1 B36     -0.110000
     26 CBA         3.9350    5.8580   -6.9530 ca        1 B36     -0.149300
     27 CAM         3.6140    7.0710   -7.6290 ca        1 B36     -0.080000
     28 CAG         4.2090    7.3490   -8.8300 ca        1 B36     -0.249300
     29 CAX         5.1470    6.4070   -9.3840 ca        1 B36      0.429600
     30 CAA         5.7620    6.7690  -10.6990 c3        1 B36     -0.153400
     31 NAV         5.4700    5.2680   -8.7820 nb        1 B36     -0.661000
     32 CBD         4.8750    4.9780   -7.5690 ca        1 B36      0.400600
     33 CAN         5.2010    3.7580   -6.8930 ca        1 B36     -0.165300
     34 CAH         4.6200    3.4550   -5.6890 ca        1 B36     -0.121000
     35 HAK         1.8820    0.1930   -1.0810 ha        1 B36      0.145000
     36 HAE         3.2810    0.4830    0.9650 ha        1 B36      0.135500
     37 HAC         2.2240    0.6220    3.2040 ha        1 B36      0.134500
     38 HAI        -0.2610    0.4600    3.4380 ha        1 B36      0.133500
     39 HAP        -2.4680    0.1940    2.4170 ha        1 B36      0.137000
     40 HAJ        -4.6810   -0.0920    1.4140 ha        1 B36      0.133500
     41 HAD        -6.1090   -0.4270   -0.6120 ha        1 B36      0.134500
     42 HAF        -5.0740   -0.5790   -2.8610 ha        1 B36      0.135500
     43 HAL        -2.6010   -0.3870   -3.1340 ha        1 B36      0.145000
     44 HAT        -0.9750    2.9520   -3.3750 h1        1 B36      0.062450
     45 HATA       -0.7480    2.3240   -1.6780 h1        1 B36      0.062450
     46 HAR         0.7770    4.2340   -2.2530 hc        1 B36      0.051950
     47 HARA        1.6920    2.7400   -1.7940 hc        1 B36      0.051950
     48 HAS         0.8730   -0.0280   -4.7760 h1        1 B36      0.062450
     49 HASA        0.0170    1.5020   -5.2900 h1        1 B36      0.062450
     50 HAQ         2.4360    1.8430   -5.4460 hc        1 B36      0.051950
     51 HAQA        2.7040    1.2730   -3.7490 hc        1 B36      0.051950
     52 HBG         1.1250    3.7790   -4.6560 hc        1 B36      0.055700
     53 HAU         3.8070    3.3410   -3.1780 hc        1 B36      0.050700
     54 HAUA        2.9070    4.9100   -3.1680 hc        1 B36      0.050700
     55 HAO         2.6340    6.2100   -5.2510 ha        1 B36      0.133000
     56 HAM         2.8920    7.7630   -7.1710 ha        1 B36      0.137000
     57 HAG         3.9920    8.2710   -9.3860 ha        1 B36      0.142000
     58 HAA         4.9530    6.8940  -11.4600 hc        1 B36      0.055367
     59 HAAA        6.4770    5.9920  -11.0630 hc        1 B36      0.055367
     60 HAAB        6.3100    7.7380  -10.5930 hc        1 B36      0.055367
     61 HAN         5.9250    3.0690   -7.3560 ha        1 B36      0.151000
     62 HAH         4.8720    2.5150   -5.1730 ha        1 B36      0.136000
@<TRIPOS>BOND
     1    1    2 ar  
     2    1    6 ar  
     3    1   14 ar  
     4    2    3 ar  
     5    2   35 1   
     6    3    4 ar  
     7    3   36 1   
     8    4    5 ar  
     9    4   37 1   
    10    5    6 ar  
    11    5   38 1   
    12    6    7 ar  
    13    7    8 ar  
    14    7   39 1   
    15    8    9 ar  
    16    8   13 ar  
    17    9   10 ar  
    18    9   40 1   
    19   10   11 ar  
    20   10   41 1   
    21   11   12 ar  
    22   11   42 1   
    23   12   13 ar  
    24   12   43 1   
    25   13   14 ar  
    26   14   15 1   
    27   15   16 2   
    28   15   17 1   
    29   17   18 1   
    30   17   20 1   
    31   18   19 1   
    32   18   44 1   
    33   18   45 1   
    34   19   22 1   
    35   19   46 1   
    36   19   47 1   
    37   20   21 1   
    38   20   48 1   
    39   20   49 1   
    40   21   22 1   
    41   21   50 1   
    42   21   51 1   
    43   22   23 1   
    44   22   52 1   
    45   23   24 1   
    46   23   53 1   
    47   23   54 1   
    48   24   25 ar  
    49   24   34 ar  
    50   25   26 ar  
    51   25   55 1   
    52   26   27 ar  
    53   26   32 ar  
    54   27   28 ar  
    55   27   56 1   
    56   28   29 ar  
    57   28   57 1   
    58   29   30 1   
    59   29   31 ar  
    60   30   58 1   
    61   30   59 1   
    62   30   60 1   
    63   31   32 ar  
    64   32   33 ar  
    65   33   34 ar  
    66   33   61 1   
    67   34   62 1   
@<TRIPOS>SUBSTRUCTURE
     1 B36         1 TEMP              0 ****  ****    0 ROOT
