@<TRIPOS>MOLECULE
B36
   62    57     1     0     0
SMALL
bcc


@<TRIPOS>ATOM
      1 CBE        -1.0460   -2.8990    3.6200 c1        1 B36     -0.003000
      2 CAK         0.3350   -2.7480    3.8350 c1        1 B36     -0.123100
      3 CAE         0.8340   -2.6900    5.1310 c1        1 B36     -0.123100
      4 CAC        -0.0330   -2.7820    6.2170 c1        1 B36     -0.123100
      5 CAI        -1.3990   -2.9310    6.0060 c1        1 B36     -0.123100
      6 CBB        -1.9060   -2.9900    4.6960 c1        1 B36     -0.040500
      7 CAP        -3.2900   -3.1500    4.4810 c2        1 B36     -0.091000
      8 CBC        -3.7970   -3.2180    3.1660 c1        1 B36     -0.040500
      9 CAJ        -5.1740   -3.4170    2.9520 c1        1 B36     -0.123100
     10 CAD        -5.6680   -3.5220    1.6570 c1        1 B36     -0.123100
     11 CAF        -4.8000   -3.4300    0.5700 c1        1 B36     -0.123100
     12 CAL        -3.4390   -3.2340    0.7800 c1        1 B36     -0.123100
     13 CBF        -2.9380   -3.1270    2.0910 c1        1 B36     -0.003000
     14 CAZ        -1.5530   -2.9670    2.3060 c2        1 B36     -0.090000
     15 CAW        -0.5730   -3.0610    1.1490 c2        1 B36      0.338000
     16 OAB        -0.0900   -4.1350    0.8500 o         1 B36     -0.350000
     17 NBH        -0.3150   -1.9170    0.3430 n         1 B36     -0.313000
     18 CAT        -0.8610   -0.5960    0.6400 c3        1 B36     -0.036000
     19 CAR         0.2100    0.4750    0.6680 c3        1 B36     -0.181000
     20 CAS         0.5190   -1.9610   -0.8570 c3        1 B36     -0.036000
     21 CAQ         1.6020   -0.9020   -0.8420 c3        1 B36     -0.181000
     22 CBG         1.0580    0.4570   -0.5590 c3        1 B36     -0.101000
     23 CAU         2.2450    1.4460   -0.3680 c3        1 B36     -0.121000
     24 CAY         2.3700    2.3320   -1.5950 c2        1 B36     -0.070000
     25 CAO         1.4840    3.3020   -2.0440 c2        1 B36     -0.110000
     26 CBA         1.7940    4.0660   -3.1880 c1        1 B36     -0.084000
     27 CAM         0.8950    5.0120   -3.6570 c1        1 B36     -0.123100
     28 CAG         1.1840    5.7280   -4.7860 c1        1 B36     -0.123100
     29 CAX         2.3800    5.5070   -5.4630 c1        1 B36      0.007000
     30 CAA         2.6430    6.1660   -6.8010 c3        1 B36     -0.177000
     31 NAV         3.2650    4.5760   -5.0010 n1        1 B36     -0.135000
     32 CBD         2.9750    3.8500   -3.8580 c1        1 B36      0.007000
     33 CAN         3.8740    2.8640   -3.4010 c1        1 B36     -0.100000
     34 CAH         3.5660    2.1120   -2.2740 c1        1 B36     -0.121000
     35 HAK         0.9440   -2.6840    3.0740 ha        1 B36      0.137600
     36 HAE         1.7920   -2.5860    5.2800 ha        1 B36      0.137600
     37 HAC         0.3180   -2.7400    7.1280 ha        1 B36      0.137600
     38 HAI        -2.0060   -2.9950    6.7670 ha        1 B36      0.137600
     39 HAP        -3.8990   -3.2070    5.2420 ha        1 B36      0.137000
     40 HAJ        -5.7820   -3.4810    3.7130 ha        1 B36      0.137600
     41 HAD        -6.6230   -3.6600    1.5090 ha        1 B36      0.137600
     42 HAF        -5.1470   -3.5040   -0.3400 ha        1 B36      0.137600
     43 HAL        -2.8320   -3.1700    0.0180 ha        1 B36      0.137600
     44 HAT        -1.5220   -0.3660   -0.0420 h1        1 B36      0.101750
     45 HATA       -1.3030   -0.6250    1.5130 h1        1 B36      0.101750
     46 HAR        -0.2190    1.3500    0.7440 hc        1 B36      0.091250
     47 HARA        0.7810    0.3320    1.4500 hc        1 B36      0.091250
     48 HAS         0.9390   -2.8430   -0.9190 h1        1 B36      0.101750
     49 HASA       -0.0470   -1.8240   -1.6410 h1        1 B36      0.101750
     50 HAQ         2.0460   -0.8910   -1.7130 hc        1 B36      0.091250
     51 HAQA        2.2580   -1.1300   -0.1550 hc        1 B36      0.091250
     52 HBG         0.5200    0.7490   -1.3210 hc        1 B36      0.095000
     53 HAU         2.0820    2.0020    0.4190 hc        1 B36      0.090000
     54 HAUA        3.0730    0.9420   -0.2440 hc        1 B36      0.090000
     55 HAO         0.6640    3.4810   -1.5470 ha        1 B36      0.133000
     56 HAM         0.0560    5.1670   -3.1820 ha        1 B36      0.137600
     57 HAG         0.5450    6.3850   -5.1250 ha        1 B36      0.137600
     58 HAA         3.6020    6.3510   -6.8920 hc        1 B36      0.094667
     59 HAAA        2.1410    7.0090   -6.8560 hc        1 B36      0.094667
     60 HAAB        2.3550    5.5670   -7.5230 hc        1 B36      0.094667
     61 HAN         4.7130    2.7100   -3.8770 ha        1 B36      0.151000
     62 HAH         4.1990    1.4450   -1.9440 ha        1 B36      0.136000
@<TRIPOS>BOND
     1    1    6 1   
     2    1   14 1   
     3    2    3 1   
     4    2   35 1   
     5    3   36 1   
     6    4    5 1   
     7    4   37 1   
     8    5   38 1   
     9    6    7 1   
    10    7    8 1   
    11    7   39 1   
    12    8   13 1   
    13    9   10 1   
    14    9   40 1   
    15   10   41 1   
    16   11   12 1   
    17   11   42 1   
    18   12   43 1   
    19   13   14 1   
    20   14   15 1   
    21   15   16 1   
    22   15   17 1   
    23   17   18 1   
    24   17   20 1   
    25   18   19 1   
    26   18   44 1   
    27   18   45 1   
    28   19   22 1   
    29   19   46 1   
    30   19   47 1   
    31   20   21 1   
    32   20   48 1   
    33   20   49 1   
    34   21   22 1   
    35   21   50 1   
    36   21   51 1   
    37   22   23 1   
    38   22   52 1   
    39   23   24 1   
    40   23   53 1   
    41   23   54 1   
    42   24   25 1   
    43   24   34 1   
    44   25   26 1   
    45   25   55 1   
    46   26   32 1   
    47   27   28 1   
    48   27   56 1   
    49   28   57 1   
    50   29   30 1   
    51   29   31 1   
    52   30   58 1   
    53   30   59 1   
    54   30   60 1   
    55   32   33 1   
    56   33   61 1   
    57   34   62 1   
@<TRIPOS>SUBSTRUCTURE
     1 B36         1 TEMP              0 ****  ****    0 ROOT
