@<TRIPOS>MOLECULE
B36
   62    67     1     0     0
SMALL
bcc


@<TRIPOS>ATOM
      1 CBE        -0.0070    0.1750    0.0080 ca        1 B36     -0.003000
      2 CAK         1.4210    0.2670   -0.0850 ca        1 B36     -0.121000
      3 CAE         2.1880    0.4210    1.0330 ca        1 B36     -0.119500
      4 CAC         1.5820    0.4970    2.3210 ca        1 B36     -0.126000
      5 CAI         0.2270    0.4090    2.4510 ca        1 B36     -0.117000
      6 CBB        -0.6120    0.2420    1.3010 ca        1 B36     -0.040500
      7 CAP        -2.0010    0.1400    1.4220 ca        1 B36     -0.091000
      8 CBC        -2.8120   -0.0360    0.2960 ca        1 B36     -0.040500
      9 CAJ        -4.2360   -0.1520    0.4140 ca        1 B36     -0.117000
     10 CAD        -5.0160   -0.3360   -0.6910 ca        1 B36     -0.126000
     11 CAF        -4.4230   -0.4190   -1.9840 ca        1 B36     -0.119500
     12 CAL        -3.0710   -0.3090   -2.1360 ca        1 B36     -0.121000
     13 CBF        -2.2170   -0.1060   -1.0020 ca        1 B36     -0.003000
     14 CAZ        -0.8240    0.0170   -1.1230 ca        1 B36     -0.110600
     15 CAW        -0.1890   -0.0820   -2.4760 c         1 B36      0.664700
     16 OAB         0.1880   -1.1810   -2.9270 o         1 B36     -0.589100
     17 NBH        -0.0990    1.0710   -3.2550 n         1 B36     -0.454800
     18 CAT        -0.2700    2.3930   -2.6940 c3        1 B36      0.080000
     19 CAR         1.0300    3.1930   -2.5800 c3        1 B36     -0.102400
     20 CAS         0.6610    1.0420   -4.4900 c3        1 B36      0.080000
     21 CAQ         1.9810    1.8110   -4.4220 c3        1 B36     -0.102400
     22 CBG         1.7640    3.2270   -3.9120 c3        1 B36     -0.061700
     23 CAU         3.0850    3.9720   -3.7650 c3        1 B36     -0.035100
     24 CAY         3.6830    4.3320   -5.0800 ca        1 B36     -0.077300
     25 CAO         3.3520    5.5120   -5.7110 ca        1 B36     -0.110000
     26 CBA         3.9320    5.8550   -6.9560 ca        1 B36     -0.149300
     27 CAM         3.6110    7.0670   -7.6330 ca        1 B36     -0.080000
     28 CAG         4.2060    7.3450   -8.8350 ca        1 B36     -0.249300
     29 CAX         5.1440    6.4030   -9.3880 ca        1 B36      0.429600
     30 CAA         5.7590    6.7630  -10.7030 c3        1 B36     -0.153400
     31 NAV         5.4670    5.2630   -8.7850 nb        1 B36     -0.661000
     32 CBD         4.8720    4.9750   -7.5720 ca        1 B36      0.400600
     33 CAN         5.1980    3.7550   -6.8950 ca        1 B36     -0.165300
     34 CAH         4.6170    3.4530   -5.6910 ca        1 B36     -0.121000
     35 HAK         1.8820    0.1940   -1.0840 ha        1 B36      0.145000
     36 HAE         3.2840    0.4840    0.9610 ha        1 B36      0.135500
     37 HAC         2.2290    0.6230    3.2020 ha        1 B36      0.134500
     38 HAI        -0.2550    0.4610    3.4390 ha        1 B36      0.133500
     39 HAP        -2.4640    0.1940    2.4200 ha        1 B36      0.137000
     40 HAJ        -4.6780   -0.0920    1.4200 ha        1 B36      0.133500
     41 HAD        -6.1080   -0.4270   -0.6040 ha        1 B36      0.134500
     42 HAF        -5.0760   -0.5790   -2.8540 ha        1 B36      0.135500
     43 HAL        -2.6040   -0.3870   -3.1310 ha        1 B36      0.145000
     44 HAT        -0.9770    2.9520   -3.3740 h1        1 B36      0.062450
     45 HATA       -0.7500    2.3250   -1.6780 h1        1 B36      0.062450
     46 HAR         1.6910    2.7400   -1.7950 hc        1 B36      0.051950
     47 HARA        0.7760    4.2340   -2.2540 hc        1 B36      0.051950
     48 HAS         0.0130    1.5030   -5.2900 h1        1 B36      0.062450
     49 HASA        0.8690   -0.0280   -4.7770 h1        1 B36      0.062450
     50 HAQ         2.4320    1.8430   -5.4470 hc        1 B36      0.051950
     51 HAQA        2.7010    1.2730   -3.7510 hc        1 B36      0.051950
     52 HBG         1.1230    3.7790   -4.6570 hc        1 B36      0.055700
     53 HAU         2.9060    4.9100   -3.1710 hc        1 B36      0.050700
     54 HAUA        3.8050    3.3400   -3.1790 hc        1 B36      0.050700
     55 HAO         2.6320    6.2080   -5.2540 ha        1 B36      0.133000
     56 HAM         2.8900    7.7600   -7.1750 ha        1 B36      0.137000
     57 HAG         3.9890    8.2660   -9.3910 ha        1 B36      0.142000
     58 HAA         6.4740    5.9860  -11.0670 hc        1 B36      0.055367
     59 HAAA        4.9490    6.8890  -11.4640 hc        1 B36      0.055367
     60 HAAB        6.3070    7.7320  -10.5980 hc        1 B36      0.055367
     61 HAN         5.9220    3.0660   -7.3580 ha        1 B36      0.151000
     62 HAH         4.8690    2.5130   -5.1750 ha        1 B36      0.136000
@<TRIPOS>BOND
     1    1    2 ar  
     2    1    6 ar  
     3    1   14 ar  
     4    2    3 ar  
     5    2   35 1   
     6    3    4 ar  
     7    3   36 1   
     8    4    5 ar  
     9    4   37 1   
    10    5    6 ar  
    11    5   38 1   
    12    6    7 ar  
    13    7    8 ar  
    14    7   39 1   
    15    8    9 ar  
    16    8   13 ar  
    17    9   10 ar  
    18    9   40 1   
    19   10   11 ar  
    20   10   41 1   
    21   11   12 ar  
    22   11   42 1   
    23   12   13 ar  
    24   12   43 1   
    25   13   14 ar  
    26   14   15 1   
    27   15   16 2   
    28   15   17 1   
    29   17   18 1   
    30   17   20 1   
    31   18   19 1   
    32   18   44 1   
    33   18   45 1   
    34   19   22 1   
    35   19   46 1   
    36   19   47 1   
    37   20   21 1   
    38   20   48 1   
    39   20   49 1   
    40   21   22 1   
    41   21   50 1   
    42   21   51 1   
    43   22   23 1   
    44   22   52 1   
    45   23   24 1   
    46   23   53 1   
    47   23   54 1   
    48   24   25 ar  
    49   24   34 ar  
    50   25   26 ar  
    51   25   55 1   
    52   26   27 ar  
    53   26   32 ar  
    54   27   28 ar  
    55   27   56 1   
    56   28   29 ar  
    57   28   57 1   
    58   29   30 1   
    59   29   31 ar  
    60   30   58 1   
    61   30   59 1   
    62   30   60 1   
    63   31   32 ar  
    64   32   33 ar  
    65   33   34 ar  
    66   33   61 1   
    67   34   62 1   
@<TRIPOS>SUBSTRUCTURE
     1 B36         1 TEMP              0 ****  ****    0 ROOT
