@<TRIPOS>MOLECULE
B37
   65    70     1     0     0
SMALL
bcc


@<TRIPOS>ATOM
      1 C4         -0.3170    0.1410   -0.1450 ca        1 B37      0.400600
      2 C6         -0.1750   -0.2670   -2.4300 ca        1 B37      0.429600
      3 C10         0.8420    0.1850    2.4420 ca        1 B37     -0.078300
      4 C20         1.4190    0.2080    3.8150 c3        1 B37     -0.034100
      5 C21         2.1160    1.5260    4.1300 c3        1 B37     -0.061700
      6 C24         1.1110    2.6520    4.3200 c3        1 B37     -0.101900
      7 C28         2.9740    1.3790    5.3770 c3        1 B37     -0.101900
      8 C1          1.1990   -0.6810   -2.3080 ca        1 B37     -0.249300
      9 C2          1.7920   -0.6720   -1.0750 ca        1 B37     -0.080000
     10 C3          1.0400   -0.2540    0.0610 ca        1 B37     -0.149300
     11 N5         -0.9070    0.1290   -1.3940 nb        1 B37     -0.661000
     12 C9          1.5960   -0.2230    1.3630 ca        1 B37     -0.110000
     13 C11        -0.5080    0.5790    2.2410 ca        1 B37     -0.121000
     14 C12        -1.0780    0.5610    0.9940 ca        1 B37     -0.164300
     15 C16        -0.7650   -0.2990   -3.8040 c3        1 B37     -0.153400
     16 C25         1.8110    3.9530    4.7140 c3        1 B37      0.079500
     17 N26         2.7100    3.8210    5.8460 n         1 B37     -0.451800
     18 C27         3.6320    2.7110    5.7470 c3        1 B37      0.079500
     19 C38         2.3490    4.3740    7.0730 c         1 B37      0.660700
     20 C39         3.2500    4.1510    8.2470 ca        1 B37     -0.078600
     21 C40         2.7830    3.3970    9.3640 ca        1 B37     -0.124300
     22 C41         3.6730    3.2430   10.4730 ca        1 B37      0.397600
     23 N42         4.9320    3.8060   10.4980 nb        1 B37     -0.645000
     24 C43         5.3280    4.5160    9.4430 cp        1 B37      0.475800
     25 C44         4.5040    4.7110    8.2790 ca        1 B37     -0.209300
     26 C46         1.4900    2.8160    9.4160 ca        1 B37     -0.109000
     27 C47         1.0960    2.0910   10.5140 ca        1 B37     -0.123000
     28 C48         1.9760    1.9170   11.6080 ca        1 B37     -0.121000
     29 C49         3.2290    2.4740   11.6000 ca        1 B37     -0.166300
     30 C54         6.6650    5.1410    9.4440 cp        1 B37     -0.153500
     31 C55         7.4490    5.1070    8.2830 ca        1 B37     -0.101000
     32 C56         8.7070    5.7060    8.2730 ca        1 B37     -0.135500
     33 C57         9.1910    6.3410    9.4180 ca        1 B37     -0.118000
     34 C58         8.4150    6.3710   10.5760 ca        1 B37     -0.135500
     35 C59         7.1560    5.7710   10.5940 ca        1 B37     -0.101000
     36 O65         1.3460    5.1070    7.1740 o         1 B37     -0.585100
     37 H20         2.1630   -0.6280    3.9180 hc        1 B37      0.051200
     38 H20A        0.6090    0.0260    4.5710 hc        1 B37      0.051200
     39 H21         2.7880    1.7900    3.2650 hc        1 B37      0.055700
     40 H24         0.5490    2.8210    3.3650 hc        1 B37      0.053450
     41 H24A        0.3660    2.3660    5.1070 hc        1 B37      0.053450
     42 H28         3.7830    0.6250    5.2000 hc        1 B37      0.053450
     43 H28A        2.3440    1.0110    6.2280 hc        1 B37      0.053450
     44 H1          1.7400   -0.9950   -3.2110 ha        1 B37      0.143000
     45 H2          2.8390   -0.9810   -0.9380 ha        1 B37      0.137000
     46 H9          2.6430   -0.5350    1.4970 ha        1 B37      0.133000
     47 H11        -1.0960    0.9040    3.1140 ha        1 B37      0.136000
     48 H12        -2.1260    0.8670    0.8510 ha        1 B37      0.151000
     49 H16        -0.1710    0.3710   -4.4740 hc        1 B37      0.055700
     50 H16A       -1.8310    0.0360   -3.8190 hc        1 B37      0.055700
     51 H16B       -0.7130   -1.3430   -4.2010 hc        1 B37      0.055700
     52 H25         1.0350    4.7370    4.9410 h1        1 B37      0.061700
     53 H25A        2.4320    4.3100    3.8420 h1        1 B37      0.061700
     54 H27         4.3800    2.9750    4.9420 h1        1 B37      0.061700
     55 H27A        4.1950    2.5850    6.7130 h1        1 B37      0.061700
     56 H44         4.8880    5.3160    7.4450 ha        1 B37      0.158000
     57 H46         0.8060    2.9780    8.5680 ha        1 B37      0.148000
     58 H47         0.0920    1.6430   10.5570 ha        1 B37      0.138000
     59 H48         1.6370    1.3290   12.4750 ha        1 B37      0.137000
     60 H49         3.9100    2.3440   12.4560 ha        1 B37      0.152000
     61 H55         7.0760    4.6010    7.3810 ha        1 B37      0.140500
     62 H56         9.3190    5.6760    7.3600 ha        1 B37      0.134000
     63 H57        10.1830    6.8140    9.4060 ha        1 B37      0.133000
     64 H58         8.7960    6.8680   11.4800 ha        1 B37      0.134000
     65 H59         6.5510    5.7930   11.5130 ha        1 B37      0.140500
@<TRIPOS>BOND
     1    1   10 ar  
     2    1   11 ar  
     3    1   14 ar  
     4    2    8 ar  
     5    2   11 ar  
     6    2   15 1   
     7    3    4 1   
     8    3   12 ar  
     9    3   13 ar  
    10    4    5 1   
    11    4   37 1   
    12    4   38 1   
    13    5    6 1   
    14    5    7 1   
    15    5   39 1   
    16    6   16 1   
    17    6   40 1   
    18    6   41 1   
    19    7   18 1   
    20    7   42 1   
    21    7   43 1   
    22    8    9 ar  
    23    8   44 1   
    24    9   10 ar  
    25    9   45 1   
    26   10   12 ar  
    27   12   46 1   
    28   13   14 ar  
    29   13   47 1   
    30   14   48 1   
    31   15   49 1   
    32   15   50 1   
    33   15   51 1   
    34   16   17 1   
    35   16   52 1   
    36   16   53 1   
    37   17   18 1   
    38   17   19 1   
    39   18   54 1   
    40   18   55 1   
    41   19   20 1   
    42   19   36 2   
    43   20   21 ar  
    44   20   25 ar  
    45   21   22 ar  
    46   21   26 ar  
    47   22   23 ar  
    48   22   29 ar  
    49   23   24 ar  
    50   24   25 ar  
    51   24   30 1   
    52   25   56 1   
    53   26   27 ar  
    54   26   57 1   
    55   27   28 ar  
    56   27   58 1   
    57   28   29 ar  
    58   28   59 1   
    59   29   60 1   
    60   30   31 ar  
    61   30   35 ar  
    62   31   32 ar  
    63   31   61 1   
    64   32   33 ar  
    65   32   62 1   
    66   33   34 ar  
    67   33   63 1   
    68   34   35 ar  
    69   34   64 1   
    70   35   65 1   
@<TRIPOS>SUBSTRUCTURE
     1 B37         1 TEMP              0 ****  ****    0 ROOT
