@<TRIPOS>MOLECULE
B37
   65    70     1     0     0
SMALL
bcc


@<TRIPOS>ATOM
      1 C4         -6.8740    0.5350   -0.1180 ca        1 B37      0.400600
      2 C6         -8.9180   -0.5610   -0.2890 ca        1 B37      0.429600
      3 C10        -4.2100    0.6760    0.8420 ca        1 B37     -0.078300
      4 C20        -2.8120    0.7850    1.3420 c3        1 B37     -0.034100
      5 C21        -1.8090    0.1160    0.4090 c3        1 B37     -0.061700
      6 C24        -1.6230    0.9170   -0.8700 c3        1 B37     -0.101900
      7 C28        -0.4710   -0.0530    1.1140 c3        1 B37     -0.101900
      8 C1         -8.4430   -1.6520    0.5210 ca        1 B37     -0.249300
      9 C2         -7.1620   -1.6190    1.0020 ca        1 B37     -0.080000
     10 C3         -6.3270   -0.5070    0.6920 ca        1 B37     -0.149300
     11 N5         -8.1680    0.4920   -0.5990 nb        1 B37     -0.661000
     12 C9         -4.9930   -0.4130    1.1590 ca        1 B37     -0.110000
     13 C11        -4.7510    1.7140    0.0370 ca        1 B37     -0.121000
     14 C12        -6.0380    1.6550   -0.4320 ca        1 B37     -0.164300
     15 C16       -10.3270   -0.6570   -0.7840 c3        1 B37     -0.153400
     16 C25        -0.5580    0.2840   -1.7660 c3        1 B37      0.079500
     17 N26         0.7010    0.0250   -1.0930 n         1 B37     -0.451800
     18 C27         0.5680   -0.6650    0.1710 c3        1 B37      0.079500
     19 C38         1.8110    0.8130   -1.3920 c         1 B37      0.660700
     20 C39         3.0740    0.5830   -0.6230 ca        1 B37     -0.078600
     21 C40         3.5840    1.6120    0.2250 ca        1 B37     -0.124300
     22 C41         4.8120    1.3520    0.9100 ca        1 B37      0.397600
     23 N42         5.5090    0.1720    0.7610 nb        1 B37     -0.645000
     24 C43         5.0110   -0.7590   -0.0510 cp        1 B37      0.475800
     25 C44         3.7750   -0.5890   -0.7690 ca        1 B37     -0.209300
     26 C46         2.9330    2.8600    0.4000 ca        1 B37     -0.109000
     27 C47         3.4620    3.8100    1.2370 ca        1 B37     -0.123000
     28 C48         4.6680    3.5560    1.9330 ca        1 B37     -0.121000
     29 C49         5.3330    2.3670    1.7800 ca        1 B37     -0.166300
     30 C54         5.7400   -2.0280   -0.2400 cp        1 B37     -0.153500
     31 C55         5.0320   -3.2370   -0.2810 ca        1 B37     -0.101000
     32 C56         5.7120   -4.4380   -0.4720 ca        1 B37     -0.135500
     33 C57         7.0990   -4.4420   -0.6230 ca        1 B37     -0.118000
     34 C58         7.8070   -3.2420   -0.5770 ca        1 B37     -0.135500
     35 C59         7.1330   -2.0360   -0.3830 ca        1 B37     -0.101000
     36 O65         1.7800    1.6310   -2.3320 o         1 B37     -0.585100
     37 H20        -2.5360    1.8660    1.4700 hc        1 B37      0.051200
     38 H20A       -2.7410    0.3020    2.3540 hc        1 B37      0.051200
     39 H21        -2.2000   -0.9050    0.1370 hc        1 B37      0.055700
     40 H24        -2.5910    0.9560   -1.4350 hc        1 B37      0.053450
     41 H24A       -1.3350    1.9710   -0.6190 hc        1 B37      0.053450
     42 H28        -0.1140    0.9400    1.4900 hc        1 B37      0.053450
     43 H28A       -0.5860   -0.7320    1.9970 hc        1 B37      0.053450
     44 H1         -9.1220   -2.4890    0.7350 ha        1 B37      0.143000
     45 H2         -6.7600   -2.4320    1.6250 ha        1 B37      0.137000
     46 H9         -4.5950   -1.2270    1.7840 ha        1 B37      0.133000
     47 H11        -4.1110    2.5760   -0.2080 ha        1 B37      0.136000
     48 H12        -6.4470    2.4670   -1.0540 ha        1 B37      0.151000
     49 H16       -11.0190   -0.7260    0.0910 hc        1 B37      0.055700
     50 H16A      -10.6220    0.2240   -1.4050 hc        1 B37      0.055700
     51 H16B      -10.4360   -1.5830   -1.4020 hc        1 B37      0.055700
     52 H25        -0.9410   -0.7090   -2.1410 h1        1 B37      0.061700
     53 H25A       -0.3770    0.9520   -2.6550 h1        1 B37      0.061700
     54 H27         1.5620   -0.7050    0.6990 h1        1 B37      0.061700
     55 H27A        0.2570   -1.7250   -0.0630 h1        1 B37      0.061700
     56 H44         3.4230   -1.3940   -1.4300 ha        1 B37      0.158000
     57 H46         2.0070    3.0540   -0.1660 ha        1 B37      0.148000
     58 H47         2.9610    4.7800    1.3700 ha        1 B37      0.138000
     59 H48         5.0700    4.3340    2.6010 ha        1 B37      0.137000
     60 H49         6.2750    2.1740    2.3170 ha        1 B37      0.152000
     61 H55         3.9390   -3.2400   -0.1540 ha        1 B37      0.140500
     62 H56         5.1520   -5.3850   -0.5020 ha        1 B37      0.134000
     63 H57         7.6330   -5.3920   -0.7750 ha        1 B37      0.133000
     64 H58         8.9010   -3.2430   -0.6930 ha        1 B37      0.134000
     65 H59         7.6970   -1.0920   -0.3410 ha        1 B37      0.140500
@<TRIPOS>BOND
     1    1   10 ar  
     2    1   11 ar  
     3    1   14 ar  
     4    2    8 ar  
     5    2   11 ar  
     6    2   15 1   
     7    3    4 1   
     8    3   12 ar  
     9    3   13 ar  
    10    4    5 1   
    11    4   37 1   
    12    4   38 1   
    13    5    6 1   
    14    5    7 1   
    15    5   39 1   
    16    6   16 1   
    17    6   40 1   
    18    6   41 1   
    19    7   18 1   
    20    7   42 1   
    21    7   43 1   
    22    8    9 ar  
    23    8   44 1   
    24    9   10 ar  
    25    9   45 1   
    26   10   12 ar  
    27   12   46 1   
    28   13   14 ar  
    29   13   47 1   
    30   14   48 1   
    31   15   49 1   
    32   15   50 1   
    33   15   51 1   
    34   16   17 1   
    35   16   52 1   
    36   16   53 1   
    37   17   18 1   
    38   17   19 1   
    39   18   54 1   
    40   18   55 1   
    41   19   20 1   
    42   19   36 2   
    43   20   21 ar  
    44   20   25 ar  
    45   21   22 ar  
    46   21   26 ar  
    47   22   23 ar  
    48   22   29 ar  
    49   23   24 ar  
    50   24   25 ar  
    51   24   30 1   
    52   25   56 1   
    53   26   27 ar  
    54   26   57 1   
    55   27   28 ar  
    56   27   58 1   
    57   28   29 ar  
    58   28   59 1   
    59   29   60 1   
    60   30   31 ar  
    61   30   35 ar  
    62   31   32 ar  
    63   31   61 1   
    64   32   33 ar  
    65   32   62 1   
    66   33   34 ar  
    67   33   63 1   
    68   34   35 ar  
    69   34   64 1   
    70   35   65 1   
@<TRIPOS>SUBSTRUCTURE
     1 B37         1 TEMP              0 ****  ****    0 ROOT
