@<TRIPOS>MOLECULE
B37
   65    70     1     0     0
SMALL
bcc


@<TRIPOS>ATOM
      1 C4         -0.3200    0.1400   -0.1430 ca        1 B37      0.400600
      2 C6         -0.1790   -0.2590   -2.4300 ca        1 B37      0.429600
      3 C10         0.8420    0.1830    2.4430 ca        1 B37     -0.078300
      4 C20         1.4210    0.2040    3.8140 c3        1 B37     -0.034100
      5 C21         2.1140    1.5240    4.1310 c3        1 B37     -0.061700
      6 C24         1.1050    2.6460    4.3270 c3        1 B37     -0.101900
      7 C28         2.9750    1.3780    5.3760 c3        1 B37     -0.101900
      8 C1          1.1970   -0.6670   -2.3110 ca        1 B37     -0.249300
      9 C2          1.7920   -0.6590   -1.0780 ca        1 B37     -0.080000
     10 C3          1.0390   -0.2480    0.0600 ca        1 B37     -0.149300
     11 N5         -0.9120    0.1290   -1.3910 nb        1 B37     -0.661000
     12 C9          1.5960   -0.2190    1.3610 ca        1 B37     -0.110000
     13 C11        -0.5100    0.5700    2.2450 ca        1 B37     -0.121000
     14 C12        -1.0810    0.5530    0.9990 ca        1 B37     -0.164300
     15 C16        -0.7710   -0.2900   -3.8030 c3        1 B37     -0.153400
     16 C25         1.8010    3.9480    4.7220 c3        1 B37      0.079500
     17 N26         2.7030    3.8170    5.8510 n         1 B37     -0.451800
     18 C27         3.6290    2.7110    5.7470 c3        1 B37      0.079500
     19 C38         2.3440    4.3670    7.0800 c         1 B37      0.660700
     20 C39         3.2500    4.1460    8.2510 ca        1 B37     -0.078600
     21 C40         2.7880    3.3920    9.3700 ca        1 B37     -0.124300
     22 C41         3.6830    3.2390   10.4760 ca        1 B37      0.397600
     23 N42         4.9400    3.8050   10.4960 nb        1 B37     -0.645000
     24 C43         5.3310    4.5160    9.4400 cp        1 B37      0.475800
     25 C44         4.5030    4.7090    8.2790 ca        1 B37     -0.210300
     26 C46         1.4970    2.8070    9.4270 ca        1 B37     -0.109000
     27 C47         1.1080    2.0820   10.5250 ca        1 B37     -0.123000
     28 C48         1.9920    1.9100   11.6170 ca        1 B37     -0.121000
     29 C49         3.2440    2.4700   11.6040 ca        1 B37     -0.166300
     30 C54         6.6660    5.1440    9.4360 cp        1 B37     -0.153500
     31 C55         7.4470    5.1120    8.2720 ca        1 B37     -0.101000
     32 C56         8.7030    5.7130    8.2570 ca        1 B37     -0.135500
     33 C57         9.1900    6.3490    9.4000 ca        1 B37     -0.118000
     34 C58         8.4180    6.3780   10.5610 ca        1 B37     -0.135500
     35 C59         7.1610    5.7750   10.5840 ca        1 B37     -0.101000
     36 O65         1.3380    5.0960    7.1850 o         1 B37     -0.585100
     37 H20         0.6130    0.0180    4.5720 hc        1 B37      0.051200
     38 H20A        2.1690   -0.6290    3.9140 hc        1 B37      0.051200
     39 H21         2.7830    1.7940    3.2650 hc        1 B37      0.055700
     40 H24         0.3630    2.3550    5.1150 hc        1 B37      0.053450
     41 H24A        0.5400    2.8150    3.3740 hc        1 B37      0.053450
     42 H28         3.7870    0.6270    5.1960 hc        1 B37      0.053450
     43 H28A        2.3490    1.0050    6.2270 hc        1 B37      0.053450
     44 H1          1.7380   -0.9760   -3.2150 ha        1 B37      0.143000
     45 H2          2.8400   -0.9630   -0.9440 ha        1 B37      0.137000
     46 H9          2.6460   -0.5260    1.4930 ha        1 B37      0.133000
     47 H11        -1.0990    0.8900    3.1190 ha        1 B37      0.136000
     48 H12        -2.1320    0.8540    0.8580 ha        1 B37      0.151000
     49 H16        -0.7150   -1.3320   -4.2030 hc        1 B37      0.055700
     50 H16A       -0.1810    0.3850   -4.4720 hc        1 B37      0.055700
     51 H16B       -1.8390    0.0400   -3.8160 hc        1 B37      0.055700
     52 H25         1.0220    4.7290    4.9530 h1        1 B37      0.061700
     53 H25A        2.4180    4.3100    3.8490 h1        1 B37      0.061700
     54 H27         4.1950    2.5850    6.7120 h1        1 B37      0.061700
     55 H27A        4.3740    2.9800    4.9410 h1        1 B37      0.061700
     56 H44         4.8820    5.3140    7.4430 ha        1 B37      0.158000
     57 H46         0.8090    2.9680    8.5810 ha        1 B37      0.148000
     58 H47         0.1050    1.6320   10.5730 ha        1 B37      0.138000
     59 H48         1.6570    1.3210   12.4850 ha        1 B37      0.137000
     60 H49         3.9280    2.3410   12.4580 ha        1 B37      0.152000
     61 H55         7.0710    4.6050    7.3710 ha        1 B37      0.140500
     62 H56         9.3120    5.6840    7.3420 ha        1 B37      0.134000
     63 H57        10.1810    6.8250    9.3850 ha        1 B37      0.133000
     64 H58         8.8010    6.8760   11.4640 ha        1 B37      0.134000
     65 H59         6.5580    5.7950   11.5050 ha        1 B37      0.140500
@<TRIPOS>BOND
     1    1   10 ar  
     2    1   11 ar  
     3    1   14 ar  
     4    2    8 ar  
     5    2   11 ar  
     6    2   15 1   
     7    3    4 1   
     8    3   12 ar  
     9    3   13 ar  
    10    4    5 1   
    11    4   37 1   
    12    4   38 1   
    13    5    6 1   
    14    5    7 1   
    15    5   39 1   
    16    6   16 1   
    17    6   40 1   
    18    6   41 1   
    19    7   18 1   
    20    7   42 1   
    21    7   43 1   
    22    8    9 ar  
    23    8   44 1   
    24    9   10 ar  
    25    9   45 1   
    26   10   12 ar  
    27   12   46 1   
    28   13   14 ar  
    29   13   47 1   
    30   14   48 1   
    31   15   49 1   
    32   15   50 1   
    33   15   51 1   
    34   16   17 1   
    35   16   52 1   
    36   16   53 1   
    37   17   18 1   
    38   17   19 1   
    39   18   54 1   
    40   18   55 1   
    41   19   20 1   
    42   19   36 2   
    43   20   21 ar  
    44   20   25 ar  
    45   21   22 ar  
    46   21   26 ar  
    47   22   23 ar  
    48   22   29 ar  
    49   23   24 ar  
    50   24   25 ar  
    51   24   30 1   
    52   25   56 1   
    53   26   27 ar  
    54   26   57 1   
    55   27   28 ar  
    56   27   58 1   
    57   28   29 ar  
    58   28   59 1   
    59   29   60 1   
    60   30   31 ar  
    61   30   35 ar  
    62   31   32 ar  
    63   31   61 1   
    64   32   33 ar  
    65   32   62 1   
    66   33   34 ar  
    67   33   63 1   
    68   34   35 ar  
    69   34   64 1   
    70   35   65 1   
@<TRIPOS>SUBSTRUCTURE
     1 B37         1 TEMP              0 ****  ****    0 ROOT
