@<TRIPOS>MOLECULE
B37
   65    57     1     0     0
SMALL
bcc


@<TRIPOS>ATOM
      1 C4         -2.7830   -0.4500   -6.4090 c1        1 B37      0.007000
      2 C6         -2.5520    0.0140   -8.7400 c1        1 B37      0.007000
      3 C10        -1.8350   -0.2650   -3.7820 c1        1 B37     -0.071000
      4 C20        -1.4390   -0.5430   -2.3260 c3        1 B37     -0.123000
      5 C21        -1.0420    0.7980   -1.6280 c3        1 B37     -0.098000
      6 C24        -2.0990    1.1630   -0.6410 c3        1 B37     -0.179000
      7 C28         0.2990    0.6290   -0.9780 c3        1 B37     -0.179000
      8 C1         -1.3290    0.6390   -8.4910 c1        1 B37     -0.141000
      9 C2         -0.8460    0.7140   -7.2110 c1        1 B37     -0.095000
     10 C3         -1.5750    0.1670   -6.1610 c1        1 B37     -0.084000
     11 N5         -3.2700   -0.5250   -7.7060 n2        1 B37     -0.135000
     12 C9         -1.0910    0.2630   -4.8370 c1        1 B37     -0.095000
     13 C11        -3.0580   -0.8900   -4.0350 c1        1 B37     -0.122000
     14 C12        -3.5360   -0.9850   -5.3390 c1        1 B37     -0.141000
     15 C16        -3.1060   -0.0100  -10.1570 c2        1 B37     -0.178000
     16 C25        -2.1310    0.2100    0.5490 c3        1 B37     -0.034500
     17 N26        -0.8080    0.0400    1.1630 n         1 B37     -0.312000
     18 C27         0.2470   -0.3190    0.2140 c3        1 B37     -0.034500
     19 C38        -0.5670    0.2150    2.5880 c2        1 B37      0.335000
     20 C39         0.8350   -0.0560    3.1730 c2        1 B37     -0.056000
     21 C40         1.6760   -1.0990    3.5570 c2        1 B37     -0.061000
     22 C41         2.8000   -0.8350    4.3130 c1        1 B37      0.005000
     23 N42         3.0930    0.4700    4.6900 n1        1 B37     -0.119000
     24 C43         2.2680    1.4950    4.3120 c1        1 B37      0.042000
     25 C44         1.1280    1.2310    3.5460 c1        1 B37     -0.148000
     26 C46         1.3100   -2.4350    3.2800 c1        1 B37     -0.107000
     27 C47         2.0850   -3.4860    3.7700 c1        1 B37     -0.120833
     28 C48         3.2230   -3.2180    4.5350 c1        1 B37     -0.120833
     29 C49         3.5850   -1.9020    4.8090 c1        1 B37     -0.101000
     30 C54         2.4950    1.5240    5.7020 c1        1 B37     -0.048000
     31 C55         3.5890    2.2140    6.2140 c1        1 B37     -0.120833
     32 C56         3.8560    2.1830    7.5790 c1        1 B37     -0.120833
     33 C57         3.0280    1.4620    8.4320 c1        1 B37     -0.120833
     34 C58         1.9340    0.7720    7.9220 c1        1 B37     -0.120833
     35 C59         1.6680    0.8030    6.5560 c1        1 B37     -0.112000
     36 O65        -1.4890    0.5150    3.3300 o         1 B37     -0.346000
     37 H20        -2.1980   -0.9470   -1.8520 hc        1 B37      0.090500
     38 H20A       -0.6750   -1.1610   -2.3070 hc        1 B37      0.090500
     39 H21        -0.9810    1.5070   -2.3070 hc        1 B37      0.094000
     40 H24        -1.9290    2.0750   -0.3150 hc        1 B37      0.093000
     41 H24A       -2.9750    1.1420   -1.0910 hc        1 B37      0.093000
     42 H28         0.9330    0.2730   -1.6420 hc        1 B37      0.093000
     43 H28A        0.6180    1.5080   -0.6720 hc        1 B37      0.093000
     44 H1         -0.8150    1.0240   -9.2320 ha        1 B37      0.147000
     45 H2          0.0140    1.1530   -7.0350 ha        1 B37      0.135000
     46 H9         -0.2060    0.6520   -4.6660 ha        1 B37      0.135000
     47 H11        -3.5640   -1.2920   -3.2980 ha        1 B37      0.135000
     48 H12        -4.3950   -1.4240   -5.5160 ha        1 B37      0.147000
     49 H16        -2.5030   -0.5260  -10.7360 ha        1 B37      0.095000
     50 H16A       -3.9950   -0.4290  -10.1540 ha        1 B37      0.095000
     51 H16B       -3.1790    0.9090  -10.4960 ha        1 B37      0.095000
     52 H25        -2.4560   -0.6670    0.2460 h1        1 B37      0.100250
     53 H25A       -2.7520    0.5650    1.2250 h1        1 B37      0.100250
     54 H27         0.0840   -1.2320   -0.1120 h1        1 B37      0.100250
     55 H27A        1.1120   -0.2960    0.6770 h1        1 B37      0.100250
     56 H44         0.5370    1.9660    3.2760 ha        1 B37      0.155000
     57 H46         0.5120   -2.6230    2.7440 ha        1 B37      0.148000
     58 H47         1.8310   -4.4140    3.5780 ha        1 B37      0.137500
     59 H48         3.7670   -3.9580    4.8790 ha        1 B37      0.137500
     60 H49         4.3840   -1.7140    5.3460 ha        1 B37      0.152000
     61 H55         4.1730    2.7220    5.6120 ha        1 B37      0.137500
     62 H56         4.6270    2.6690    7.9390 ha        1 B37      0.137500
     63 H57         3.2160    1.4400    9.3950 ha        1 B37      0.137500
     64 H58         1.3500    0.2630    8.5240 ha        1 B37      0.137500
     65 H59         0.8980    0.3170    6.1970 ha        1 B37      0.139000
@<TRIPOS>BOND
     1    1   11 1   
     2    1   14 1   
     3    2    8 1   
     4    2   11 1   
     5    3    4 1   
     6    3   13 1   
     7    4    5 1   
     8    4   37 1   
     9    4   38 1   
    10    5    6 1   
    11    5    7 1   
    12    5   39 1   
    13    6   16 1   
    14    6   40 1   
    15    6   41 1   
    16    7   18 1   
    17    7   42 1   
    18    7   43 1   
    19    8   44 1   
    20    9   10 1   
    21    9   45 1   
    22   10   12 1   
    23   12   46 1   
    24   13   47 1   
    25   14   48 1   
    26   15   49 1   
    27   15   50 1   
    28   15   51 1   
    29   16   17 1   
    30   16   52 1   
    31   16   53 1   
    32   17   18 1   
    33   17   19 1   
    34   18   54 1   
    35   18   55 1   
    36   19   20 1   
    37   19   36 1   
    38   20   21 1   
    39   20   25 1   
    40   21   22 1   
    41   21   26 1   
    42   22   29 1   
    43   23   24 1   
    44   25   56 1   
    45   26   57 1   
    46   27   28 1   
    47   27   58 1   
    48   28   59 1   
    49   29   60 1   
    50   30   35 1   
    51   31   32 1   
    52   31   61 1   
    53   32   62 1   
    54   33   34 1   
    55   33   63 1   
    56   34   64 1   
    57   35   65 1   
@<TRIPOS>SUBSTRUCTURE
     1 B37         1 TEMP              0 ****  ****    0 ROOT
