@<TRIPOS>MOLECULE
B38
   49    53     1     0     0
SMALL
bcc


@<TRIPOS>ATOM
      1 C4          0.1750    0.2490    0.1450 c3        1 B38     -0.113900
      2 C7         -2.5320    2.4580    1.7600 c         1 B38      0.588700
      3 C6         -0.6290    3.7360    0.7890 ca        1 B38      0.163100
      4 C9          1.7860    1.2420    2.3550 c3        1 B38      0.079000
      5 C13        -2.4460    4.9520    1.8250 ca        1 B38     -0.041000
      6 C8          1.7020    0.2190    0.1570 c3        1 B38      0.079000
      7 C1         -0.3770    1.3660    1.0370 c3        1 B38      0.162800
      8 O2          0.0150    2.5920    0.3720 os        1 B38     -0.324900
      9 C3         -1.8960    1.2500    1.1290 c3        1 B38     -0.208400
     10 C5          0.2590    1.3090    2.4270 c3        1 B38     -0.113900
     11 C10        -1.8620    3.7310    1.4640 ca        1 B38     -0.242600
     12 C11         0.0020    4.9490    0.4600 ca        1 B38     -0.171000
     13 C14        -0.6040    6.1460    0.8170 ca        1 B38     -0.072000
     14 C15        -1.8280    6.1610    1.5060 ca        1 B38     -0.123300
     15 N27         2.2950    0.2050    1.4820 n         1 B38     -0.445800
     16 C20         3.4760   -1.0330    3.2980 ca        1 B38     -0.152600
     17 C21         4.0610   -2.2760    5.3720 ca        1 B38     -0.224900
     18 C18         5.0020   -0.1170    4.9710 ca        1 B38     -0.178000
     19 C19         4.3220   -0.0210    3.7450 ca        1 B38     -0.061000
     20 C26         2.7620   -1.0100    1.9950 c         1 B38      0.672700
     21 C17         4.8730   -1.2300    5.7950 ca        1 B38     -0.035000
     22 C22         3.3650   -2.1780    4.1060 ca        1 B38     -0.017200
     23 N23         2.6250   -3.3620    3.9690 na        1 B38     -0.004100
     24 N24         2.8590   -4.2000    4.9910 nc        1 B38     -0.504100
     25 C25         3.6770   -3.5920    5.8710 cd        1 B38      0.348800
     26 O28         2.6450   -2.0650    1.3330 o         1 B38     -0.617100
     27 H4         -0.1660    0.4110   -0.9100 hc        1 B38      0.067200
     28 H4A        -0.2400   -0.7260    0.5080 hc        1 B38      0.067200
     29 H9          2.1670    2.2260    1.9520 h1        1 B38      0.070200
     30 H9A         2.1830    1.1050    3.3990 h1        1 B38      0.070200
     31 H13        -3.4090    4.9370    2.3640 ha        1 B38      0.156000
     32 H8          2.0800    1.1510   -0.3550 h1        1 B38      0.070200
     33 H8A         2.0550   -0.6810   -0.4210 h1        1 B38      0.070200
     34 H16        -3.2790    7.3050    2.6120 hc        1 B38      0.045700
     35 H16A       -1.6950    8.1400    2.3260 hc        1 B38      0.045700
     36 H16B       -2.8760    7.9470    0.9650 hc        1 B38      0.045700
     37 H3         -2.3240    1.1440    0.0960 hc        1 B38      0.087700
     38 H3A        -2.1650    0.3290    1.7090 hc        1 B38      0.087700
     39 H5         -0.1430    0.4140    2.9680 hc        1 B38      0.067200
     40 H5A        -0.0270    2.2250    3.0050 hc        1 B38      0.067200
     41 H11         0.9610    4.9320   -0.0770 ha        1 B38      0.152000
     42 H14        -0.1170    7.1000    0.5610 ha        1 B38      0.138000
     43 H18         5.6560    0.7130    5.2790 ha        1 B38      0.139000
     44 H19         4.4750    0.8750    3.1220 ha        1 B38      0.145000
     45 H17         5.4060   -1.2880    6.7550 ha        1 B38      0.142000
     46 H25         3.9810   -4.0560    6.8100 h4        1 B38      0.056800
     47 HN23        2.2680   -3.7040    3.1010 hn        1 B38      0.341700
     48 O12        -3.5610    2.3700    2.4390 o         1 B38     -0.529100
     49 C16        -2.4520    7.4520    1.8750 c3        1 B38     -0.049800
@<TRIPOS>BOND
     1    1    6 1   
     2    1    7 1   
     3    1   27 1   
     4    1   28 1   
     5    2    9 1   
     6    2   11 1   
     7    2   48 2   
     8    3    8 1   
     9    3   11 ar  
    10    3   12 ar  
    11    4   10 1   
    12    4   15 1   
    13    4   29 1   
    14    4   30 1   
    15    5   11 ar  
    16    5   14 ar  
    17    5   31 1   
    18    6   15 1   
    19    6   32 1   
    20    6   33 1   
    21    7    8 1   
    22    7    9 1   
    23    7   10 1   
    24    9   37 1   
    25    9   38 1   
    26   10   39 1   
    27   10   40 1   
    28   12   13 ar  
    29   12   41 1   
    30   13   14 ar  
    31   13   42 1   
    32   14   49 1   
    33   15   20 1   
    34   16   19 ar  
    35   16   20 1   
    36   16   22 ar  
    37   17   21 ar  
    38   17   22 ar  
    39   17   25 1   
    40   18   19 ar  
    41   18   21 ar  
    42   18   43 1   
    43   19   44 1   
    44   20   26 2   
    45   21   45 1   
    46   22   23 1   
    47   23   24 1   
    48   23   47 1   
    49   24   25 2   
    50   25   46 1   
    51   34   49 1   
    52   35   49 1   
    53   36   49 1   
@<TRIPOS>SUBSTRUCTURE
     1 B38         1 TEMP              0 ****  ****    0 ROOT
