@<TRIPOS>MOLECULE
B38
   49    53     1     0     0
SMALL
bcc


@<TRIPOS>ATOM
      1 C4          0.6050    2.3130   -0.7150 c3        1 B38     -0.113900
      2 C7          3.3070    0.9720    1.6750 c         1 B38      0.588700
      3 C6          3.4400    0.0380   -0.6290 ca        1 B38      0.163100
      4 C9         -0.3390   -0.4380   -0.6050 c3        1 B38      0.079000
      5 C13         5.0730   -0.6630    1.0130 ca        1 B38     -0.041000
      6 C8         -0.3260    1.6960   -1.7580 c3        1 B38      0.079000
      7 C1          1.4640    1.2490   -0.0230 c3        1 B38      0.162800
      8 O2          2.3520    0.7650   -1.0590 os        1 B38     -0.324900
      9 C3          2.2470    1.8840    1.1230 c3        1 B38     -0.208400
     10 C5          0.5910    0.1000    0.4850 c3        1 B38     -0.113900
     11 C10         3.9460    0.0990    0.6810 ca        1 B38     -0.242600
     12 C11         4.0670   -0.7600   -1.6020 ca        1 B38     -0.171000
     13 C14         5.1920   -1.4950   -1.2520 ca        1 B38     -0.072000
     14 C15         5.7020   -1.4600    0.0560 ca        1 B38     -0.123300
     15 N27        -1.1190    0.5810   -1.2750 n         1 B38     -0.445800
     16 C20        -3.3230   -0.3390   -0.5540 ca        1 B38     -0.152600
     17 C21        -5.2620   -1.1810    0.7570 ca        1 B38     -0.224900
     18 C18        -4.0980   -2.6490   -0.7250 ca        1 B38     -0.178000
     19 C19        -3.2240   -1.6150   -1.1010 ca        1 B38     -0.061000
     20 C26        -2.4590    0.8070   -0.9400 c         1 B38      0.672700
     21 C17        -5.1110   -2.4490    0.2060 ca        1 B38     -0.035000
     22 C22        -4.3660   -0.1150    0.3630 ca        1 B38     -0.017200
     23 N23        -4.7550    1.0190    1.0920 na        1 B38     -0.004100
     24 N24        -5.8450    0.7660    1.8330 nc        1 B38     -0.504100
     25 C25        -6.1680   -0.5340    1.7000 cd        1 B38      0.348800
     26 O28        -2.9510    1.9530   -1.0300 o         1 B38     -0.617100
     27 H4          1.2700    3.0530   -1.2290 hc        1 B38      0.067200
     28 H4A         0.0130    2.8500    0.0700 hc        1 B38      0.067200
     29 H9          0.2920   -0.9400   -1.3940 h1        1 B38      0.070200
     30 H9A        -1.0160   -1.2090   -0.1430 h1        1 B38      0.070200
     31 H13         5.4560   -0.6160    2.0460 ha        1 B38      0.156000
     32 H8         -1.0090    2.4970   -2.1580 h1        1 B38      0.070200
     33 H8A         0.3050    1.2990   -2.6060 h1        1 B38      0.070200
     34 H16         6.8080   -3.2990    0.0130 hc        1 B38      0.045700
     35 H16A        7.8140   -1.7940   -0.0560 hc        1 B38      0.045700
     36 H16B        7.0510   -2.3020    1.5080 hc        1 B38      0.045700
     37 H3          1.5380    2.1840    1.9390 hc        1 B38      0.087700
     38 H3A         2.7590    2.8130    0.7530 hc        1 B38      0.087700
     39 H5         -0.0070    0.4640    1.3600 hc        1 B38      0.067200
     40 H5A         1.2470   -0.7400    0.8350 hc        1 B38      0.067200
     41 H11         3.6630   -0.7860   -2.6240 ha        1 B38      0.152000
     42 H14         5.6900   -2.1200   -2.0090 ha        1 B38      0.138000
     43 H18        -3.9730   -3.6400   -1.1870 ha        1 B38      0.139000
     44 H19        -2.4510   -1.8230   -1.8590 ha        1 B38      0.145000
     45 H17        -5.7820   -3.2700    0.4970 ha        1 B38      0.142000
     46 H25        -6.9970   -0.9930    2.2400 h4        1 B38      0.056800
     47 HN23       -4.5130    1.9560    0.8450 hn        1 B38      0.341700
     48 O12         3.6300    0.9980    2.8680 o         1 B38     -0.529100
     49 C16         6.9020   -2.2550    0.4010 c3        1 B38     -0.049800
@<TRIPOS>BOND
     1    1    6 1   
     2    1    7 1   
     3    1   27 1   
     4    1   28 1   
     5    2    9 1   
     6    2   11 1   
     7    2   48 2   
     8    3    8 1   
     9    3   11 ar  
    10    3   12 ar  
    11    4   10 1   
    12    4   15 1   
    13    4   29 1   
    14    4   30 1   
    15    5   11 ar  
    16    5   14 ar  
    17    5   31 1   
    18    6   15 1   
    19    6   32 1   
    20    6   33 1   
    21    7    8 1   
    22    7    9 1   
    23    7   10 1   
    24    9   37 1   
    25    9   38 1   
    26   10   39 1   
    27   10   40 1   
    28   12   13 ar  
    29   12   41 1   
    30   13   14 ar  
    31   13   42 1   
    32   14   49 1   
    33   15   20 1   
    34   16   19 ar  
    35   16   20 1   
    36   16   22 ar  
    37   17   21 ar  
    38   17   22 ar  
    39   17   25 1   
    40   18   19 ar  
    41   18   21 ar  
    42   18   43 1   
    43   19   44 1   
    44   20   26 2   
    45   21   45 1   
    46   22   23 1   
    47   23   24 1   
    48   23   47 1   
    49   24   25 2   
    50   25   46 1   
    51   34   49 1   
    52   35   49 1   
    53   36   49 1   
@<TRIPOS>SUBSTRUCTURE
     1 B38         1 TEMP              0 ****  ****    0 ROOT
