@<TRIPOS>MOLECULE
B38
   49    42     1     0     0
SMALL
bcc


@<TRIPOS>ATOM
      1 C4         -1.1670   -0.7490   -0.8420 c3        1 B38     -0.192000
      2 C7         -2.5680    2.4470    0.7590 c1        1 B38      0.280000
      3 C6         -0.8820    2.3690   -1.1810 c1        1 B38      0.119000
      4 C9          0.5330    0.0820    1.3450 c3        1 B38     -0.037000
      5 C13        -1.4420    4.5560   -0.1950 c1        1 B38     -0.038500
      6 C8          0.3450   -0.9270   -0.8790 c3        1 B38     -0.037000
      7 C16         0.1990    6.4670   -0.8560 c3        1 B38     -0.175000
      8 C1         -1.5780    0.3710    0.0440 c3        1 B38      0.091000
      9 O2         -0.9630    0.8760   -1.0530 os        1 B38     -0.210000
     10 C3         -2.7870    1.0650    0.5470 c3        1 B38     -0.236000
     11 C5         -0.9760    0.2670    1.3990 c3        1 B38     -0.192000
     12 C10        -1.6110    3.1760   -0.2140 c1        1 B38     -0.181000
     13 C11        -0.0160    2.9800   -2.0820 c1        1 B38     -0.170000
     14 O12        -3.3450    3.0890    1.4440 o         1 B38     -0.290000
     15 C14         0.1530    4.3810   -2.0590 c1        1 B38     -0.072000
     16 C15        -0.5630    5.1720   -1.1110 c1        1 B38     -0.115000
     17 N27         0.9250   -1.0110    0.4590 n3        1 B38     -0.304000
     18 C20         2.3200   -3.0390   -0.1600 c1        1 B38     -0.132000
     19 C21         1.0720   -4.8490    0.8240 c1        1 B38     -0.181000
     20 C18         2.2030   -5.1450   -1.3030 c1        1 B38     -0.178000
     21 C19         2.6540   -3.8340   -1.2400 c2        1 B38     -0.061000
     22 C26         1.7980   -2.0690    0.8650 c1        1 B38      0.346000
     23 C17         1.4140   -5.6600   -0.2800 c1        1 B38     -0.038500
     24 C22         1.5140   -3.5640    0.8860 c1        1 B38      0.027000
     25 N23         1.0120   -2.9970    2.0400 n1        1 B38     -0.179000
     26 N24         0.2550   -3.9480    2.6880 n2        1 B38     -0.037000
     27 C25         0.2860   -5.0880    1.9490 c1        1 B38     -0.152000
     28 O28         2.2500   -2.0820    1.9990 o         1 B38     -0.377000
     29 H4         -1.4900   -0.5690   -1.7560 hc        1 B38      0.106500
     30 H4A        -1.5780   -1.5810   -0.5160 hc        1 B38      0.106500
     31 H9          0.9440    0.9130    1.0260 h1        1 B38      0.109750
     32 H9A         0.8620   -0.1080    2.2490 h1        1 B38      0.109750
     33 H13        -1.9140    5.0960    0.4660 ha        1 B38      0.149000
     34 H8          0.7450   -0.1640   -1.3520 h1        1 B38      0.109750
     35 H8A         0.5570   -1.7530   -1.3700 h1        1 B38      0.109750
     36 H16         0.1870    7.0200   -1.6680 hc        1 B38      0.085333
     37 H16A        1.1300    6.2580   -0.6160 hc        1 B38      0.085333
     38 H16B       -0.2260    6.9570   -0.1190 hc        1 B38      0.085333
     39 H3         -3.6190    1.0150    0.0280 hc        1 B38      0.126000
     40 H3A        -3.0510    0.5780    1.3590 hc        1 B38      0.126000
     41 H5         -1.3760   -0.5000    1.8680 hc        1 B38      0.106500
     42 H5A        -1.1780    1.0860    1.9000 hc        1 B38      0.106500
     43 H11         0.4750    2.4390   -2.7320 ha        1 B38      0.152000
     44 H14         0.7610    4.8100   -2.6920 ha        1 B38      0.138000
     45 H18         2.4400   -5.7100   -2.0720 ha        1 B38      0.139000
     46 H19         3.2110   -3.4710   -1.9630 ha        1 B38      0.145000
     47 H17         1.0950   -6.5870   -0.3250 ha        1 B38      0.149000
     48 H25        -0.1650   -5.9290    2.1690 DU        1 B38      0.239000
     49 HN23        1.1560   -2.1380    2.3240 DU        1 B38      0.239000
@<TRIPOS>BOND
     1    1    6 1   
     2    1    8 1   
     3    1   29 1   
     4    1   30 1   
     5    2   10 1   
     6    2   14 1   
     7    3    9 1   
     8    3   13 1   
     9    4   11 1   
    10    4   17 1   
    11    4   31 1   
    12    4   32 1   
    13    5   12 1   
    14    5   33 1   
    15    6   17 1   
    16    6   34 1   
    17    6   35 1   
    18    7   16 1   
    19    7   36 1   
    20    7   37 1   
    21    7   38 1   
    22    8    9 1   
    23    8   10 1   
    24    8   11 1   
    25   10   39 1   
    26   10   40 1   
    27   11   41 1   
    28   11   42 1   
    29   13   43 1   
    30   15   16 1   
    31   15   44 1   
    32   17   22 1   
    33   18   21 1   
    34   18   24 1   
    35   19   23 1   
    36   20   21 1   
    37   20   45 1   
    38   21   46 1   
    39   22   28 1   
    40   23   47 1   
    41   25   26 1   
    42   26   27 1   
@<TRIPOS>SUBSTRUCTURE
     1 B38         1 TEMP              0 ****  ****    0 ROOT
