@<TRIPOS>MOLECULE
B39
   57    61     1     0     0
SMALL
bcc


@<TRIPOS>ATOM
      1 C4          0.4520   -0.0440   -0.1680 c3        1 B39      0.065000
      2 C5          1.9620   -0.3480   -0.0260 c3        1 B39     -0.101400
      3 C6          2.3700    0.1660    1.3530 c3        1 B39     -0.125700
      4 C8          3.1020    1.4890    1.2090 c3        1 B39      0.202400
      5 C10        -1.0720   -2.7500   -2.1390 cc        1 B39     -0.120200
      6 C13        -0.9250   -0.4330   -2.2430 ca        1 B39      0.484800
      7 C15        -1.8250    0.9080   -3.8340 ca        1 B39      0.694900
      8 C17        -2.2010   -1.3800   -4.1230 ca        1 B39      0.748200
      9 C20        -3.3640   -3.5560   -6.9670 c3        1 B39     -0.086400
     10 C21        -5.0250   -2.4680   -5.5740 ca        1 B39     -0.135300
     11 C22        -5.6650   -3.5270   -6.2520 ca        1 B39     -0.075300
     12 C24        -7.7340   -2.9380   -5.1920 ca        1 B39     -0.117000
     13 C26        -5.7360   -1.6440   -4.7160 ca        1 B39     -0.100000
     14 C19        -4.7140   -4.2600   -7.1340 c3        1 B39     -0.041100
     15 C23        -7.0180   -3.7670   -6.0640 ca        1 B39     -0.119000
     16 C25        -7.1030   -1.8890   -4.5280 ca        1 B39     -0.136000
     17 C1         -3.5630   -2.3820   -5.9560 c3        1 B39      0.262800
     18 N18        -2.6470   -2.4720   -4.8400 nu        1 B39     -0.832900
     19 N16        -2.3860   -0.0900   -4.5650 nb        1 B39     -0.781000
     20 N14        -1.0980    0.8490   -2.6950 nb        1 B39     -0.768000
     21 C12        -1.4600   -1.6010   -2.9150 ca        1 B39     -0.384400
     22 C11        -0.3390   -2.2870   -1.0560 cd        1 B39     -0.143100
     23 N7         -0.2390   -0.8800   -1.1000 na        1 B39     -0.184100
     24 C3         -0.0930   -0.1060    1.2780 c3        1 B39     -0.135400
     25 C2          1.0740    0.2750    2.1850 c3        1 B39      0.148100
     26 O9          0.9510    1.5830    2.7400 oh        1 B39     -0.717800
     27 O27         3.5740    1.9370    2.4860 os        1 B39     -0.569500
     28 S28         3.0350    3.2270    3.2840 s6        1 B39      1.651400
     29 O29         4.1200    3.9030    3.7590 o         1 B39     -0.569800
     30 O30         1.9400    3.7800    2.6920 o         1 B39     -0.569800
     31 N31         2.4310    2.3840    4.8240 nz        1 B39     -0.794500
     32 H4          0.3480    1.0250   -0.5290 h1        1 B39      0.093700
     33 H5          2.1580   -1.4500   -0.0910 hc        1 B39      0.078700
     34 H5A         2.5380    0.1450   -0.8480 hc        1 B39      0.078700
     35 H6          3.0610   -0.5680    1.8500 hc        1 B39      0.088700
     36 H8          4.0450    1.3630    0.6050 h1        1 B39      0.090200
     37 H8A         2.4420    2.2780    0.7580 h1        1 B39      0.090200
     38 H10        -1.3090   -3.7870   -2.3650 ha        1 B39      0.163000
     39 H15        -1.9970    1.9300   -4.2390 h5        1 B39      0.056100
     40 H24        -8.8090   -3.1170   -5.0360 ha        1 B39      0.136000
     41 H26        -5.2430   -0.8080   -4.2000 ha        1 B39      0.140000
     42 H19        -4.6450   -5.3380   -6.8390 hc        1 B39      0.061200
     43 H19A       -5.0530   -4.2220   -8.2010 hc        1 B39      0.061200
     44 H23        -7.5220   -4.5880   -6.5910 ha        1 B39      0.139000
     45 H25        -7.6810   -1.2410   -3.8520 ha        1 B39      0.134000
     46 H1         -3.3820   -1.4070   -6.4960 h1        1 B39      0.103700
     47 HN18       -2.6550   -3.3350   -4.3410 hn        1 B39      0.430800
     48 H11         0.1290   -2.8430   -0.2430 h4        1 B39      0.165000
     49 H3         -0.4450   -1.1390    1.5320 hc        1 B39      0.083700
     50 H3A        -0.9610    0.5870    1.4050 hc        1 B39      0.083700
     51 H2          1.1250   -0.4000    3.0840 h1        1 B39      0.074700
     52 HO9         0.3950    2.1270    2.1610 ho        1 B39      0.462000
     53 HN31        2.7220    1.4050    4.8370 hn        1 B39      0.474133
     54 HN3A        2.7800    2.8250    5.6740 hn        1 B39      0.474133
     55 H20        -3.0190   -3.1300   -7.9410 hc        1 B39      0.057200
     56 H313        1.4060    2.3840    4.8490 hn        1 B39      0.474133
     57 H20A       -2.5870   -4.2810   -6.6220 hc        1 B39      0.057200
@<TRIPOS>BOND
     1    1    2 1   
     2    1   23 1   
     3    1   24 1   
     4    1   32 1   
     5    2    3 1   
     6    2   33 1   
     7    2   34 1   
     8    3    4 1   
     9    3   25 1   
    10    3   35 1   
    11    4   27 1   
    12    4   36 1   
    13    4   37 1   
    14    5   21 1   
    15    5   22 2   
    16    5   38 1   
    17    6   20 ar  
    18    6   21 ar  
    19    6   23 1   
    20    7   19 ar  
    21    7   20 ar  
    22    7   39 1   
    23    8   18 1   
    24    8   19 ar  
    25    8   21 ar  
    26    9   14 1   
    27    9   17 1   
    28    9   55 1   
    29    9   57 1   
    30   10   11 ar  
    31   10   13 ar  
    32   10   17 1   
    33   11   14 1   
    34   11   15 ar  
    35   12   15 ar  
    36   12   16 ar  
    37   12   40 1   
    38   13   16 ar  
    39   13   41 1   
    40   14   42 1   
    41   14   43 1   
    42   15   44 1   
    43   16   45 1   
    44   17   18 1   
    45   17   46 1   
    46   18   47 1   
    47   22   23 1   
    48   22   48 1   
    49   24   25 1   
    50   24   49 1   
    51   24   50 1   
    52   25   26 1   
    53   25   51 1   
    54   26   52 1   
    55   27   28 1   
    56   28   29 2   
    57   28   30 2   
    58   28   31 1   
    59   31   53 1   
    60   31   54 1   
    61   31   56 1   
@<TRIPOS>SUBSTRUCTURE
     1 B39         1 TEMP              0 ****  ****    0 ROOT
