@<TRIPOS>MOLECULE
B39
   57    61     1     0     0
SMALL
bcc


@<TRIPOS>ATOM
      1 C4          0.4520   -0.0510   -0.1660 c3        1 B39      0.065000
      2 C5          1.9560   -0.3810   -0.0090 c3        1 B39     -0.101400
      3 C6          2.3640    0.1470    1.3650 c3        1 B39     -0.125700
      4 C8          3.1220    1.4540    1.2050 c3        1 B39      0.202400
      5 C10        -1.1090   -2.7590   -2.1050 cc        1 B39     -0.120200
      6 C13        -0.9170   -0.4470   -2.2450 ca        1 B39      0.484800
      7 C15        -1.7790    0.8850   -3.8650 ca        1 B39      0.694900
      8 C17        -2.1960   -1.4000   -4.1200 ca        1 B39      0.748200
      9 C20        -3.3770   -3.5990   -6.9380 c3        1 B39     -0.086400
     10 C21        -5.0280   -2.4580   -5.5770 ca        1 B39     -0.135300
     11 C22        -5.6820   -3.5160   -6.2430 ca        1 B39     -0.075300
     12 C24        -7.7490   -2.8700   -5.2120 ca        1 B39     -0.117000
     13 C26        -5.7310   -1.6070   -4.7390 ca        1 B39     -0.100000
     14 C19        -4.7370   -4.2810   -7.1050 c3        1 B39     -0.041100
     15 C23        -7.0410   -3.7270   -6.0640 ca        1 B39     -0.119000
     16 C25        -7.1030   -1.8220   -4.5590 ca        1 B39     -0.136000
     17 C1         -3.5620   -2.4060   -5.9470 c3        1 B39      0.262800
     18 N18        -2.6570   -2.4950   -4.8220 nh        1 B39     -0.832900
     19 N16        -2.3530   -0.1150   -4.5830 nb        1 B39     -0.781000
     20 N14        -1.0620    0.8310   -2.7180 nb        1 B39     -0.768000
     21 C12        -1.4690   -1.6150   -2.9010 ca        1 B39     -0.384400
     22 C11        -0.3760   -2.2920   -1.0220 cd        1 B39     -0.143100
     23 N7         -0.2490   -0.8880   -1.0890 na        1 B39     -0.184100
     24 C3         -0.1030   -0.0810    1.2780 c3        1 B39     -0.135400
     25 C2          1.0650    0.2930    2.1870 c3        1 B39      0.148100
     26 O9          0.9640    1.6110    2.7210 oh        1 B39     -0.717800
     27 O27         3.5940    1.9120    2.4780 os        1 B39     -0.569500
     28 S28         3.0750    3.2240    3.2540 s6        1 B39      1.651400
     29 O29         4.1690    3.8870    3.7240 o         1 B39     -0.569800
     30 O30         1.9930    3.7880    2.6470 o         1 B39     -0.569800
     31 N31         2.4470    2.4160    4.8020 n4        1 B39     -0.794500
     32 H4          0.3700    1.0140   -0.5430 h1        1 B39      0.093700
     33 H5          2.1310   -1.4860   -0.0570 hc        1 B39      0.078700
     34 H5A         2.5450    0.0900   -0.8350 hc        1 B39      0.078700
     35 H6          3.0380   -0.5920    1.8760 hc        1 B39      0.088700
     36 H8          2.4790    2.2490    0.7380 h1        1 B39      0.090200
     37 H8A         4.0660    1.3020    0.6090 h1        1 B39      0.090200
     38 H10        -1.3640   -3.7940   -2.3150 ha        1 B39      0.163000
     39 H15        -1.9280    1.9030   -4.2870 h5        1 B39      0.056100
     40 H24        -8.8280   -3.0260   -5.0620 ha        1 B39      0.136000
     41 H26        -5.2260   -0.7710   -4.2330 ha        1 B39      0.140000
     42 H19        -5.0670   -4.2550   -8.1750 hc        1 B39      0.061200
     43 H19A       -4.6920   -5.3550   -6.7910 hc        1 B39      0.061200
     44 H23        -7.5560   -4.5480   -6.5820 ha        1 B39      0.139000
     45 H25        -7.6740   -1.1530   -3.8990 ha        1 B39      0.134000
     46 H1         -3.3570   -1.4430   -6.5020 h1        1 B39      0.103700
     47 HN18       -2.6860   -3.3500   -4.3090 hn        1 B39      0.430800
     48 H11         0.0750   -2.8440   -0.1970 h4        1 B39      0.165000
     49 H3         -0.9580    0.6310    1.3890 hc        1 B39      0.083700
     50 H3A        -0.4750   -1.1020    1.5460 hc        1 B39      0.083700
     51 H2          1.0990   -0.3700    3.0960 h1        1 B39      0.074700
     52 HO9         0.4210    2.1560    2.1310 ho        1 B39      0.462000
     53 HN31        1.4220    2.4330    4.8210 hn        1 B39      0.474133
     54 HN3A        2.7200    1.4320    4.8320 hn        1 B39      0.474133
     55 H20        -3.0160   -3.1970   -7.9160 hc        1 B39      0.057200
     56 H313        2.7980    2.8640    5.6480 hn        1 B39      0.474133
     57 H20A       -2.6160   -4.3330   -6.5750 hc        1 B39      0.057200
@<TRIPOS>BOND
     1    1    2 1   
     2    1   23 1   
     3    1   24 1   
     4    1   32 1   
     5    2    3 1   
     6    2   33 1   
     7    2   34 1   
     8    3    4 1   
     9    3   25 1   
    10    3   35 1   
    11    4   27 1   
    12    4   36 1   
    13    4   37 1   
    14    5   21 1   
    15    5   22 2   
    16    5   38 1   
    17    6   20 ar  
    18    6   21 ar  
    19    6   23 1   
    20    7   19 ar  
    21    7   20 ar  
    22    7   39 1   
    23    8   18 1   
    24    8   19 ar  
    25    8   21 ar  
    26    9   14 1   
    27    9   17 1   
    28    9   55 1   
    29    9   57 1   
    30   10   11 ar  
    31   10   13 ar  
    32   10   17 1   
    33   11   14 1   
    34   11   15 ar  
    35   12   15 ar  
    36   12   16 ar  
    37   12   40 1   
    38   13   16 ar  
    39   13   41 1   
    40   14   42 1   
    41   14   43 1   
    42   15   44 1   
    43   16   45 1   
    44   17   18 1   
    45   17   46 1   
    46   18   47 1   
    47   22   23 1   
    48   22   48 1   
    49   24   25 1   
    50   24   49 1   
    51   24   50 1   
    52   25   26 1   
    53   25   51 1   
    54   26   52 1   
    55   27   28 1   
    56   28   29 2   
    57   28   30 2   
    58   28   31 1   
    59   31   53 1   
    60   31   54 1   
    61   31   56 1   
@<TRIPOS>SUBSTRUCTURE
     1 B39         1 TEMP              0 ****  ****    0 ROOT
