@<TRIPOS>MOLECULE
B39
   56    60     1     0     0
SMALL
bcc


@<TRIPOS>ATOM
      1 C4         -1.6990    0.0820    0.0800 c3        1 B39      0.056000
      2 C5         -2.7440   -1.0590    0.1080 c3        1 B39     -0.093400
      3 C6         -3.9670   -0.5850   -0.6710 c3        1 B39     -0.079700
      4 C8         -5.2430   -0.8000    0.1330 c3        1 B39      0.214400
      5 C10         1.4840   -1.3610   -1.0910 cc        1 B39     -0.151200
      6 C13         0.7510   -0.0740    0.7000 ca        1 B39      0.473800
      7 C15         2.0340    0.7280    2.3910 ca        1 B39      0.677900
      8 C17         3.1680   -0.5440    0.7960 ca        1 B39      0.729200
      9 C20         6.5700   -2.1680    0.5740 c3        1 B39     -0.085400
     10 C21         6.3300    0.1810    0.0200 ca        1 B39     -0.130300
     11 C22         7.5520   -0.2640   -0.5280 ca        1 B39     -0.078300
     12 C24         7.9570    1.9410   -1.3820 ca        1 B39     -0.123000
     13 C26         5.9270    1.4980   -0.1270 ca        1 B39     -0.099000
     14 C19         7.7870   -1.7050   -0.2320 c3        1 B39     -0.040100
     15 C23         8.3690    0.6110   -1.2290 ca        1 B39     -0.123000
     16 C25         6.7530    2.3800   -0.8370 ca        1 B39     -0.136000
     17 C1          5.6270   -0.9370    0.7610 c3        1 B39      0.259800
     18 N18         4.2830   -1.2170    0.3090 nh        1 B39     -0.833900
     19 N16         3.2100    0.1990    1.9470 nb        1 B39     -0.787000
     20 N14         0.7960    0.6560    1.8620 nb        1 B39     -0.740000
     21 C12         1.9220   -0.7000    0.1080 ca        1 B39     -0.375400
     22 C11         0.1160   -1.1350   -1.2040 cd        1 B39     -0.124100
     23 N7         -0.3460   -0.3620   -0.1240 na        1 B39     -0.164100
     24 C3         -2.1980    1.0810   -0.9890 c3        1 B39     -0.133400
     25 C2         -3.7110    0.8760   -1.0820 c3        1 B39      0.145100
     26 O9         -4.4260    1.7450   -0.2110 oh        1 B39     -0.622800
     27 O27        -6.3470   -0.6020   -0.7110 os        1 B39     -0.578500
     28 S28        -7.7650    0.1990   -0.2890 s6        1 B39      1.730400
     29 O29        -8.3150    0.4170   -1.5410 o         1 B39     -0.652800
     30 O30        -8.3860   -0.6390    0.6290 o         1 B39     -0.652800
     31 N31        -7.2880    1.5330    0.4200 n3        1 B39     -1.042700
     32 H4         -1.7310    0.6060    1.0830 h1        1 B39      0.098700
     33 H5         -2.3440   -2.0010   -0.3470 hc        1 B39      0.061700
     34 H5A        -3.0030   -1.2880    1.1730 hc        1 B39      0.061700
     35 H6         -4.0630   -1.1800   -1.6220 hc        1 B39      0.078700
     36 H8         -5.2850   -1.8650    0.4970 h1        1 B39      0.043200
     37 H8A        -5.2750   -0.1040    1.0130 h1        1 B39      0.043200
     38 H10         2.1040   -1.9310   -1.7760 ha        1 B39      0.156000
     39 H15         2.1190    1.3130    3.3320 h5        1 B39      0.049100
     40 H20         6.0570   -3.0120    0.0510 hc        1 B39      0.055200
     41 H20A        6.8810   -2.5350    1.5810 hc        1 B39      0.055200
     42 H24         8.5950    2.6450   -1.9370 ha        1 B39      0.131000
     43 H26         4.9810    1.8500    0.3110 ha        1 B39      0.145000
     44 H19         8.7300   -1.8400    0.3570 hc        1 B39      0.056700
     45 H19A        7.8920   -2.2940   -1.1790 hc        1 B39      0.056700
     46 H23         9.3220    0.2710   -1.6570 ha        1 B39      0.134000
     47 H25         6.4450    3.4280   -0.9610 ha        1 B39      0.132000
     48 H1          5.5920   -0.6780    1.8600 h1        1 B39      0.101700
     49 HN18        4.2070   -1.4970   -0.6460 hn        1 B39      0.422800
     50 H11        -0.5820   -1.4690   -1.9740 h4        1 B39      0.171000
     51 H3         -1.9390    2.1270   -0.6940 hc        1 B39      0.063700
     52 H3A        -1.7330    0.8760   -1.9860 hc        1 B39      0.063700
     53 H2         -4.0780    1.0590   -2.1300 h1        1 B39      0.054700
     54 HO9        -4.0580    2.6280   -0.3320 ho        1 B39      0.408000
     55 HN31       -6.6970    2.2040   -0.0090 hn        1 B39      0.458300
     56 HN3A       -7.4440    1.7340    1.3780 hn        1 B39      0.458300
@<TRIPOS>BOND
     1    1    2 1   
     2    1   23 1   
     3    1   24 1   
     4    1   32 1   
     5    2    3 1   
     6    2   33 1   
     7    2   34 1   
     8    3    4 1   
     9    3   25 1   
    10    3   35 1   
    11    4   27 1   
    12    4   36 1   
    13    4   37 1   
    14    5   21 1   
    15    5   22 2   
    16    5   38 1   
    17    6   20 ar  
    18    6   21 ar  
    19    6   23 1   
    20    7   19 ar  
    21    7   20 ar  
    22    7   39 1   
    23    8   18 1   
    24    8   19 ar  
    25    8   21 ar  
    26    9   14 1   
    27    9   17 1   
    28    9   40 1   
    29    9   41 1   
    30   10   11 ar  
    31   10   13 ar  
    32   10   17 1   
    33   11   14 1   
    34   11   15 ar  
    35   12   15 ar  
    36   12   16 ar  
    37   12   42 1   
    38   13   16 ar  
    39   13   43 1   
    40   14   44 1   
    41   14   45 1   
    42   15   46 1   
    43   16   47 1   
    44   17   18 1   
    45   17   48 1   
    46   18   49 1   
    47   22   23 1   
    48   22   50 1   
    49   24   25 1   
    50   24   51 1   
    51   24   52 1   
    52   25   26 1   
    53   25   53 1   
    54   26   54 1   
    55   27   28 1   
    56   28   29 2   
    57   28   30 2   
    58   28   31 1   
    59   31   55 1   
    60   31   56 1   
@<TRIPOS>SUBSTRUCTURE
     1 B39         1 TEMP              0 ****  ****    0 ROOT
