@<TRIPOS>MOLECULE
B39
   56    50     1     0     0
SMALL
bcc


@<TRIPOS>ATOM
      1 C4          1.0400    0.7010    2.3310 c3        1 B39      0.036000
      2 C5          2.6560    0.8710    2.2230 c3        1 B39     -0.181000
      3 C6          3.1170    0.8750    3.4880 c3        1 B39     -0.119000
      4 C8          3.1960    2.3320    4.0290 c3        1 B39      0.055000
      5 C10        -0.0170   -1.3800   -0.4550 c1        1 B39     -0.168000
      6 C13        -0.4050    0.7030    0.1950 c1        1 B39      0.081000
      7 C15        -1.9470    2.2140   -0.7880 c1        1 B39      0.010000
      8 C17        -1.6670    0.0640   -1.7230 c1        1 B39      0.196000
      9 C20        -1.3370   -1.0950   -4.8350 c3        1 B39     -0.182000
     10 C21        -3.6260   -1.7600   -4.3440 c1        1 B39     -0.104000
     11 C22        -3.1630   -2.6360   -5.3470 c1        1 B39     -0.069000
     12 C24        -5.3620   -3.6640   -5.4610 c1        1 B39     -0.130500
     13 C26        -4.9520   -1.8390   -3.9040 c1        1 B39     -0.100000
     14 C19        -1.7250   -2.2230   -5.7150 c3        1 B39     -0.125000
     15 C23        -4.0360   -3.5890   -5.9030 c1        1 B39     -0.124000
     16 C25        -5.8210   -2.7880   -4.4590 c1        1 B39     -0.130500
     17 C1         -2.4600   -0.8180   -3.9500 c3        1 B39      0.054000
     18 N18        -2.0730   -1.0600   -2.5790 n2        1 B39     -0.273000
     19 N16        -2.2680    1.2710   -1.7390 n1        1 B39     -0.257000
     20 N14        -1.0180    1.9280    0.1750 n1        1 B39     -0.207000
     21 C12        -0.7210   -0.2280   -0.7430 c2        1 B39     -0.228000
     22 C11         0.7410   -1.1450    0.6780 c1        1 B39     -0.094000
     23 N7          0.5070    0.1300    1.0820 n2        1 B39     -0.142000
     24 C3          0.8210   -0.1230    3.3330 c3        1 B39     -0.212000
     25 C2          2.0700    0.0530    4.3000 c3        1 B39      0.034000
     26 O9          1.7170    0.7120    5.3990 oh        1 B39     -0.333000
     27 O27         4.2570    2.4290    4.9920 os        1 B39     -0.720000
     28 S28         4.9970    3.7700    5.0440 s4        1 B39      2.037800
     29 O29         5.7660    4.0280    3.7460 o         1 B39     -0.541400
     30 O30         4.0280    4.9300    5.0500 o         1 B39     -0.541400
     31 N31         6.0190    3.8210    6.3810 n2        1 B39     -0.966000
     32 H4          0.6300    1.5530    2.5080 h1        1 B39      0.140000
     33 H5          3.0430    0.1180    1.7240 hc        1 B39      0.112500
     34 H5A         2.8840    1.7450    1.7680 hc        1 B39      0.112500
     35 H6          4.0250    0.4320    3.5340 hc        1 B39      0.115000
     36 H8          2.3340    2.5720    4.4600 h1        1 B39      0.094500
     37 H8A         3.3700    2.9450    3.2910 h1        1 B39      0.094500
     38 H10        -0.0500   -2.2320   -0.9740 DU        1 B39      0.162500
     39 H15        -2.3900    3.1020   -0.8010 ha        1 B39      0.185000
     40 H20        -0.5780   -1.3510   -4.3110 hc        1 B39      0.097500
     41 H20A       -1.1600   -0.3140   -5.3770 hc        1 B39      0.097500
     42 H24        -5.9670   -4.3240   -5.8470 ha        1 B39      0.131500
     43 H26        -5.2660   -1.2430   -3.2220 ha        1 B39      0.143000
     44 H19        -1.7050   -1.9250   -6.6430 hc        1 B39      0.095500
     45 H19A       -1.1220   -2.9790   -5.5550 hc        1 B39      0.095500
     46 H23        -3.7100   -4.2110   -6.6170 ha        1 B39      0.135000
     47 H25        -6.7600   -2.8430   -4.1460 ha        1 B39      0.131500
     48 H1         -2.7430    0.1270   -4.0550 h1        1 B39      0.133000
     49 HN18       -2.0080   -1.9350   -2.2600 hn        1 B39      0.215000
     50 H11         1.3200   -1.7800    1.1140 DU        1 B39      0.162500
     51 H3          0.0090    0.1140    3.7880 hc        1 B39      0.101000
     52 H3A         0.7730   -1.0240    3.0150 hc        1 B39      0.101000
     53 H2          2.4430   -0.8330    4.5390 h1        1 B39      0.081000
     54 HO9         1.6300    0.1090    6.1100 ho        1 B39      0.206000
     55 HN31        6.0830    4.6000    6.8880 hn        1 B39      0.251500
     56 HN3A        6.5790    3.0960    6.5670 hn        1 B39      0.251500
@<TRIPOS>BOND
     1    1    2 1   
     2    1   23 1   
     3    1   24 1   
     4    1   32 1   
     5    2    3 1   
     6    2   33 1   
     7    2   34 1   
     8    3    4 1   
     9    3   25 1   
    10    3   35 1   
    11    4   27 1   
    12    4   36 1   
    13    4   37 1   
    14    5   21 1   
    15    5   22 1   
    16    6   21 1   
    17    7   20 1   
    18    7   39 1   
    19    8   19 1   
    20    8   21 1   
    21    9   14 1   
    22    9   17 1   
    23    9   40 1   
    24    9   41 1   
    25   10   13 1   
    26   10   17 1   
    27   11   14 1   
    28   11   15 1   
    29   12   16 1   
    30   12   42 1   
    31   13   43 1   
    32   14   44 1   
    33   14   45 1   
    34   15   46 1   
    35   16   47 1   
    36   17   18 1   
    37   17   48 1   
    38   18   49 1   
    39   22   23 1   
    40   24   25 1   
    41   24   51 1   
    42   24   52 1   
    43   25   26 1   
    44   25   53 1   
    45   26   54 1   
    46   27   28 1   
    47   28   29 1   
    48   28   30 1   
    49   31   55 1   
    50   31   56 1   
@<TRIPOS>SUBSTRUCTURE
     1 B39         1 TEMP              0 ****  ****    0 ROOT
