@<TRIPOS>MOLECULE
B39
   58    62     1     0     0
SMALL
bcc


@<TRIPOS>ATOM
      1 C4          0.4240    0.1320   -0.2430 c3        1 B39      0.046000
      2 C5          1.4930   -0.6580    0.5470 c3        1 B39     -0.097400
      3 C6          1.8270    0.1800    1.7780 c3        1 B39     -0.125700
      4 C8          3.1720    0.8670    1.5940 c3        1 B39      0.201400
      5 C10        -1.9640   -2.3220   -1.6410 cc        1 B39     -0.184200
      6 C13        -0.5670   -0.6320   -2.4430 ca        1 B39      0.473800
      7 C15        -0.2960   -0.0210   -4.6220 ca        1 B39      0.677900
      8 C17        -1.7810   -1.7580   -4.2290 ca        1 B39      0.545200
      9 C20        -4.0910   -1.6540   -6.5880 c3        1 B39     -0.096400
     10 C21        -5.1160   -3.2570   -5.0910 ca        1 B39     -0.203300
     11 C22        -5.6710   -3.4580   -6.3730 ca        1 B39     -0.043300
     12 C24        -7.1300   -5.1250   -5.4500 ca        1 B39     -0.072000
     13 C26        -5.5680   -3.9740   -3.9910 ca        1 B39     -0.101000
     14 C19        -5.0560   -2.5470   -7.3780 c3        1 B39     -0.051100
     15 C23        -6.6800   -4.3940   -6.5570 ca        1 B39     -0.105000
     16 C25        -6.5830   -4.9170   -4.1820 ca        1 B39     -0.123000
     17 C1         -4.0700   -2.1830   -5.1310 c3        1 B39      0.202800
     18 N18        -2.7260   -2.7740   -4.7330 n4        1 B39     -0.755700
     19 N16        -1.1710   -0.9430   -5.1240 nb        1 B39     -0.684000
     20 N14         0.0520    0.1930   -3.3330 nb        1 B39     -0.656000
     21 C12        -1.5360   -1.6670   -2.8450 ca        1 B39     -0.298400
     22 C11        -1.2890   -1.7160   -0.5840 cd        1 B39     -0.046100
     23 N7         -0.4450   -0.6940   -1.0460 na        1 B39     -0.160100
     24 C3         -0.3110    0.9890    0.8110 c3        1 B39     -0.132400
     25 C2          0.6570    1.1650    1.9800 c3        1 B39      0.150100
     26 O9          1.1370    2.4970    2.1240 oh        1 B39     -0.694800
     27 O27         3.5450    1.5470    2.7930 os        1 B39     -0.567500
     28 S28         3.7130    3.1530    2.9370 s6        1 B39      1.650400
     29 O29         4.9040    3.4030    3.5420 o         1 B39     -0.561800
     30 O30         3.1920    3.7760    1.8410 o         1 B39     -0.561800
     31 N31         2.5060    3.4350    4.3070 n4        1 B39     -0.799500
     32 H4          0.9610    0.8340   -0.9510 h1        1 B39      0.103700
     33 H5          2.3920   -0.8400   -0.0930 hc        1 B39      0.080700
     34 H5A         1.1040   -1.6580    0.8700 hc        1 B39      0.080700
     35 H6          1.9000   -0.4840    2.6830 hc        1 B39      0.098700
     36 H8          3.1480    1.5950    0.7390 h1        1 B39      0.088200
     37 H8A         3.9900    0.1040    1.4450 h1        1 B39      0.088200
     38 H10        -2.6800   -3.1370   -1.5580 ha        1 B39      0.177000
     39 H15         0.1910    0.6340   -5.3830 h5        1 B39      0.098100
     40 H20        -4.4660   -0.5980   -6.5690 hc        1 B39      0.086700
     41 H20A       -3.0790   -1.6400   -7.0640 hc        1 B39      0.086700
     42 H24        -7.9320   -5.8700   -5.5820 ha        1 B39      0.165000
     43 H26        -5.1580   -3.8000   -2.9860 ha        1 B39      0.127000
     44 H19        -5.8390   -1.9270   -7.8890 hc        1 B39      0.088200
     45 H19A       -4.5180   -3.1270   -8.1710 hc        1 B39      0.088200
     46 H23        -7.1250   -4.5560   -7.5510 ha        1 B39      0.166000
     47 H25        -6.9600   -5.4950   -3.3230 ha        1 B39      0.159000
     48 H1         -4.2830   -1.3560   -4.3950 hx        1 B39      0.112700
     49 HN18       -2.3200   -3.2510   -5.5510 hn        1 B39      0.465800
     50 H11        -1.3480   -1.9410    0.4860 h4        1 B39      0.196000
     51 H3         -0.6140    1.9740    0.3750 hc        1 B39      0.085700
     52 H3A        -1.2430    0.4830    1.1730 hc        1 B39      0.085700
     53 H2          0.1380    0.9570    2.9590 h1        1 B39      0.088700
     54 HO9         1.1390    2.9350    1.2600 ho        1 B39      0.456000
     55 HN31        1.6290    3.8210    3.9420 hn        1 B39      0.478467
     56 HN3A        2.8660    4.0710    5.0210 hn        1 B39      0.478467
     57 H182       -2.8800   -3.4670   -3.9890 hn        1 B39      0.465800
     58 H313        2.2670    2.5570    4.7740 hn        1 B39      0.478467
@<TRIPOS>BOND
     1    1    2 1   
     2    1   23 1   
     3    1   24 1   
     4    1   32 1   
     5    2    3 1   
     6    2   33 1   
     7    2   34 1   
     8    3    4 1   
     9    3   25 1   
    10    3   35 1   
    11    4   27 1   
    12    4   36 1   
    13    4   37 1   
    14    5   21 1   
    15    5   22 2   
    16    5   38 1   
    17    6   20 ar  
    18    6   21 ar  
    19    6   23 1   
    20    7   19 ar  
    21    7   20 ar  
    22    7   39 1   
    23    8   18 1   
    24    8   19 ar  
    25    8   21 ar  
    26    9   14 1   
    27    9   17 1   
    28    9   40 1   
    29    9   41 1   
    30   10   11 ar  
    31   10   13 ar  
    32   10   17 1   
    33   11   14 1   
    34   11   15 ar  
    35   12   15 ar  
    36   12   16 ar  
    37   12   42 1   
    38   13   16 ar  
    39   13   43 1   
    40   14   44 1   
    41   14   45 1   
    42   15   46 1   
    43   16   47 1   
    44   17   18 1   
    45   17   48 1   
    46   18   49 1   
    47   18   57 1   
    48   22   23 1   
    49   22   50 1   
    50   24   25 1   
    51   24   51 1   
    52   24   52 1   
    53   25   26 1   
    54   25   53 1   
    55   26   54 1   
    56   27   28 1   
    57   28   29 2   
    58   28   30 2   
    59   28   31 1   
    60   31   55 1   
    61   31   56 1   
    62   31   58 1   
@<TRIPOS>SUBSTRUCTURE
     1 B39         1 TEMP              0 ****  ****    0 ROOT
