@<TRIPOS>MOLECULE
B3A
   15    14     1     0     0
SMALL
bcc


@<TRIPOS>ATOM
      1 CG          0.2430   -0.4460   -0.9020 c3        1 B3A     -0.122100
      2 CB          1.6790   -0.6070   -1.4060 c3        1 B3A      0.157500
      3 N           2.5230    0.5620   -1.1770 n3        1 B3A     -0.906800
      4 CA          1.6450   -1.0300   -2.8760 c3        1 B3A     -0.192400
      5 C           0.9690   -2.3990   -3.0720 c         1 B3A      0.908600
      6 O           0.9970   -3.2450   -2.1320 o         1 B3A     -0.852300
      7 OXT         0.4230   -2.6140   -4.1930 o         1 B3A     -0.852300
      8 HG1        -0.2910    0.3610   -1.4570 hc        1 B3A      0.029700
      9 HG2         0.2220   -0.2030    0.1880 hc        1 B3A      0.029700
     10 HG3        -0.2920   -1.4150   -1.0680 hc        1 B3A      0.029700
     11 HB          2.1480   -1.4590   -0.8250 h1        1 B3A      0.081700
     12 H           2.3060    0.9610   -0.2830 hn        1 B3A      0.317800
     13 H2          2.3360    1.2590   -1.8740 hn        1 B3A      0.317800
     14 HA1         2.6880   -1.1140   -3.2740 hc        1 B3A      0.026700
     15 HA2         1.1010   -0.2670   -3.4860 hc        1 B3A      0.026700
@<TRIPOS>BOND
     1    1    2 1   
     2    1    8 1   
     3    1    9 1   
     4    1   10 1   
     5    2    3 1   
     6    2    4 1   
     7    2   11 1   
     8    3   12 1   
     9    3   13 1   
    10    4    5 1   
    11    4   14 1   
    12    4   15 1   
    13    5    6 1   
    14    5    7 1   
@<TRIPOS>SUBSTRUCTURE
     1 B3A         1 TEMP              0 ****  ****    0 ROOT
