@<TRIPOS>MOLECULE
B3A
   15    14     1     0     0
SMALL
bcc


@<TRIPOS>ATOM
      1 CG         -1.6690   -0.4020    0.1200 c3        1 B3A     -0.085100
      2 CB         -0.1570   -0.4020    0.1200 c3        1 B3A      0.170500
      3 N           0.3170   -0.4020    1.4610 n3        1 B3A     -0.906800
      4 CA          0.3470    0.8320   -0.5930 c3        1 B3A     -0.228400
      5 C           1.7810    0.6160   -1.0230 c         1 B3A      0.905600
      6 O           2.0300    0.0110   -2.0990 o         1 B3A     -0.852800
      7 OXT         2.7240    1.0400   -0.3060 o         1 B3A     -0.852800
      8 HG1        -1.9940    0.4110    0.5510 hc        1 B3A      0.017033
      9 HG2        -1.9940   -0.4350   -0.8000 hc        1 B3A      0.017033
     10 HG3        -1.9940   -1.1820    0.6080 hc        1 B3A      0.017033
     11 HB          0.1680   -1.1990   -0.3400 h1        1 B3A      0.045700
     12 H          -0.3860   -0.2960    2.0320 hn        1 B3A      0.351300
     13 H2          0.7340   -1.1940    1.6360 hn        1 B3A      0.351300
     14 HA1         0.3000    1.5980    0.0110 hc        1 B3A      0.025200
     15 HA2        -0.2070    1.0030   -1.3780 hc        1 B3A      0.025200
@<TRIPOS>BOND
     1    1    2 1   
     2    1    8 1   
     3    1    9 1   
     4    1   10 1   
     5    2    3 1   
     6    2    4 1   
     7    2   11 1   
     8    3   12 1   
     9    3   13 1   
    10    4    5 1   
    11    4   14 1   
    12    4   15 1   
    13    5    6 1   
    14    5    7 1   
@<TRIPOS>SUBSTRUCTURE
     1 B3A         1 TEMP              0 ****  ****    0 ROOT
