@<TRIPOS>MOLECULE
B3B
   36    38     1     0     0
SMALL
bcc


@<TRIPOS>ATOM
      1 O8          3.1630    2.4090   -0.1130 o         1 B3B     -0.577100
      2 C7          3.4630    1.8410    0.9470 c         1 B3B      0.597500
      3 C5          3.2200    0.4020    1.1530 ca        1 B3B     -0.180600
      4 C6          2.6780   -0.3850    0.1150 ca        1 B3B     -0.135900
      5 C1          2.4170   -1.7380    0.3050 ca        1 B3B     -0.101000
      6 C2          2.7160   -2.3260    1.5400 ca        1 B3B     -0.083000
      7 C3          3.2600   -1.5610    2.5690 ca        1 B3B     -0.109000
      8 C4          3.5110   -0.2000    2.3790 ca        1 B3B     -0.066000
      9 C9          2.4460    0.2840   -1.1790 ce        1 B3B      0.583800
     10 N10         1.2480    0.6620   -1.5210 n2        1 B3B     -0.524400
     11 N11         1.0260    1.4570   -2.6600 n4        1 B3B     -0.399800
     12 C12         1.3600    0.8950   -3.9700 cc        1 B3B      0.305300
     13 N13         2.6500    0.6680   -4.3300 nd        1 B3B     -0.598000
     14 C14         2.6710    0.1450   -5.6070 cd        1 B3B      0.452800
     15 C15         1.3870   -0.0180   -6.1710 cc        1 B3B     -0.255400
     16 S16         0.2010    0.4630   -5.1450 ss        1 B3B      0.156700
     17 C17         3.9100   -0.1940   -6.2970 ca        1 B3B     -0.164500
     18 C18         3.9740   -0.0810   -7.6940 ca        1 B3B     -0.095000
     19 C19         5.1470   -0.4130   -8.3670 ca        1 B3B     -0.126500
     20 C20         6.2630   -0.8560   -7.6550 ca        1 B3B     -0.093000
     21 C21         6.2050   -0.9650   -6.2660 ca        1 B3B     -0.126500
     22 C22         5.0350   -0.6340   -5.5840 ca        1 B3B     -0.095000
     23 H1          3.9290    2.3900    1.7940 h4        1 B3B      0.041200
     24 H2          1.9830   -2.3460   -0.5030 ha        1 B3B      0.153000
     25 H3          2.5140   -3.3980    1.6940 ha        1 B3B      0.162000
     26 H4          3.4930   -2.0290    3.5400 ha        1 B3B      0.163000
     27 H5          3.9370    0.4010    3.2000 ha        1 B3B      0.158000
     28 H6          3.3820    0.4770   -1.7630 h4        1 B3B      0.062800
     29 H7          1.5250    2.3660   -2.5590 hn        1 B3B      0.477300
     30 H8          1.2170   -0.4260   -7.1720 h4        1 B3B      0.220000
     31 H9          3.1020    0.2780   -8.2610 ha        1 B3B      0.135500
     32 H10         5.1940   -0.3210   -9.4630 ha        1 B3B      0.149000
     33 H11         7.1900   -1.1170   -8.1910 ha        1 B3B      0.151000
     34 H12         7.0850   -1.3120   -5.7030 ha        1 B3B      0.149000
     35 H13         5.0010   -0.7230   -4.4880 ha        1 B3B      0.135500
     36 H112        0.0050    1.6310   -2.6370 hn        1 B3B      0.477300
@<TRIPOS>BOND
     1    1    2 2   
     2    2    3 1   
     3    2   23 1   
     4    3    4 ar  
     5    3    8 ar  
     6    4    5 ar  
     7    4    9 1   
     8    5    6 ar  
     9    5   24 1   
    10    6    7 ar  
    11    6   25 1   
    12    7    8 ar  
    13    7   26 1   
    14    8   27 1   
    15    9   10 2   
    16    9   28 1   
    17   10   11 1   
    18   11   12 1   
    19   11   29 1   
    20   11   36 1   
    21   12   13 2   
    22   12   16 1   
    23   13   14 1   
    24   14   15 2   
    25   14   17 1   
    26   15   16 1   
    27   15   30 1   
    28   17   18 ar  
    29   17   22 ar  
    30   18   19 ar  
    31   18   31 1   
    32   19   20 ar  
    33   19   32 1   
    34   20   21 ar  
    35   20   33 1   
    36   21   22 ar  
    37   21   34 1   
    38   22   35 1   
@<TRIPOS>SUBSTRUCTURE
     1 B3B         1 TEMP              0 ****  ****    0 ROOT
