@<TRIPOS>MOLECULE
B3B
   35    37     1     0     0
SMALL
bcc


@<TRIPOS>ATOM
      1 O8         -0.4750   -0.0780    0.5680 o         1 B3B     -0.526100
      2 C7          0.6210   -0.6420    0.6090 c         1 B3B      0.583500
      3 C5          1.7430   -0.1550    1.4360 ca        1 B3B     -0.159600
      4 C6          3.0810   -0.3970    1.0900 ca        1 B3B     -0.086900
      5 C1          4.1060    0.0340    1.9470 ca        1 B3B     -0.129000
      6 C2          3.8030    0.7090    3.1260 ca        1 B3B     -0.107000
      7 C3          2.4730    0.9660    3.4620 ca        1 B3B     -0.132000
      8 C4          1.4510    0.5370    2.6200 ca        1 B3B     -0.083000
      9 C9          3.4900   -1.0860   -0.1420 ce        1 B3B      0.379800
     10 N10         2.9400   -0.8110   -1.2920 n2        1 B3B     -0.437400
     11 N11         3.2440   -1.5120   -2.3970 nu        1 B3B     -0.476000
     12 C12         2.9770   -0.8460   -3.6270 cc        1 B3B      0.569300
     13 N13         3.8220   -0.8300   -4.6790 nd        1 B3B     -0.666000
     14 C14         3.1930   -0.2090   -5.7540 cd        1 B3B      0.416800
     15 C15         1.9020    0.2500   -5.4790 cc        1 B3B     -0.292400
     16 S16         1.4500   -0.0950   -3.9210 ss        1 B3B      0.025700
     17 C17         3.8550   -0.0560   -7.0460 ca        1 B3B     -0.120500
     18 C18         3.0850   -0.0120   -8.2180 ca        1 B3B     -0.105500
     19 C19         3.7030    0.1480   -9.4570 ca        1 B3B     -0.136000
     20 C20         5.0900    0.2620   -9.5390 ca        1 B3B     -0.123000
     21 C21         5.8600    0.2130   -8.3780 ca        1 B3B     -0.136000
     22 C22         5.2500    0.0540   -7.1350 ca        1 B3B     -0.105500
     23 H1          0.8120   -1.5790    0.0400 h4        1 B3B      0.012200
     24 H2          5.1560   -0.1570    1.6790 ha        1 B3B      0.137000
     25 H3          4.6140    1.0440    3.7900 ha        1 B3B      0.138000
     26 H4          2.2320    1.5080    4.3890 ha        1 B3B      0.140000
     27 H5          0.3960    0.7420    2.8690 ha        1 B3B      0.155000
     28 H6          4.3120   -1.8210    0.0060 h4        1 B3B     -0.000200
     29 H7          4.1420   -1.9860   -2.4050 hn        1 B3B      0.402800
     30 H8          1.2740    0.7840   -6.1890 h4        1 B3B      0.185000
     31 H9          1.9910   -0.1110   -8.1600 ha        1 B3B      0.140000
     32 H10         3.0920    0.1810  -10.3710 ha        1 B3B      0.132000
     33 H11         5.5750    0.3880  -10.5180 ha        1 B3B      0.131000
     34 H12         6.9550    0.3000   -8.4400 ha        1 B3B      0.132000
     35 H13         5.8670    0.0140   -6.2240 ha        1 B3B      0.140000
@<TRIPOS>BOND
     1    1    2 2   
     2    2    3 1   
     3    2   23 1   
     4    3    4 ar  
     5    3    8 ar  
     6    4    5 ar  
     7    4    9 1   
     8    5    6 ar  
     9    5   24 1   
    10    6    7 ar  
    11    6   25 1   
    12    7    8 ar  
    13    7   26 1   
    14    8   27 1   
    15    9   10 2   
    16    9   28 1   
    17   10   11 1   
    18   11   12 1   
    19   11   29 1   
    20   12   13 2   
    21   12   16 1   
    22   13   14 1   
    23   14   15 2   
    24   14   17 1   
    25   15   16 1   
    26   15   30 1   
    27   17   18 ar  
    28   17   22 ar  
    29   18   19 ar  
    30   18   31 1   
    31   19   20 ar  
    32   19   32 1   
    33   20   21 ar  
    34   20   33 1   
    35   21   22 ar  
    36   21   34 1   
    37   22   35 1   
@<TRIPOS>SUBSTRUCTURE
     1 B3B         1 TEMP              0 ****  ****    0 ROOT
