@<TRIPOS>MOLECULE
B3D
   17    16     1     0     0
SMALL
bcc


@<TRIPOS>ATOM
      1 OE1         3.3700   -0.3650    0.9450 o         1 B3D     -0.877050
      2 CD          2.5690   -0.1410   -0.0130 c         1 B3D      0.908600
      3 OE2         2.8880    0.6080   -0.9890 o         1 B3D     -0.877050
      4 CG          1.2160   -0.8540   -0.0180 c3        1 B3D     -0.195400
      5 CB         -0.0250    0.0620   -0.0130 c3        1 B3D      0.181500
      6 N           0.0500    1.1770   -0.9460 n3        1 B3D     -0.889800
      7 CA         -1.2570   -0.8280   -0.2410 c3        1 B3D     -0.195400
      8 C          -2.5840   -0.2540    0.2630 c         1 B3D      0.908600
      9 O          -2.6800    0.1570    1.4580 o         1 B3D     -0.877050
     10 OXT        -3.5830   -0.2860   -0.5230 o         1 B3D     -0.877050
     11 HG3         1.1850   -1.5010   -0.9340 hc        1 B3D      0.014200
     12 HG2         1.1610   -1.5220    0.8780 hc        1 B3D      0.014200
     13 HB         -0.1250    0.5180    1.0170 h1        1 B3D      0.068700
     14 H           0.9490    1.6190   -0.8400 hn        1 B3D      0.332800
     15 H2          0.0070    0.8230   -1.8830 hn        1 B3D      0.332800
     16 HA1        -1.3590   -1.0770   -1.3280 hc        1 B3D      0.014200
     17 HA2        -1.0950   -1.7890    0.3130 hc        1 B3D      0.014200
@<TRIPOS>BOND
     1    1    2 1   
     2    2    3 1   
     3    2    4 1   
     4    4    5 1   
     5    4   11 1   
     6    4   12 1   
     7    5    6 1   
     8    5    7 1   
     9    5   13 1   
    10    6   14 1   
    11    6   15 1   
    12    7    8 1   
    13    7   16 1   
    14    7   17 1   
    15    8    9 1   
    16    8   10 1   
@<TRIPOS>SUBSTRUCTURE
     1 B3D         1 TEMP              0 ****  ****    0 ROOT
