@<TRIPOS>MOLECULE
B3D
   17    16     1     0     0
SMALL
bcc


@<TRIPOS>ATOM
      1 OE1         0.5090    1.7910    2.7310 o         1 B3D     -0.877050
      2 CD         -0.3950    1.4220    1.9500 c         1 B3D      0.908600
      3 OE2        -1.5380    1.2040    2.3840 o         1 B3D     -0.877050
      4 CG         -0.1220    1.3050    0.5130 c3        1 B3D     -0.195400
      5 CB          0.1210   -0.1470    0.1670 c3        1 B3D      0.181500
      6 N           1.4230   -0.5470    0.6520 n3        1 B3D     -0.889800
      7 CA          0.0630   -0.3330   -1.3660 c3        1 B3D     -0.195400
      8 C          -0.8550   -1.4990   -1.7010 c         1 B3D      0.908600
      9 O          -2.0920   -1.3120   -1.8190 o         1 B3D     -0.877050
     10 OXT        -0.3700   -2.6270   -1.9350 o         1 B3D     -0.877050
     11 HG3         0.6630    1.8260    0.2890 hc        1 B3D      0.014200
     12 HG2        -0.8830    1.6350    0.0110 hc        1 B3D      0.014200
     13 HB         -0.5700   -0.7040    0.5910 h1        1 B3D      0.068700
     14 H           2.0000   -0.5970   -0.0400 hn        1 B3D      0.332800
     15 H2          1.3590   -1.3770    1.0600 hn        1 B3D      0.332800
     16 HA1         0.9670   -0.5180   -1.7080 hc        1 B3D      0.014200
     17 HA2        -0.2800    0.4780   -1.7780 hc        1 B3D      0.014200
@<TRIPOS>BOND
     1    1    2 1   
     2    2    3 1   
     3    2    4 1   
     4    4    5 1   
     5    4   11 1   
     6    4   12 1   
     7    5    6 1   
     8    5    7 1   
     9    5   13 1   
    10    6   14 1   
    11    6   15 1   
    12    7    8 1   
    13    7   16 1   
    14    7   17 1   
    15    8    9 1   
    16    8   10 1   
@<TRIPOS>SUBSTRUCTURE
     1 B3D         1 TEMP              0 ****  ****    0 ROOT
