@<TRIPOS>MOLECULE
B3E
   20    19     1     0     0
SMALL
bcc


@<TRIPOS>ATOM
      1 N          -1.6970    0.0800   -0.5060 n3        1 B3E     -0.906800
      2 CB         -0.2960   -0.0680   -0.5240 c3        1 B3E      0.168500
      3 CG          0.2170   -0.1190    0.8760 c3        1 B3E     -0.057400
      4 CD          0.3110    1.2990    1.4400 c3        1 B3E     -0.176400
      5 CE          0.9320    1.2540    2.8190 c         1 B3E      0.900600
      6 OF2         0.2010    1.1720    3.8280 o         1 B3E     -0.875300
      7 OF1         2.1740    1.4550    2.9560 o         1 B3E     -0.875300
      8 CA          0.0690   -1.3680   -1.2440 c3        1 B3E     -0.218400
      9 C           0.2120   -1.1010   -2.7500 c         1 B3E      0.902600
     10 O           1.2880   -0.6550   -3.2080 o         1 B3E     -0.871800
     11 OXT        -0.7660   -1.3280   -3.5320 o         1 B3E     -0.871800
     12 H          -2.0830   -0.6860   -0.7870 hn        1 B3E      0.342300
     13 H2         -1.9360    0.7550   -1.0550 hn        1 B3E      0.342300
     14 HB          0.1030    0.6820   -0.9870 h1        1 B3E      0.039700
     15 HG2         1.0940   -0.5270    0.8820 hc        1 B3E      0.030700
     16 HG3        -0.3970   -0.6520    1.4310 hc        1 B3E      0.030700
     17 HD2        -0.5960    1.6920    1.4990 hc        1 B3E      0.023700
     18 HD3         0.8690    1.8490    0.8480 hc        1 B3E      0.023700
     19 HA1         0.9270   -1.7130   -0.8870 hc        1 B3E      0.023700
     20 HA2        -0.6250   -2.0200   -1.0990 hc        1 B3E      0.023700
@<TRIPOS>BOND
     1    1    2 1   
     2    1   12 1   
     3    1   13 1   
     4    2    3 1   
     5    2    8 1   
     6    2   14 1   
     7    3    4 1   
     8    3   15 1   
     9    3   16 1   
    10    4    5 1   
    11    4   17 1   
    12    4   18 1   
    13    5    6 1   
    14    5    7 1   
    15    8    9 1   
    16    8   19 1   
    17    8   20 1   
    18    9   10 1   
    19    9   11 1   
@<TRIPOS>SUBSTRUCTURE
     1 B3E         1 TEMP              0 ****  ****    0 ROOT
