@<TRIPOS>MOLECULE
B3E
   20    19     1     0     0
SMALL
bcc


@<TRIPOS>ATOM
      1 N           1.3350   -2.4210    0.3380 n3        1 B3E     -0.906800
      2 CB          0.6990   -3.7180    0.5240 c3        1 B3E      0.168500
      3 CG         -0.7380   -3.7670   -0.0290 c3        1 B3E     -0.057400
      4 CD         -1.6890   -2.8310    0.6760 c3        1 B3E     -0.176400
      5 CE         -3.1140   -2.9140    0.1170 c         1 B3E      0.900600
      6 OF2        -3.3050   -2.8150   -1.1330 o         1 B3E     -0.875300
      7 OF1        -4.0740   -3.0480    0.9380 o         1 B3E     -0.875300
      8 CA          1.4810   -4.9010   -0.0720 c3        1 B3E     -0.218400
      9 C           2.9450   -4.9690    0.3710 c         1 B3E      0.902600
     10 O           3.3300   -5.9720    1.0420 o         1 B3E     -0.871800
     11 OXT         3.7420   -4.0420    0.0220 o         1 B3E     -0.871800
     12 H           1.2600   -2.1560   -0.6270 hn        1 B3E      0.342300
     13 H2          2.3160   -2.5120    0.5490 hn        1 B3E      0.342300
     14 HB          0.6460   -3.8750    1.6430 h1        1 B3E      0.039700
     15 HG2        -0.7390   -3.5320   -1.1250 hc        1 B3E      0.030700
     16 HG3        -1.1100   -4.8190    0.0840 hc        1 B3E      0.030700
     17 HD2        -1.3400   -1.7730    0.5590 hc        1 B3E      0.023700
     18 HD3        -1.7110   -3.0630    1.7710 hc        1 B3E      0.023700
     19 HA1         0.9700   -5.8510    0.2260 hc        1 B3E      0.023700
     20 HA2         1.4600   -4.8320   -1.1890 hc        1 B3E      0.023700
@<TRIPOS>BOND
     1    1    2 1   
     2    1   12 1   
     3    1   13 1   
     4    2    3 1   
     5    2    8 1   
     6    2   14 1   
     7    3    4 1   
     8    3   15 1   
     9    3   16 1   
    10    4    5 1   
    11    4   17 1   
    12    4   18 1   
    13    5    6 1   
    14    5    7 1   
    15    8    9 1   
    16    8   19 1   
    17    8   20 1   
    18    9   10 1   
    19    9   11 1   
@<TRIPOS>SUBSTRUCTURE
     1 B3E         1 TEMP              0 ****  ****    0 ROOT
