@<TRIPOS>MOLECULE
B3H
   51    50     1     0     0
SMALL
bcc


@<TRIPOS>ATOM
      1 O11        -0.2070    1.0310   -0.2920 o         1 B3H     -0.536000
      2 C11         0.9590    0.7140   -0.0550 c         1 B3H      0.637100
      3 C12         1.7160    0.7620    1.2350 c3        1 B3H     -0.127400
      4 C13         0.8560    0.2840    2.3860 c3        1 B3H     -0.079400
      5 C14         1.5770    0.4640    3.7040 c3        1 B3H     -0.079400
      6 C15         0.7310   -0.0290    4.8590 c3        1 B3H     -0.079400
      7 C16         1.4470    0.1540    6.1800 c3        1 B3H     -0.079400
      8 C17         0.6020   -0.3400    7.3340 c3        1 B3H     -0.079400
      9 C18         1.3160   -0.1580    8.6570 c3        1 B3H     -0.080400
     10 C19         0.4790   -0.6470    9.8090 c3        1 B3H     -0.093100
     11 O21         3.4590    0.4760   -5.6500 o         1 B3H     -0.543000
     12 C21         3.6060    1.3100   -4.7560 c         1 B3H      0.642100
     13 C22         4.4300    2.5600   -4.7510 c3        1 B3H     -0.127400
     14 C23         4.4520    3.2050   -6.1210 c3        1 B3H     -0.080400
     15 C24         5.3920    4.3820   -6.1470 c3        1 B3H     -0.094100
     16 C41         1.1060    0.2160   -2.3880 c3        1 B3H      0.136400
     17 O41         1.7250    0.2520   -1.0950 os        1 B3H     -0.455900
     18 C42         2.1940   -0.0940   -3.4150 c3        1 B3H      0.102100
     19 O42         2.9500    1.1170   -3.5670 os        1 B3H     -0.435900
     20 C43         3.1240   -1.2330   -2.9910 c3        1 B3H      0.122400
     21 O43         4.1940   -0.7980   -2.1820 oh        1 B3H     -0.595800
     22 H121        2.6460    0.1400    1.1520 hc        1 B3H      0.079700
     23 H122        2.0290    1.8290    1.3980 hc        1 B3H      0.079700
     24 H131       -0.1100    0.8560    2.3940 hc        1 B3H      0.057700
     25 H132        0.5990   -0.7980    2.2400 hc        1 B3H      0.057700
     26 H141        1.8230    1.5480    3.8550 hc        1 B3H      0.041700
     27 H142        2.5490   -0.0970    3.6830 hc        1 B3H      0.041700
     28 H151       -0.2420    0.5290    4.8770 hc        1 B3H      0.042700
     29 H152        0.4870   -1.1140    4.7100 hc        1 B3H      0.042700
     30 H161        2.4210   -0.4040    6.1610 hc        1 B3H      0.039700
     31 H162        1.6910    1.2390    6.3290 hc        1 B3H      0.039700
     32 H171        0.3590   -1.4250    7.1860 hc        1 B3H      0.040700
     33 H172       -0.3710    0.2180    7.3540 hc        1 B3H      0.040700
     34 H181        2.2900   -0.7140    8.6350 hc        1 B3H      0.038700
     35 H182        1.5600    0.9280    8.8030 hc        1 B3H      0.038700
     36 H191        0.2460   -1.7340    9.6940 hc        1 B3H      0.032700
     37 H192       -0.4860   -0.0870    9.8620 hc        1 B3H      0.032700
     38 H193        1.0230   -0.5040   10.7740 hc        1 B3H      0.032700
     39 H221        5.4700    2.2690   -4.4380 hc        1 B3H      0.081200
     40 H222        4.0290    3.2730   -3.9840 hc        1 B3H      0.081200
     41 H231        3.4170    3.5390   -6.3930 hc        1 B3H      0.056700
     42 H232        4.7650    2.4440   -6.8840 hc        1 B3H      0.056700
     43 H241        5.3870    4.8540   -7.1590 hc        1 B3H      0.037700
     44 H242        5.0860    5.1510   -5.3970 hc        1 B3H      0.037700
     45 H243        6.4360    4.0610   -5.9130 hc        1 B3H      0.037700
     46 H411        0.3330   -0.5960   -2.3880 h1        1 B3H      0.068200
     47 H412        0.6230    1.2060   -2.5990 h1        1 B3H      0.068200
     48 H42         1.6940   -0.3560   -4.3900 h1        1 B3H      0.087700
     49 H431        2.5240   -2.0130   -2.4520 h1        1 B3H      0.056700
     50 H432        3.6170   -1.6810   -3.8970 h1        1 B3H      0.056700
     51 HO43        3.8260   -0.2280   -1.4940 ho        1 B3H      0.416000
@<TRIPOS>BOND
     1    1    2 2   
     2    2    3 1   
     3    2   17 1   
     4    3    4 1   
     5    3   22 1   
     6    3   23 1   
     7    4    5 1   
     8    4   24 1   
     9    4   25 1   
    10    5    6 1   
    11    5   26 1   
    12    5   27 1   
    13    6    7 1   
    14    6   28 1   
    15    6   29 1   
    16    7    8 1   
    17    7   30 1   
    18    7   31 1   
    19    8    9 1   
    20    8   32 1   
    21    8   33 1   
    22    9   10 1   
    23    9   34 1   
    24    9   35 1   
    25   10   36 1   
    26   10   37 1   
    27   10   38 1   
    28   11   12 2   
    29   12   13 1   
    30   12   19 1   
    31   13   14 1   
    32   13   39 1   
    33   13   40 1   
    34   14   15 1   
    35   14   41 1   
    36   14   42 1   
    37   15   43 1   
    38   15   44 1   
    39   15   45 1   
    40   16   17 1   
    41   16   18 1   
    42   16   46 1   
    43   16   47 1   
    44   18   19 1   
    45   18   20 1   
    46   18   48 1   
    47   20   21 1   
    48   20   49 1   
    49   20   50 1   
    50   21   51 1   
@<TRIPOS>SUBSTRUCTURE
     1 B3H         1 TEMP              0 ****  ****    0 ROOT
