@<TRIPOS>MOLECULE
B3H
   51    48     1     0     0
SMALL
bcc


@<TRIPOS>ATOM
      1 O11        -2.1150    1.6240   -0.5710 o         1 B3H     -0.350000
      2 C11        -0.9040    1.6230   -0.4800 c1        1 B3H      0.305000
      3 C12        -0.2470    1.7040    0.8810 c2        1 B3H     -0.155000
      4 C13        -1.1900    1.1560    1.9290 c3        1 B3H     -0.158000
      5 C14        -0.4470    0.9840    3.2350 c3        1 B3H     -0.157000
      6 C15        -1.3780    0.3930    4.2710 c3        1 B3H     -0.158000
      7 C16        -0.5760   -0.0480    5.4760 c3        1 B3H     -0.158000
      8 C17        -1.4960   -0.7110    6.4780 c3        1 B3H     -0.158000
      9 C18        -0.6710   -1.4730    7.4920 c3        1 B3H     -0.159000
     10 C19        -1.5920   -2.1640    8.4740 c3        1 B3H     -0.211000
     11 O21         2.2680    0.6040   -5.1760 o         1 B3H     -0.370000
     12 C21         1.4310   -0.2630   -5.0210 c1        1 B3H      0.322000
     13 C22         1.7080   -1.6750   -5.4860 c2        1 B3H     -0.154000
     14 C23         2.9580   -1.6890   -6.3380 c3        1 B3H     -0.159000
     15 C24         3.2660   -3.1090   -6.7600 c3        1 B3H     -0.212000
     16 C41        -0.8550    1.4890   -2.8340 c3        1 B3H     -0.013000
     17 O41        -0.1130    1.5380   -1.6380 os        1 B3H     -0.285000
     18 C42         0.0900    1.3910   -4.0100 c3        1 B3H     -0.011000
     19 O42         0.2050    0.0470   -4.4080 os        1 B3H     -0.272000
     20 C43        -0.4490    2.2120   -5.1600 c3        1 B3H     -0.033000
     21 O43         0.6220    2.8390   -5.8320 oh        1 B3H     -0.324000
     22 H121       -0.0380    2.6370    1.0870 ha        1 B3H      0.119000
     23 H122        0.5770    1.1780    0.8760 ha        1 B3H      0.119000
     24 H131       -1.5370    0.2900    1.6350 hc        1 B3H      0.097000
     25 H132       -1.9340    1.7780    2.0560 hc        1 B3H      0.097000
     26 H141       -0.1260    1.8540    3.5450 hc        1 B3H      0.080500
     27 H142        0.3140    0.3840    3.1010 hc        1 B3H      0.080500
     28 H151       -2.0320    1.0670    4.5440 hc        1 B3H      0.082000
     29 H152       -1.8430   -0.3780    3.8890 hc        1 B3H      0.082000
     30 H161        0.1120   -0.6840    5.1950 hc        1 B3H      0.079000
     31 H162       -0.1520    0.7310    5.8890 hc        1 B3H      0.079000
     32 H171       -2.0260   -0.0280    6.9360 hc        1 B3H      0.079500
     33 H172       -2.0940   -1.3300    6.0130 hc        1 B3H      0.079500
     34 H181       -0.0890   -0.8520    7.9730 hc        1 B3H      0.078000
     35 H182       -0.1250   -2.1420    7.0320 hc        1 B3H      0.078000
     36 H191       -2.0670   -1.4910    9.0050 hc        1 B3H      0.072000
     37 H192       -1.0640   -2.7370    9.0690 hc        1 B3H      0.072000
     38 H193       -2.2410   -2.7110    7.9840 hc        1 B3H      0.072000
     39 H221        1.8370   -2.2550   -4.7090 ha        1 B3H      0.119000
     40 H222        0.9510   -2.0000   -6.0130 ha        1 B3H      0.119000
     41 H231        3.7090   -1.3330   -5.8220 hc        1 B3H      0.098500
     42 H232        2.8170   -1.1360   -7.1330 hc        1 B3H      0.098500
     43 H241        2.5050   -3.4740   -7.2580 hc        1 B3H      0.076667
     44 H242        3.4290   -3.6580   -5.9640 hc        1 B3H      0.076667
     45 H243        4.0630   -3.1150   -7.3300 hc        1 B3H      0.076667
     46 H411       -1.4440    0.7070   -2.8210 h1        1 B3H      0.110000
     47 H412       -1.3950    2.3030   -2.9160 h1        1 B3H      0.110000
     48 H42         0.9700    1.7300   -3.7510 h1        1 B3H      0.132000
     49 H431       -0.9280    1.6270   -5.7830 h1        1 B3H      0.094000
     50 H432       -1.0610    2.8940   -4.8150 h1        1 B3H      0.094000
     51 HO43        0.3950    3.6740   -6.0360 ho        1 B3H      0.219000
@<TRIPOS>BOND
     1    1    2 1   
     2    2   17 1   
     3    3    4 1   
     4    3   22 1   
     5    3   23 1   
     6    4    5 1   
     7    4   24 1   
     8    4   25 1   
     9    5    6 1   
    10    5   26 1   
    11    5   27 1   
    12    6    7 1   
    13    6   28 1   
    14    6   29 1   
    15    7    8 1   
    16    7   30 1   
    17    7   31 1   
    18    8    9 1   
    19    8   32 1   
    20    8   33 1   
    21    9   10 1   
    22    9   34 1   
    23    9   35 1   
    24   10   36 1   
    25   10   37 1   
    26   10   38 1   
    27   11   12 1   
    28   12   19 1   
    29   13   14 1   
    30   13   39 1   
    31   13   40 1   
    32   14   15 1   
    33   14   41 1   
    34   14   42 1   
    35   15   43 1   
    36   15   44 1   
    37   15   45 1   
    38   16   17 1   
    39   16   18 1   
    40   16   46 1   
    41   16   47 1   
    42   18   19 1   
    43   18   20 1   
    44   18   48 1   
    45   20   21 1   
    46   20   49 1   
    47   20   50 1   
    48   21   51 1   
@<TRIPOS>SUBSTRUCTURE
     1 B3H         1 TEMP              0 ****  ****    0 ROOT
