@<TRIPOS>MOLECULE
B3H
   51    50     1     0     0
SMALL
bcc


@<TRIPOS>ATOM
      1 O11         0.1830    0.7870   -2.3150 o         1 B3H     -0.536000
      2 C11         0.1960    0.4800   -1.1230 c         1 B3H      0.637100
      3 C12         1.2550   -0.2200   -0.3310 c3        1 B3H     -0.127400
      4 C13         2.6330    0.2910   -0.6980 c3        1 B3H     -0.079400
      5 C14         3.7070   -0.5140    0.0030 c3        1 B3H     -0.079400
      6 C15         5.0870    0.0030   -0.3450 c3        1 B3H     -0.079400
      7 C16         6.1630   -0.8020    0.3500 c3        1 B3H     -0.079400
      8 C17         7.5430   -0.2860    0.0040 c3        1 B3H     -0.079400
      9 C18         8.6220   -1.0900    0.6980 c3        1 B3H     -0.080400
     10 C19         9.9980   -0.5790    0.3560 c3        1 B3H     -0.093100
     11 O21        -5.7100    0.9600    0.4600 o         1 B3H     -0.543000
     12 C21        -5.0180   -0.0450    0.2940 c         1 B3H      0.642100
     13 C22        -5.3990   -1.4880    0.4020 c3        1 B3H     -0.127400
     14 C23        -6.8240   -1.7120   -0.0620 c3        1 B3H     -0.080400
     15 C24        -7.2500   -3.1370    0.1780 c3        1 B3H     -0.094100
     16 C41        -1.9990    1.4220   -1.0450 c3        1 B3H      0.136400
     17 O41        -0.9030    0.7930   -0.3660 os        1 B3H     -0.455900
     18 C42        -3.1830    1.4590   -0.0800 c3        1 B3H      0.102100
     19 O42        -3.6960    0.1180   -0.0330 os        1 B3H     -0.435900
     20 C43        -2.8060    1.9180    1.3300 c3        1 B3H      0.122400
     21 O43        -2.3420    0.8660    2.1460 oh        1 B3H     -0.595800
     22 H121        1.1720   -1.3170   -0.5590 hc        1 B3H      0.079700
     23 H122        1.0620   -0.0810    0.7660 hc        1 B3H      0.079700
     24 H131        2.7220    1.3720   -0.4120 hc        1 B3H      0.057700
     25 H132        2.7700    0.2290   -1.8100 hc        1 B3H      0.057700
     26 H141        3.6230   -1.5930   -0.2930 hc        1 B3H      0.041700
     27 H142        3.5540   -0.4620    1.1130 hc        1 B3H      0.041700
     28 H151        5.1710    1.0810   -0.0460 hc        1 B3H      0.042700
     29 H152        5.2370   -0.0460   -1.4550 hc        1 B3H      0.042700
     30 H161        6.0800   -1.8800    0.0510 hc        1 B3H      0.039700
     31 H162        6.0120   -0.7550    1.4610 hc        1 B3H      0.039700
     32 H171        7.6280    0.7920    0.3030 hc        1 B3H      0.040700
     33 H172        7.6960   -0.3330   -1.1060 hc        1 B3H      0.040700
     34 H181        8.5350   -2.1680    0.3990 hc        1 B3H      0.038700
     35 H182        8.4680   -1.0430    1.8080 hc        1 B3H      0.038700
     36 H191       10.1130    0.4860    0.6700 hc        1 B3H      0.032700
     37 H192       10.7780   -1.1860    0.8780 hc        1 B3H      0.032700
     38 H193       10.1800   -0.6420   -0.7440 hc        1 B3H      0.032700
     39 H221       -4.6860   -2.1140   -0.1970 hc        1 B3H      0.081200
     40 H222       -5.2880   -1.7800    1.4810 hc        1 B3H      0.081200
     41 H231       -7.5060   -1.0080    0.4830 hc        1 B3H      0.056700
     42 H232       -6.9040   -1.4700   -1.1550 hc        1 B3H      0.056700
     43 H241       -6.5830   -3.8480   -0.3680 hc        1 B3H      0.037700
     44 H242       -7.2120   -3.3850    1.2660 hc        1 B3H      0.037700
     45 H243       -8.2970   -3.2890   -0.1810 hc        1 B3H      0.037700
     46 H411       -1.6940    2.4660   -1.3190 h1        1 B3H      0.068200
     47 H412       -2.2500    0.8390   -1.9690 h1        1 B3H      0.068200
     48 H42        -3.9640    2.1500   -0.5070 h1        1 B3H      0.087700
     49 H431       -2.0270    2.7220    1.2560 h1        1 B3H      0.056700
     50 H432       -3.7170    2.3080    1.8610 h1        1 B3H      0.056700
     51 HO43       -1.6880    0.3690    1.6360 ho        1 B3H      0.416000
@<TRIPOS>BOND
     1    1    2 2   
     2    2    3 1   
     3    2   17 1   
     4    3    4 1   
     5    3   22 1   
     6    3   23 1   
     7    4    5 1   
     8    4   24 1   
     9    4   25 1   
    10    5    6 1   
    11    5   26 1   
    12    5   27 1   
    13    6    7 1   
    14    6   28 1   
    15    6   29 1   
    16    7    8 1   
    17    7   30 1   
    18    7   31 1   
    19    8    9 1   
    20    8   32 1   
    21    8   33 1   
    22    9   10 1   
    23    9   34 1   
    24    9   35 1   
    25   10   36 1   
    26   10   37 1   
    27   10   38 1   
    28   11   12 2   
    29   12   13 1   
    30   12   19 1   
    31   13   14 1   
    32   13   39 1   
    33   13   40 1   
    34   14   15 1   
    35   14   41 1   
    36   14   42 1   
    37   15   43 1   
    38   15   44 1   
    39   15   45 1   
    40   16   17 1   
    41   16   18 1   
    42   16   46 1   
    43   16   47 1   
    44   18   19 1   
    45   18   20 1   
    46   18   48 1   
    47   20   21 1   
    48   20   49 1   
    49   20   50 1   
    50   21   51 1   
@<TRIPOS>SUBSTRUCTURE
     1 B3H         1 TEMP              0 ****  ****    0 ROOT
