@<TRIPOS>MOLECULE
B3H
   51    50     1     0     0
SMALL
bcc


@<TRIPOS>ATOM
      1 O11        -0.2050    1.0110   -0.2940 o         1 B3H     -0.536000
      2 C11         0.9620    0.6980   -0.0570 c         1 B3H      0.637100
      3 C12         1.7190    0.7490    1.2330 c3        1 B3H     -0.127400
      4 C13         0.8590    0.2750    2.3860 c3        1 B3H     -0.079400
      5 C14         1.5810    0.4590    3.7030 c3        1 B3H     -0.079400
      6 C15         0.7340   -0.0290    4.8590 c3        1 B3H     -0.079400
      7 C16         1.4500    0.1570    6.1800 c3        1 B3H     -0.079400
      8 C17         0.6050   -0.3310    7.3360 c3        1 B3H     -0.079400
      9 C18         1.3190   -0.1460    8.6580 c3        1 B3H     -0.080400
     10 C19         0.4810   -0.6300    9.8120 c3        1 B3H     -0.093100
     11 O21         3.4610    0.4760   -5.6520 o         1 B3H     -0.543000
     12 C21         3.6040    1.3100   -4.7570 c         1 B3H      0.642100
     13 C22         4.4210    2.5640   -4.7500 c3        1 B3H     -0.127400
     14 C23         4.4380    3.2130   -6.1180 c3        1 B3H     -0.080400
     15 C24         5.3710    4.3950   -6.1430 c3        1 B3H     -0.094100
     16 C41         1.1100    0.1990   -2.3890 c3        1 B3H      0.136400
     17 O41         1.7290    0.2380   -1.0960 os        1 B3H     -0.455900
     18 C42         2.2000   -0.1040   -3.4170 c3        1 B3H      0.102100
     19 O42         2.9490    1.1120   -3.5680 os        1 B3H     -0.435900
     20 C43         3.1360   -1.2380   -2.9950 c3        1 B3H      0.122400
     21 O43         4.2040   -0.7990   -2.1850 oh        1 B3H     -0.595800
     22 H121        2.0330    1.8160    1.3930 hc        1 B3H      0.079700
     23 H122        2.6490    0.1250    1.1510 hc        1 B3H      0.079700
     24 H131       -0.1060    0.8490    2.3920 hc        1 B3H      0.057700
     25 H132        0.6010   -0.8070    2.2430 hc        1 B3H      0.057700
     26 H141        2.5510   -0.1040    3.6840 hc        1 B3H      0.041700
     27 H142        1.8280    1.5430    3.8500 hc        1 B3H      0.041700
     28 H151        0.4880   -1.1140    4.7140 hc        1 B3H      0.042700
     29 H152       -0.2380    0.5310    4.8760 hc        1 B3H      0.042700
     30 H161        2.4230   -0.4030    6.1620 hc        1 B3H      0.039700
     31 H162        1.6960    1.2420    6.3250 hc        1 B3H      0.039700
     32 H171        0.3590   -1.4160    7.1910 hc        1 B3H      0.040700
     33 H172       -0.3680    0.2280    7.3540 hc        1 B3H      0.040700
     34 H181        1.5650    0.9400    8.8000 hc        1 B3H      0.038700
     35 H182        2.2920   -0.7040    8.6380 hc        1 B3H      0.038700
     36 H191        0.2460   -1.7160    9.7010 hc        1 B3H      0.032700
     37 H192        1.0260   -0.4840   10.7760 hc        1 B3H      0.032700
     38 H193       -0.4830   -0.0680    9.8630 hc        1 B3H      0.032700
     39 H221        5.4620    2.2790   -4.4390 hc        1 B3H      0.081200
     40 H222        4.0170    3.2740   -3.9810 hc        1 B3H      0.081200
     41 H231        3.4000    3.5420   -6.3890 hc        1 B3H      0.056700
     42 H232        4.7540    2.4550   -6.8840 hc        1 B3H      0.056700
     43 H241        5.3620    4.8690   -7.1540 hc        1 B3H      0.037700
     44 H242        6.4170    4.0790   -5.9110 hc        1 B3H      0.037700
     45 H243        5.0610    5.1610   -5.3910 hc        1 B3H      0.037700
     46 H411        0.3420   -0.6180   -2.3910 h1        1 B3H      0.068200
     47 H412        0.6210    1.1860   -2.6000 h1        1 B3H      0.068200
     48 H42         1.7010   -0.3670   -4.3920 h1        1 B3H      0.087700
     49 H431        3.6310   -1.6820   -3.9020 h1        1 B3H      0.056700
     50 H432        2.5400   -2.0220   -2.4560 h1        1 B3H      0.056700
     51 HO43        3.8320   -0.2310   -1.4970 ho        1 B3H      0.416000
@<TRIPOS>BOND
     1    1    2 2   
     2    2    3 1   
     3    2   17 1   
     4    3    4 1   
     5    3   22 1   
     6    3   23 1   
     7    4    5 1   
     8    4   24 1   
     9    4   25 1   
    10    5    6 1   
    11    5   26 1   
    12    5   27 1   
    13    6    7 1   
    14    6   28 1   
    15    6   29 1   
    16    7    8 1   
    17    7   30 1   
    18    7   31 1   
    19    8    9 1   
    20    8   32 1   
    21    8   33 1   
    22    9   10 1   
    23    9   34 1   
    24    9   35 1   
    25   10   36 1   
    26   10   37 1   
    27   10   38 1   
    28   11   12 2   
    29   12   13 1   
    30   12   19 1   
    31   13   14 1   
    32   13   39 1   
    33   13   40 1   
    34   14   15 1   
    35   14   41 1   
    36   14   42 1   
    37   15   43 1   
    38   15   44 1   
    39   15   45 1   
    40   16   17 1   
    41   16   18 1   
    42   16   46 1   
    43   16   47 1   
    44   18   19 1   
    45   18   20 1   
    46   18   48 1   
    47   20   21 1   
    48   20   49 1   
    49   20   50 1   
    50   21   51 1   
@<TRIPOS>SUBSTRUCTURE
     1 B3H         1 TEMP              0 ****  ****    0 ROOT
