@<TRIPOS>MOLECULE
B3I
   14    10     1     0     0
SMALL
bcc


@<TRIPOS>ATOM
      1 C2         -0.1910    0.0000   -1.1300 c1        1 B3I     -0.206000
      2 C3          1.1950    0.0000   -1.1300 c1        1 B3I     -0.252000
      3 C5          1.1950    0.0000    1.2710 c1        1 B3I     -0.252000
      4 C6         -0.1910    0.0000    1.2710 c1        1 B3I     -0.089000
      5 C          -2.3970   -0.0060    0.0700 c1        1 B3I      0.362000
      6 O1         -3.0310    1.0810    0.1140 o         1 B3I     -0.534000
      7 O2         -3.0220   -1.0980    0.0210 os        1 B3I     -0.534000
      8 C1         -0.8840    0.0000    0.0700 c1        1 B3I     -0.051000
      9 C4          1.8880    0.0000    0.0700 c1        1 B3I     -0.089000
     10 I1         -1.2450    0.0200   -2.9550 i         1 B3I      0.149000
     11 I2          2.2490   -0.0220   -2.9550 i         1 B3I      0.102000
     12 I3          2.2490    0.0210    3.0950 i         1 B3I      0.102000
     13 H6         -0.6790    0.0000    2.1160 ha        1 B3I      0.146000
     14 H4          2.8640    0.0000    0.0700 ha        1 B3I      0.146000
@<TRIPOS>BOND
     1    1    8 1   
     2    1   10 1   
     3    2    9 1   
     4    2   11 1   
     5    3    4 1   
     6    3   12 1   
     7    4   13 1   
     8    5    6 1   
     9    5    8 1   
    10    9   14 1   
@<TRIPOS>SUBSTRUCTURE
     1 B3I         1 TEMP              0 ****  ****    0 ROOT
