@<TRIPOS>MOLECULE
B3I
   14    14     1     0     0
SMALL
bcc


@<TRIPOS>ATOM
      1 C2          0.6150   -0.1320    0.7400 ca        1 B3I      0.079900
      2 C3         -0.6850   -0.1140    0.2180 ca        1 B3I      0.038900
      3 C5          0.1960    0.1530   -2.0070 ca        1 B3I      0.028900
      4 C6          1.4870    0.1350   -1.4950 ca        1 B3I     -0.070000
      5 O1          3.6930    1.0990    0.6170 o         1 B3I     -0.799300
      6 O2          3.7570   -1.1300    0.3750 o         1 B3I     -0.799300
      7 C1          1.7090   -0.0080   -0.1140 ca        1 B3I     -0.071600
      8 C4         -0.8990    0.0280   -1.1480 ca        1 B3I     -0.108000
      9 I1          0.8090   -0.3430    2.7430 i         1 B3I     -0.136900
     10 I2         -2.2850   -0.2930    1.4480 i         1 B3I     -0.174900
     11 I3         -0.1240    0.3590   -3.9970 i         1 B3I     -0.192900
     12 H6          2.3660    0.2320   -2.1530 ha        1 B3I      0.156000
     13 H4         -1.9230    0.0420   -1.5510 ha        1 B3I      0.136000
     14 C           3.1750   -0.0160    0.3500 c         1 B3I      0.913200
@<TRIPOS>BOND
     1    1    2 ar  
     2    1    7 ar  
     3    1    9 1   
     4    2    8 ar  
     5    2   10 1   
     6    3    4 ar  
     7    3    8 ar  
     8    3   11 1   
     9    4    7 ar  
    10    4   12 1   
    11    5   14 1   
    12    6   14 1   
    13    7   14 1   
    14    8   13 1   
@<TRIPOS>SUBSTRUCTURE
     1 B3I         1 TEMP              0 ****  ****    0 ROOT
