@<TRIPOS>MOLECULE
B3I
   14    13     1     0     0
SMALL
bcc


@<TRIPOS>ATOM
      1 C2         -0.0330   -0.2650   -0.1600 c2        1 B3I     -0.237000
      2 C3          1.3870   -0.0060   -0.2760 c2        1 B3I     -0.500000
      3 C5          1.0440   -0.0500    2.7310 c2        1 B3I     -0.375000
      4 C6         -0.0030    0.5440    2.1400 c2        1 B3I     -0.020000
      5 O1         -2.8770    0.9120    1.1870 o         1 B3I     -0.523500
      6 O2         -2.6510   -1.3080    1.4600 o         1 B3I     -0.523500
      7 C1         -0.6950   -0.0060    0.9840 c2        1 B3I     -0.070000
      8 C4          2.2670    0.0900    0.7100 c1        1 B3I      0.167000
      9 I1         -0.8910   -1.0090   -1.8330 i         1 B3I      0.138000
     10 I2          2.2290    0.2920   -2.0950 i         1 B3I      0.156000
     11 I3          2.0010    0.6900    4.3430 i         1 B3I      0.092000
     12 H6         -0.4350    1.4980    2.5010 ha        1 B3I      0.163000
     13 H4          1.3890   -1.0590    2.4590 h4        1 B3I      0.163000
     14 C          -2.2160   -0.1570    1.2140 c2        1 B3I      0.372000
@<TRIPOS>BOND
     1    1    2 1   
     2    1    7 1   
     3    1    9 1   
     4    2    8 1   
     5    2   10 1   
     6    3    4 1   
     7    3   11 1   
     8    3   13 1   
     9    4    7 1   
    10    4   12 1   
    11    5   14 1   
    12    6   14 1   
    13    7   14 1   
@<TRIPOS>SUBSTRUCTURE
     1 B3I         1 TEMP              0 ****  ****    0 ROOT
