@<TRIPOS>MOLECULE
B3I
   14    13     1     0     0
SMALL
bcc


@<TRIPOS>ATOM
      1 C2         -0.0150   -0.1750   -0.1770 c2        1 B3I     -0.237000
      2 C3          1.4020    0.1130   -0.2570 c2        1 B3I     -0.500000
      3 C5          1.0270   -0.1520    2.7340 c2        1 B3I     -0.375000
      4 C6         -0.0240    0.4670    2.1750 c2        1 B3I     -0.020000
      5 O1         -2.8920    0.8580    1.2160 o         1 B3I     -0.523500
      6 O2         -2.6330   -1.3720    1.3310 o         1 B3I     -0.523500
      7 C1         -0.6930   -0.0090    0.9740 c2        1 B3I     -0.070000
      8 C4          2.2690    0.1530    0.7440 c1        1 B3I      0.167000
      9 I1         -0.8410   -0.8100   -1.9100 i         1 B3I      0.138000
     10 I2          2.2600    0.5550   -2.0400 i         1 B3I      0.156000
     11 I3          1.9530    0.4860    4.4080 i         1 B3I      0.092000
     12 H6         -0.4760    1.3860    2.5980 ha        1 B3I      0.163000
     13 H4          1.3910   -1.1330    2.3950 h4        1 B3I      0.163000
     14 C          -2.2140   -0.2000    1.1730 c2        1 B3I      0.372000
@<TRIPOS>BOND
     1    1    2 1   
     2    1    7 1   
     3    1    9 1   
     4    2    8 1   
     5    2   10 1   
     6    3    4 1   
     7    3   11 1   
     8    3   13 1   
     9    4    7 1   
    10    4   12 1   
    11    5   14 1   
    12    6   14 1   
    13    7   14 1   
@<TRIPOS>SUBSTRUCTURE
     1 B3I         1 TEMP              0 ****  ****    0 ROOT
