@<TRIPOS>MOLECULE
B3K
   26    25     1     0     0
SMALL
bcc


@<TRIPOS>ATOM
      1 N          -1.8750   -0.8420   -1.4550 n3        1 B3K     -0.907800
      2 CB         -0.4550   -0.7490   -1.4570 c3        1 B3K      0.174500
      3 CG          0.0510   -0.7460   -0.0320 c3        1 B3K     -0.073400
      4 CD         -0.0060    0.6620    0.5200 c3        1 B3K     -0.074400
      5 CE          0.4940    0.6640    1.9480 c3        1 B3K     -0.085400
      6 CF          0.4330    2.0710    2.5010 c3        1 B3K      0.151800
      7 NZ          0.9330    2.0780    3.8360 n3        1 B3K     -0.915800
      8 CA          0.1260   -1.9330   -2.1950 c3        1 B3K     -0.230400
      9 C           0.0930   -1.6650   -3.6830 c         1 B3K      0.906600
     10 O           1.0080   -0.9880   -4.2210 o         1 B3K     -0.851300
     11 OXT        -0.8500   -2.1180   -4.3840 o         1 B3K     -0.851300
     12 H          -2.2160   -0.3100   -2.1180 hn        1 B3K      0.352800
     13 H2         -2.1240   -1.7110   -1.6010 hn        1 B3K      0.352800
     14 HB         -0.1830    0.0780   -1.9010 h1        1 B3K      0.047700
     15 HG2         0.9750   -1.0660   -0.0140 hc        1 B3K      0.028200
     16 HG3        -0.5080   -1.3330    0.5140 hc        1 B3K      0.028200
     17 HD2        -0.9290    0.9840    0.4960 hc        1 B3K      0.046200
     18 HD3         0.5580    1.2480   -0.0240 hc        1 B3K      0.046200
     19 HE2        -0.0680    0.0750    2.4900 hc        1 B3K      0.037700
     20 HE3         1.4180    0.3440    1.9700 hc        1 B3K      0.037700
     21 HF1         0.9780    2.6640    1.9450 h1        1 B3K      0.025700
     22 HF2        -0.4960    2.3830    2.4980 h1        1 B3K      0.025700
     23 HNZ1        0.3000    2.4280    4.3980 hn        1 B3K      0.338300
     24 HNZ2        1.6920    2.5900    3.8750 hn        1 B3K      0.338300
     25 HA1         1.0510   -2.0740   -1.9090 hc        1 B3K      0.025700
     26 HA2        -0.4020   -2.7320   -1.9960 hc        1 B3K      0.025700
@<TRIPOS>BOND
     1    1    2 1   
     2    1   12 1   
     3    1   13 1   
     4    2    3 1   
     5    2    8 1   
     6    2   14 1   
     7    3    4 1   
     8    3   15 1   
     9    3   16 1   
    10    4    5 1   
    11    4   17 1   
    12    4   18 1   
    13    5    6 1   
    14    5   19 1   
    15    5   20 1   
    16    6    7 1   
    17    6   21 1   
    18    6   22 1   
    19    7   23 1   
    20    7   24 1   
    21    8    9 1   
    22    8   25 1   
    23    8   26 1   
    24    9   10 1   
    25    9   11 1   
@<TRIPOS>SUBSTRUCTURE
     1 B3K         1 TEMP              0 ****  ****    0 ROOT
