@<TRIPOS>MOLECULE
B3K
   26    25     1     0     0
SMALL
bcc


@<TRIPOS>ATOM
      1 N           0.3180   -3.4220   -0.7800 n3        1 B3K     -0.909800
      2 CB          0.7830   -2.1170   -0.3200 c3        1 B3K      0.165500
      3 CG          2.2260   -1.8290   -0.7550 c3        1 B3K     -0.085400
      4 CD          3.2220   -2.7490   -0.0850 c3        1 B3K     -0.066400
      5 CE          4.6410   -2.3360   -0.4110 c3        1 B3K     -0.119400
      6 CF          5.6470   -3.2810    0.2430 c3        1 B3K      0.141800
      7 NZ          7.0430   -2.9750    0.0350 n3        1 B3K     -0.907800
      8 CA         -0.1020   -0.9410   -0.7560 c3        1 B3K     -0.230400
      9 C           0.1730    0.3020    0.1120 c         1 B3K      0.910600
     10 O          -0.5790    0.5050    1.1070 o         1 B3K     -0.848300
     11 OXT         1.1290    1.0630   -0.2170 o         1 B3K     -0.848300
     12 H           0.3650   -3.4630   -1.7810 hn        1 B3K      0.323800
     13 H2         -0.6430   -3.5370   -0.5160 hn        1 B3K      0.323800
     14 HB          0.7590   -2.1570    0.8110 h1        1 B3K      0.065700
     15 HG2         2.3190   -1.9190   -1.8690 hc        1 B3K      0.062200
     16 HG3         2.4420   -0.7560   -0.4850 hc        1 B3K      0.062200
     17 HD2         3.0520   -3.8080   -0.4140 hc        1 B3K      0.037700
     18 HD3         3.0700   -2.7190    1.0260 hc        1 B3K      0.037700
     19 HE2         4.7860   -2.3380   -1.5240 hc        1 B3K      0.038200
     20 HE3         4.8120   -1.2860   -0.0560 hc        1 B3K      0.038200
     21 HF1         5.4600   -3.2950    1.3540 h1        1 B3K      0.046700
     22 HF2         5.4660   -4.3250   -0.1420 h1        1 B3K      0.046700
     23 HNZ1        7.2630   -2.0780    0.4240 hn        1 B3K      0.335300
     24 HNZ2        7.2490   -2.9430   -0.9460 hn        1 B3K      0.335300
     25 HA1         0.0970   -0.6910   -1.8270 hc        1 B3K      0.021700
     26 HA2        -1.1830   -1.2100   -0.6480 hc        1 B3K      0.021700
@<TRIPOS>BOND
     1    1    2 1   
     2    1   12 1   
     3    1   13 1   
     4    2    3 1   
     5    2    8 1   
     6    2   14 1   
     7    3    4 1   
     8    3   15 1   
     9    3   16 1   
    10    4    5 1   
    11    4   17 1   
    12    4   18 1   
    13    5    6 1   
    14    5   19 1   
    15    5   20 1   
    16    6    7 1   
    17    6   21 1   
    18    6   22 1   
    19    7   23 1   
    20    7   24 1   
    21    8    9 1   
    22    8   25 1   
    23    8   26 1   
    24    9   10 1   
    25    9   11 1   
@<TRIPOS>SUBSTRUCTURE
     1 B3K         1 TEMP              0 ****  ****    0 ROOT
