@<TRIPOS>MOLECULE
B3L
   24    23     1     0     0
SMALL
bcc


@<TRIPOS>ATOM
      1 O           2.8010   -0.2800    1.2200 o         1 B3L     -0.851800
      2 C           2.4830    0.1990    0.0900 c         1 B3L      0.905600
      3 CA          1.1150    0.8870   -0.0550 c3        1 B3L     -0.230400
      4 CB         -0.0480   -0.0740    0.2250 c3        1 B3L      0.172500
      5 N           0.0000   -0.7240    1.5280 n3        1 B3L     -0.907800
      6 CG         -1.3630    0.6930    0.0050 c3        1 B3L     -0.068400
      7 CD         -2.5880   -0.2060   -0.0680 c3        1 B3L     -0.069700
      8 CE2        -3.8470    0.6060    0.1660 c3        1 B3L     -0.085100
      9 CE1        -2.6720   -0.9150   -1.4040 c3        1 B3L     -0.085100
     10 HA          1.0770    1.7470    0.6590 hc        1 B3L      0.026200
     11 HAA         1.0200    1.2880   -1.0940 hc        1 B3L      0.026200
     12 HB          0.0050   -0.9020   -0.5440 h1        1 B3L      0.048700
     13 HN          0.8740   -1.2260    1.5910 hn        1 B3L      0.352800
     14 HG         -1.5000    1.4380    0.8330 hc        1 B3L      0.028200
     15 HGA        -1.2750    1.2720   -0.9520 hc        1 B3L      0.028200
     16 HD         -2.5140   -0.9850    0.7430 hc        1 B3L      0.069700
     17 H3E2       -4.7510   -0.0450    0.0900 hc        1 B3L      0.023533
     18 H2E2       -3.8290    1.0690    1.1810 hc        1 B3L      0.023533
     19 H1E2       -3.9340    1.4210   -0.5930 hc        1 B3L      0.023533
     20 H3E1       -3.5640   -1.5870   -1.4320 hc        1 B3L      0.023533
     21 H2E1       -2.7600   -0.1770   -2.2370 hc        1 B3L      0.023533
     22 H1E1       -1.7570   -1.5320   -1.5740 hc        1 B3L      0.023533
     23 OXT         3.2360    0.1590   -0.9230 o         1 B3L     -0.851800
     24 HNA         0.0220   -0.0180    2.2420 hn        1 B3L      0.352800
@<TRIPOS>BOND
     1    1    2 1   
     2    2    3 1   
     3    2   23 1   
     4    3    4 1   
     5    3   10 1   
     6    3   11 1   
     7    4    5 1   
     8    4    6 1   
     9    4   12 1   
    10    5   13 1   
    11    5   24 1   
    12    6    7 1   
    13    6   14 1   
    14    6   15 1   
    15    7    8 1   
    16    7    9 1   
    17    7   16 1   
    18    8   17 1   
    19    8   18 1   
    20    8   19 1   
    21    9   20 1   
    22    9   21 1   
    23    9   22 1   
@<TRIPOS>SUBSTRUCTURE
     1 B3L         1 TEMP              0 ****  ****    0 ROOT
