@<TRIPOS>MOLECULE
B3L
   24    22     1     0     0
SMALL
bcc


@<TRIPOS>ATOM
      1 O          -3.4350   -1.6340   -1.9670 o         1 B3L     -0.600000
      2 C          -2.1760   -1.6340   -1.9670 c1        1 B3L      0.325000
      3 CA         -1.4190   -1.6340   -0.6570 c3        1 B3L     -0.259000
      4 CB         -0.8710   -0.2500   -0.3910 c3        1 B3L     -0.025000
      5 N          -1.8810    0.5530    0.2070 n3        1 B3L     -0.340000
      6 CG          0.3140   -0.3480    0.5420 c3        1 B3L     -0.147000
      7 CD          1.1530    0.9050    0.4250 c3        1 B3L     -0.109000
      8 CE2         2.5080    0.5530   -0.1480 c3        1 B3L     -0.203000
      9 CE1         1.3290    1.5240    1.7940 c3        1 B3L     -0.203000
     10 HA         -0.6820   -2.2720   -0.7070 hc        1 B3L      0.065500
     11 HAA        -2.0220   -1.8890    0.0670 hc        1 B3L      0.065500
     12 HB         -0.5900    0.1550   -1.2340 h1        1 B3L      0.088000
     13 HN         -2.1450    1.1990   -0.3810 hn        1 B3L      0.148000
     14 HG         -0.0020   -0.4440    1.4600 hc        1 B3L      0.067500
     15 HGA         0.8540   -1.1250    0.3010 hc        1 B3L      0.067500
     16 HD          0.7060    1.5420   -0.1650 hc        1 B3L      0.109000
     17 H3E2        2.3950    0.1650   -1.0360 hc        1 B3L      0.062833
     18 H2E2        2.9500   -0.0920    0.4350 hc        1 B3L      0.062833
     19 H1E2        3.0540    1.3600   -0.2130 hc        1 B3L      0.062833
     20 H3E1        0.4600    1.8020    2.1400 hc        1 B3L      0.062833
     21 H2E1        1.9170    2.3000    1.7270 hc        1 B3L      0.062833
     22 H1E1        1.7250    0.8670    2.3990 hc        1 B3L      0.062833
     23 OXT        -1.5460   -1.6350   -3.0570 os        1 B3L     -0.573000
     24 HNA        -2.5960    0.0310    0.4260 hn        1 B3L      0.148000
@<TRIPOS>BOND
     1    1    2 1   
     2    2    3 1   
     3    3    4 1   
     4    3   10 1   
     5    3   11 1   
     6    4    5 1   
     7    4    6 1   
     8    4   12 1   
     9    5   13 1   
    10    5   24 1   
    11    6    7 1   
    12    6   14 1   
    13    6   15 1   
    14    7    8 1   
    15    7    9 1   
    16    7   16 1   
    17    8   17 1   
    18    8   18 1   
    19    8   19 1   
    20    9   20 1   
    21    9   21 1   
    22    9   22 1   
@<TRIPOS>SUBSTRUCTURE
     1 B3L         1 TEMP              0 ****  ****    0 ROOT
