@<TRIPOS>MOLECULE
B3M
   22    21     1     0     0
SMALL
bcc


@<TRIPOS>ATOM
      1 N          -0.8060    1.4410    0.6990 n3        1 B3M     -0.910800
      2 CA         -1.8220   -0.8150    0.2180 c3        1 B3M     -0.231400
      3 C          -3.2040   -0.2170   -0.0940 c         1 B3M      0.906600
      4 O          -3.5780    0.8070    0.5550 o         1 B3M     -0.849300
      5 CB         -0.6930    0.1890   -0.0370 c3        1 B3M      0.177500
      6 CG          0.6490   -0.5210    0.2320 c3        1 B3M     -0.070400
      7 CD          1.8190    0.3350   -0.1710 c3        1 B3M      0.021700
      8 SE          3.2980   -0.6460   -0.0190 ss        1 B3M     -0.347200
      9 CF          4.5440    0.5250   -0.4000 c3        1 B3M     -0.033000
     10 HN         -1.6850    1.8690    0.4460 hn        1 B3M      0.355300
     11 HA         -1.8110   -1.1370    1.2890 hc        1 B3M      0.028200
     12 HAA        -1.6640   -1.7180   -0.4220 hc        1 B3M      0.028200
     13 HB         -0.7190    0.4620   -1.1350 h1        1 B3M      0.048700
     14 HG          0.7250   -0.7880    1.3190 hc        1 B3M      0.043700
     15 HGA         0.6570   -1.4770   -0.3540 hc        1 B3M      0.043700
     16 HD          1.7060    0.6810   -1.2260 h1        1 B3M      0.063700
     17 HDA         1.8970    1.2370    0.4810 h1        1 B3M      0.063700
     18 HF          4.4340    0.9210   -1.4350 h1        1 B3M      0.051700
     19 HFA         4.5310    1.3850    0.3060 h1        1 B3M      0.051700
     20 HFB         5.5200   -0.0040   -0.3140 h1        1 B3M      0.051700
     21 HNA        -0.8570    1.2360    1.6800 hn        1 B3M      0.355300
     22 OXT        -3.9100   -0.7860   -0.9720 o         1 B3M     -0.849300
@<TRIPOS>BOND
     1    1    5 1   
     2    1   10 1   
     3    1   21 1   
     4    2    3 1   
     5    2    5 1   
     6    2   11 1   
     7    2   12 1   
     8    3    4 1   
     9    3   22 1   
    10    5    6 1   
    11    5   13 1   
    12    6    7 1   
    13    6   14 1   
    14    6   15 1   
    15    7    8 1   
    16    7   16 1   
    17    7   17 1   
    18    8    9 1   
    19    9   18 1   
    20    9   19 1   
    21    9   20 1   
@<TRIPOS>SUBSTRUCTURE
     1 B3M         1 TEMP              0 ****  ****    0 ROOT
