@<TRIPOS>MOLECULE
B3M
   22    21     1     0     0
SMALL
bcc


@<TRIPOS>ATOM
      1 N           0.1530   -1.1550   -1.7380 n3        1 B3M     -0.910800
      2 CA          0.9340    1.1000   -1.9520 c3        1 B3M     -0.231400
      3 C           0.0370    1.7770   -2.9650 c         1 B3M      0.906600
      4 O           0.2070    1.5690   -4.1950 o         1 B3M     -0.849300
      5 CB          0.1210    0.1290   -1.1270 c3        1 B3M      0.177500
      6 CG          0.7030    0.0400    0.2650 c3        1 B3M     -0.070400
      7 CD         -0.3700   -0.4100    1.2320 c3        1 B3M      0.021700
      8 SE          0.3180   -0.5350    2.8600 ss        1 B3M     -0.347200
      9 CF         -0.9310   -1.0970    3.9880 c3        1 B3M     -0.033000
     10 HN         -0.5790   -1.2540   -2.2800 hn        1 B3M      0.355300
     11 HA          1.6450    0.6170   -2.4170 hc        1 B3M      0.028200
     12 HAA         1.3300    1.7750   -1.3650 hc        1 B3M      0.028200
     13 HB         -0.8040    0.4420   -1.0740 h1        1 B3M      0.048700
     14 HG          1.4380   -0.6060    0.2700 hc        1 B3M      0.043700
     15 HGA         1.0390    0.9180    0.5350 hc        1 B3M      0.043700
     16 HD         -0.7130   -1.2830    0.9560 h1        1 B3M      0.063700
     17 HDA        -1.1000    0.2420    1.2350 h1        1 B3M      0.063700
     18 HF         -0.5540   -1.1530    4.8920 h1        1 B3M      0.051700
     19 HFA        -1.2470   -1.9830    3.7100 h1        1 B3M      0.051700
     20 HFB        -1.6820   -0.4670    3.9860 h1        1 B3M      0.051700
     21 HNA         0.9160   -1.2370   -2.2380 hn        1 B3M      0.355300
     22 OXT        -0.8610    2.5710   -2.5790 o         1 B3M     -0.849300
@<TRIPOS>BOND
     1    1    5 1   
     2    1   10 1   
     3    1   21 1   
     4    2    3 1   
     5    2    5 1   
     6    2   11 1   
     7    2   12 1   
     8    3    4 1   
     9    3   22 1   
    10    5    6 1   
    11    5   13 1   
    12    6    7 1   
    13    6   14 1   
    14    6   15 1   
    15    7    8 1   
    16    7   16 1   
    17    7   17 1   
    18    8    9 1   
    19    9   18 1   
    20    9   19 1   
    21    9   20 1   
@<TRIPOS>SUBSTRUCTURE
     1 B3M         1 TEMP              0 ****  ****    0 ROOT
