@<TRIPOS>MOLECULE
B3N
   47    44     1     0     0
SMALL
bcc


@<TRIPOS>ATOM
      1 O23         0.2570   -0.0220    2.3610 o         1 B3N     -0.372000
      2 C13         0.1060    0.8630    1.5370 c1        1 B3N      0.349000
      3 C14         0.4520    2.3120    1.8960 c1        1 B3N     -0.156000
      4 C15         0.9950    2.6090    3.1450 c2        1 B3N     -0.048000
      5 C16         1.3190    3.9310    3.4710 c1        1 B3N     -0.194000
      6 C17         1.0990    4.9530    2.5440 c1        1 B3N      0.084000
      7 N20         1.5210    6.3110    2.8470 n3        1 B3N     -0.249000
      8 C22         0.5450    7.3330    3.0860 c3        1 B3N     -0.101000
      9 C21         2.8920    6.6090    2.9590 c3        1 B3N     -0.101000
     10 C18         0.5540    4.6530    1.2880 c1        1 B3N     -0.173000
     11 C19         0.2310    3.3380    0.9640 c1        1 B3N     -0.080000
     12 N12        -0.4400    0.5630    0.2790 n3        1 B3N     -0.378000
     13 C10        -0.1860   -0.7230   -0.3270 c3        1 B3N     -0.029000
     14 C9         -1.5100   -1.3980   -0.6660 c3        1 B3N     -0.183000
     15 C8         -1.3610   -2.1820   -2.0060 c3        1 B3N     -0.154000
     16 C7         -1.9580   -3.6220   -1.8500 c3        1 B3N     -0.161000
     17 C6         -1.5570   -4.4890   -3.0960 c3        1 B3N     -0.157000
     18 C5         -1.4070   -5.9500   -2.6690 c3        1 B3N     -0.188000
     19 C1         -0.5050   -6.6840   -3.6600 c2        1 B3N      0.234000
     20 O2         -0.4740   -6.3360   -4.8330 o         1 B3N     -0.321000
     21 N3          0.3460   -7.7390   -3.2050 n         1 B3N     -0.195000
     22 O4          1.1340   -8.3950   -4.0860 oh        1 B3N     -0.245000
     23 H15         1.1480    1.8980    3.7890 ha        1 B3N      0.154000
     24 H16         1.7150    4.1470    4.3790 ha        1 B3N      0.139000
     25 H221        0.2910    7.7440    2.2350 h1        1 B3N      0.078667
     26 H222        0.9320    8.0270    3.6880 h1        1 B3N      0.078667
     27 H223       -0.2180    6.9540    3.4940 h1        1 B3N      0.078667
     28 H211        3.0470    7.5220    2.6830 h1        1 B3N      0.078667
     29 H212        3.1840    6.4930    3.9190 h1        1 B3N      0.078667
     30 H213        3.4100    5.9990    2.3810 h1        1 B3N      0.078667
     31 H18         0.4010    5.3690    0.6380 ha        1 B3N      0.139000
     32 H19        -0.1530    3.1290    0.0820 ha        1 B3N      0.129000
     33 H12        -1.0400    1.1500   -0.1170 hn        1 B3N      0.221000
     34 H101        0.3090   -1.2750    0.2880 h1        1 B3N      0.100500
     35 H102        0.3470   -0.5980   -1.1650 h1        1 B3N      0.100500
     36 H91        -2.2100   -0.7150   -0.7620 hc        1 B3N      0.085000
     37 H92        -1.7490   -1.9980    0.0300 hc        1 B3N      0.085000
     38 H81        -0.4230   -2.2460   -2.2390 hc        1 B3N      0.081500
     39 H82        -1.8320   -1.7150   -2.7000 hc        1 B3N      0.081500
     40 H71        -2.9390   -3.5670   -1.7910 hc        1 B3N      0.089500
     41 H72        -1.5980   -4.0470   -1.0190 hc        1 B3N      0.089500
     42 H61        -0.6990   -4.1630   -3.4660 hc        1 B3N      0.084000
     43 H62        -2.2370   -4.4200   -3.7630 hc        1 B3N      0.084000
     44 H51        -1.0110   -5.9890   -1.7820 hc        1 B3N      0.120000
     45 H52        -2.3400   -6.4000   -2.6500 hc        1 B3N      0.120000
     46 H24         0.2950   -8.0190   -2.3610 hn        1 B3N      0.210000
     47 H25         1.3200   -9.2120   -3.7690 ho        1 B3N      0.234000
@<TRIPOS>BOND
     1    1    2 1   
     2    2   12 1   
     3    3    4 1   
     4    3   11 1   
     5    4    5 1   
     6    4   23 1   
     7    5   24 1   
     8    6    7 1   
     9    6   10 1   
    10    7    8 1   
    11    7    9 1   
    12    8   25 1   
    13    8   26 1   
    14    8   27 1   
    15    9   28 1   
    16    9   29 1   
    17    9   30 1   
    18   10   31 1   
    19   11   32 1   
    20   12   13 1   
    21   12   33 1   
    22   13   14 1   
    23   13   34 1   
    24   13   35 1   
    25   14   15 1   
    26   14   36 1   
    27   14   37 1   
    28   15   16 1   
    29   15   38 1   
    30   15   39 1   
    31   16   17 1   
    32   16   40 1   
    33   16   41 1   
    34   17   18 1   
    35   17   42 1   
    36   17   43 1   
    37   18   19 1   
    38   18   44 1   
    39   18   45 1   
    40   19   20 1   
    41   19   21 1   
    42   21   22 1   
    43   21   46 1   
    44   22   47 1   
@<TRIPOS>SUBSTRUCTURE
     1 B3N         1 TEMP              0 ****  ****    0 ROOT
