@<TRIPOS>MOLECULE
B3N
   50    50     1     0     0
SMALL
bcc


@<TRIPOS>ATOM
      1 O23         0.2520    0.1350   -0.2400 o         1 B3N     -0.372100
      2 C13         1.4520    0.0630   -0.0260 c         1 B3N      0.555700
      3 C14         2.1020    0.1320    1.2960 ca        1 B3N     -0.157600
      4 C15         1.3190    0.6540    2.3400 ca        1 B3N     -0.046500
      5 C16         1.8230    0.7180    3.6390 ca        1 B3N     -0.097000
      6 C17         3.1220    0.2500    3.9050 ca        1 B3N      0.030600
      7 N20         3.6410    0.3020    5.2850 n4        1 B3N     -0.564800
      8 C22         3.9240   -1.0660    5.8110 c3        1 B3N      0.084100
      9 C21         4.8490    1.1730    5.3820 c3        1 B3N      0.084100
     10 C18         3.9100   -0.2710    2.8610 ca        1 B3N     -0.097000
     11 C19         3.3980   -0.3260    1.5650 ca        1 B3N     -0.046500
     12 N12         2.3420   -0.0990   -1.2430 n4        1 B3N     -0.672800
     13 C10         1.5870    0.0430   -2.5320 c3        1 B3N      0.103800
     14 C9          2.4600   -0.1680   -3.7640 c3        1 B3N     -0.106400
     15 C8          1.5940   -0.0220   -5.0050 c3        1 B3N     -0.079400
     16 C7          2.4020   -0.2400   -6.2700 c3        1 B3N     -0.078400
     17 C6          1.5100   -0.1060   -7.4900 c3        1 B3N     -0.086400
     18 C5          2.3030   -0.3300   -8.7670 c3        1 B3N     -0.141400
     19 C1          1.3960   -0.2560   -9.9550 c         1 B3N      0.552100
     20 O2          0.1900   -0.1530  -10.0430 o         1 B3N     -0.366100
     21 N3          2.1060   -0.3320  -11.3370 n4        1 B3N     -0.474300
     22 O4          3.0340    0.6440  -11.4590 oh        1 B3N     -0.354300
     23 H15         0.2890    1.0110    2.1400 ha        1 B3N      0.181500
     24 H16         1.1760    1.1340    4.4350 ha        1 B3N      0.189000
     25 H221        4.7440   -1.5420    5.2110 hx        1 B3N      0.117367
     26 H222        2.9930   -1.6910    5.7490 hx        1 B3N      0.117367
     27 H223        4.2490   -0.9780    6.8860 hx        1 B3N      0.117367
     28 H211        5.6850    0.7330    4.7760 hx        1 B3N      0.117367
     29 H212        4.6020    2.2010    5.0000 hx        1 B3N      0.117367
     30 H213        5.1620    1.2360    6.4610 hx        1 B3N      0.117367
     31 H18         4.9330   -0.6470    3.0470 ha        1 B3N      0.189000
     32 H19         4.0400   -0.7570    0.7790 ha        1 B3N      0.181500
     33 H12         2.7760   -1.0300   -1.2110 hn        1 B3N      0.462800
     34 H101        0.7440   -0.7100   -2.5190 hx        1 B3N      0.123700
     35 H102        1.1330    1.0770   -2.5460 hx        1 B3N      0.123700
     36 H91         3.2900    0.5870   -3.7960 hc        1 B3N      0.070700
     37 H92         2.9230   -1.1900   -3.7500 hc        1 B3N      0.070700
     38 H81         0.7530   -0.7660   -4.9660 hc        1 B3N      0.067700
     39 H82         1.1350    1.0030   -5.0250 hc        1 B3N      0.067700
     40 H71         3.2340    0.5110   -6.3230 hc        1 B3N      0.059700
     41 H72         2.8690   -1.2600   -6.2500 hc        1 B3N      0.059700
     42 H61         1.0450    0.9160   -7.5110 hc        1 B3N      0.077700
     43 H62         0.6720   -0.8520   -7.4320 hc        1 B3N      0.077700
     44 H51         2.7960   -1.3420   -8.7480 hc        1 B3N      0.117200
     45 H52         3.1140    0.4450   -8.8720 hc        1 B3N      0.117200
     46 H24         1.4050   -0.3090  -12.1040 hn        1 B3N      0.485300
     47 H25         2.6100    1.4510  -11.8330 ho        1 B3N      0.485000
     48 H201        2.9050    0.7210    5.8800 hn        1 B3N      0.470800
     49 H122        3.0880    0.6050   -1.2060 hn        1 B3N      0.462800
     50 H32         2.6360   -1.2260  -11.4030 hn        1 B3N      0.485300
@<TRIPOS>BOND
     1    1    2 2   
     2    2    3 1   
     3    2   12 1   
     4    3    4 ar  
     5    3   11 ar  
     6    4    5 ar  
     7    4   23 1   
     8    5    6 ar  
     9    5   24 1   
    10    6    7 1   
    11    6   10 ar  
    12    7    8 1   
    13    7    9 1   
    14    7   48 1   
    15    8   25 1   
    16    8   26 1   
    17    8   27 1   
    18    9   28 1   
    19    9   29 1   
    20    9   30 1   
    21   10   11 ar  
    22   10   31 1   
    23   11   32 1   
    24   12   13 1   
    25   12   33 1   
    26   12   49 1   
    27   13   14 1   
    28   13   34 1   
    29   13   35 1   
    30   14   15 1   
    31   14   36 1   
    32   14   37 1   
    33   15   16 1   
    34   15   38 1   
    35   15   39 1   
    36   16   17 1   
    37   16   40 1   
    38   16   41 1   
    39   17   18 1   
    40   17   42 1   
    41   17   43 1   
    42   18   19 1   
    43   18   44 1   
    44   18   45 1   
    45   19   20 2   
    46   19   21 1   
    47   21   22 1   
    48   21   46 1   
    49   21   50 1   
    50   22   47 1   
@<TRIPOS>SUBSTRUCTURE
     1 B3N         1 TEMP              0 ****  ****    0 ROOT
