@<TRIPOS>MOLECULE
B3N
   49    49     1     0     0
SMALL
bcc


@<TRIPOS>ATOM
      1 O23         0.2850    0.1650   -0.2770 o         1 B3N     -0.469100
      2 C13         1.4820    0.0780   -0.0240 c         1 B3N      0.587700
      3 C14         2.1550    0.0250    1.2420 ca        1 B3N     -0.314600
      4 C15         1.3320    0.0850    2.3970 ca        1 B3N      0.000000
      5 C16         1.8680    0.0430    3.6610 ca        1 B3N     -0.224500
      6 C17         3.2830   -0.0640    3.8620 ca        1 B3N      0.282600
      7 N20         3.8270   -0.1070    5.1110 nh        1 B3N     -0.622000
      8 C22         2.9840   -0.0450    6.2790 c3        1 B3N      0.179600
      9 C21         5.2540   -0.2150    5.2900 c3        1 B3N      0.179600
     10 C18         4.1040   -0.1250    2.6820 ca        1 B3N     -0.224500
     11 C19         3.5500   -0.0810    1.4260 ca        1 B3N      0.000000
     12 N12         2.3840    0.0160   -1.2730 n4        1 B3N     -0.681800
     13 C10         1.6150    0.0880   -2.5440 c3        1 B3N      0.102800
     14 C9          2.4940    0.0250   -3.7880 c3        1 B3N     -0.104400
     15 C8          1.6110    0.1130   -5.0190 c3        1 B3N     -0.078400
     16 C7          2.4360    0.0530   -6.2900 c3        1 B3N     -0.079400
     17 C6          1.5350    0.1560   -7.5050 c3        1 B3N     -0.085400
     18 C5          2.3550    0.0950   -8.7830 c3        1 B3N     -0.143400
     19 C1          1.4670    0.2630   -9.9740 c         1 B3N      0.552100
     20 O2          0.2950    0.5560  -10.0800 o         1 B3N     -0.367100
     21 N3          2.1620    0.0310  -11.3500 n4        1 B3N     -0.479300
     22 O4          2.6800   -1.2140  -11.4400 oh        1 B3N     -0.352300
     23 H15         0.2370    0.1680    2.2680 ha        1 B3N      0.139000
     24 H16         1.1880    0.0930    4.5280 ha        1 B3N      0.164000
     25 H221        3.6080   -0.0930    7.2110 h1        1 B3N      0.066700
     26 H222        2.4030    0.9180    6.2870 h1        1 B3N      0.066700
     27 H223        2.2650   -0.9090    6.2850 h1        1 B3N      0.066700
     28 H211        5.5060   -0.2350    6.3840 h1        1 B3N      0.066700
     29 H212        5.6340   -1.1620    4.8180 h1        1 B3N      0.066700
     30 H213        5.7720    0.6640    4.8200 h1        1 B3N      0.066700
     31 H18         5.1980   -0.2080    2.7800 ha        1 B3N      0.164000
     32 H19         4.2370   -0.1330    0.5660 ha        1 B3N      0.139000
     33 H12         2.9160   -0.8580   -1.2400 hn        1 B3N      0.447800
     34 H101        1.0230    1.0500   -2.5320 hx        1 B3N      0.116200
     35 H102        0.8760   -0.7660   -2.5450 hx        1 B3N      0.116200
     36 H91         3.2300    0.8730   -3.7930 hc        1 B3N      0.063700
     37 H92         3.0770   -0.9330   -3.8100 hc        1 B3N      0.063700
     38 H81         0.8710   -0.7320   -5.0120 hc        1 B3N      0.064200
     39 H82         1.0260    1.0710   -4.9950 hc        1 B3N      0.064200
     40 H71         3.1810    0.8920   -6.2970 hc        1 B3N      0.057200
     41 H72         3.0120   -0.9090   -6.3230 hc        1 B3N      0.057200
     42 H61         0.7870   -0.6810   -7.4960 hc        1 B3N      0.076700
     43 H62         0.9590    1.1190   -7.4710 hc        1 B3N      0.076700
     44 H51         2.8980   -0.8900   -8.8570 hc        1 B3N      0.116700
     45 H52         3.1270    0.9150   -8.7890 hc        1 B3N      0.116700
     46 H24         1.5040    0.2350  -12.1270 hn        1 B3N      0.482300
     47 H25         1.9560   -1.8470  -11.6560 ho        1 B3N      0.481000
     48 H122        3.0470    0.7950   -1.2260 hn        1 B3N      0.447800
     49 H32         2.9790    0.6710  -11.4340 hn        1 B3N      0.482300
@<TRIPOS>BOND
     1    1    2 2   
     2    2    3 1   
     3    2   12 1   
     4    3    4 ar  
     5    3   11 ar  
     6    4    5 ar  
     7    4   23 1   
     8    5    6 ar  
     9    5   24 1   
    10    6    7 1   
    11    6   10 ar  
    12    7    8 1   
    13    7    9 1   
    14    8   25 1   
    15    8   26 1   
    16    8   27 1   
    17    9   28 1   
    18    9   29 1   
    19    9   30 1   
    20   10   11 ar  
    21   10   31 1   
    22   11   32 1   
    23   12   13 1   
    24   12   33 1   
    25   12   48 1   
    26   13   14 1   
    27   13   34 1   
    28   13   35 1   
    29   14   15 1   
    30   14   36 1   
    31   14   37 1   
    32   15   16 1   
    33   15   38 1   
    34   15   39 1   
    35   16   17 1   
    36   16   40 1   
    37   16   41 1   
    38   17   18 1   
    39   17   42 1   
    40   17   43 1   
    41   18   19 1   
    42   18   44 1   
    43   18   45 1   
    44   19   20 2   
    45   19   21 1   
    46   21   22 1   
    47   21   46 1   
    48   21   49 1   
    49   22   47 1   
@<TRIPOS>SUBSTRUCTURE
     1 B3N         1 TEMP              0 ****  ****    0 ROOT
