@<TRIPOS>MOLECULE
B3N
   47    47     1     0     0
SMALL
bcc


@<TRIPOS>ATOM
      1 O23         1.7210   -1.9630   -1.0670 o         1 B3N     -0.612100
      2 C13         2.0190   -1.1200   -0.1950 c         1 B3N      0.676700
      3 C14         3.3820   -0.5290   -0.1170 ca        1 B3N     -0.190600
      4 C15         4.4720   -1.3310   -0.4760 ca        1 B3N     -0.053000
      5 C16         5.7660   -0.8340   -0.4320 ca        1 B3N     -0.203500
      6 C17         6.0180    0.5010   -0.0240 ca        1 B3N      0.190600
      7 N20         7.3270    0.9860    0.1080 nh        1 B3N     -0.661000
      8 C22         8.3870    0.2410   -0.5210 c3        1 B3N      0.188600
      9 C21         7.5110    2.4100    0.2130 c3        1 B3N      0.188600
     10 C18         4.9000    1.3090    0.3070 ca        1 B3N     -0.203500
     11 C19         3.6110    0.7940    0.2650 ca        1 B3N     -0.053000
     12 N12         1.1050   -0.7450    0.7750 n         1 B3N     -0.568900
     13 C10        -0.2670   -1.1660    0.7500 c3        1 B3N      0.088000
     14 C9         -1.2620   -0.0670    0.3670 c3        1 B3N     -0.105400
     15 C8         -2.6750   -0.6050    0.4360 c3        1 B3N     -0.077400
     16 C7         -3.6800    0.4510    0.0250 c3        1 B3N     -0.078400
     17 C6         -5.0940   -0.0800    0.1240 c3        1 B3N     -0.076400
     18 C5         -6.0940    0.9650   -0.3230 c3        1 B3N     -0.152400
     19 C1         -7.5120    0.4740   -0.1480 c         1 B3N      0.587100
     20 O2         -7.8140   -0.5250    0.5230 o         1 B3N     -0.558100
     21 N3         -8.5470    1.3170   -0.6700 n         1 B3N     -0.355400
     22 O4         -9.7310    0.7170   -0.8240 oh        1 B3N     -0.439100
     23 H15         4.2890   -2.3670   -0.8060 ha        1 B3N      0.140500
     24 H16         6.5930   -1.5000   -0.7210 ha        1 B3N      0.137000
     25 H221        8.2020    0.0790   -1.6180 h1        1 B3N      0.040033
     26 H222        9.3610    0.7840   -0.3980 h1        1 B3N      0.040033
     27 H223        8.4790   -0.7600   -0.0190 h1        1 B3N      0.040033
     28 H211        7.0620    2.7660    1.1800 h1        1 B3N      0.040033
     29 H212        8.6060    2.6550    0.2250 h1        1 B3N      0.040033
     30 H213        7.0280    2.9670   -0.6350 h1        1 B3N      0.040033
     31 H18         5.0350    2.3590    0.6060 ha        1 B3N      0.137000
     32 H19         2.7710    1.4590    0.5190 ha        1 B3N      0.140500
     33 H12         1.3460   -0.0210    1.4060 hn        1 B3N      0.305500
     34 H101       -0.3700   -2.0220    0.0220 h1        1 B3N      0.062200
     35 H102       -0.5320   -1.5470    1.7790 h1        1 B3N      0.062200
     36 H91        -1.1580    0.8090    1.0580 hc        1 B3N      0.043700
     37 H92        -1.0470    0.2970   -0.6720 hc        1 B3N      0.043700
     38 H81        -2.7720   -1.4980   -0.2370 hc        1 B3N      0.046200
     39 H82        -2.8980   -0.9500    1.4800 hc        1 B3N      0.046200
     40 H71        -3.5680    1.3530    0.6830 hc        1 B3N      0.039700
     41 H72        -3.4700    0.7790   -1.0270 hc        1 B3N      0.039700
     42 H61        -5.2040   -0.9990   -0.5100 hc        1 B3N      0.060200
     43 H62        -5.3190   -0.3850    1.1800 hc        1 B3N      0.060200
     44 H51        -5.9680    1.9010    0.2850 hc        1 B3N      0.068200
     45 H52        -5.9110    1.2300   -1.3980 hc        1 B3N      0.068200
     46 H24        -8.3000    1.7310   -1.5620 hn        1 B3N      0.294500
     47 H25       -10.0720    0.5620    0.0800 ho        1 B3N      0.435000
@<TRIPOS>BOND
     1    1    2 2   
     2    2    3 1   
     3    2   12 1   
     4    3    4 ar  
     5    3   11 ar  
     6    4    5 ar  
     7    4   23 1   
     8    5    6 ar  
     9    5   24 1   
    10    6    7 1   
    11    6   10 ar  
    12    7    8 1   
    13    7    9 1   
    14    8   25 1   
    15    8   26 1   
    16    8   27 1   
    17    9   28 1   
    18    9   29 1   
    19    9   30 1   
    20   10   11 ar  
    21   10   31 1   
    22   11   32 1   
    23   12   13 1   
    24   12   33 1   
    25   13   14 1   
    26   13   34 1   
    27   13   35 1   
    28   14   15 1   
    29   14   36 1   
    30   14   37 1   
    31   15   16 1   
    32   15   38 1   
    33   15   39 1   
    34   16   17 1   
    35   16   40 1   
    36   16   41 1   
    37   17   18 1   
    38   17   42 1   
    39   17   43 1   
    40   18   19 1   
    41   18   44 1   
    42   18   45 1   
    43   19   20 2   
    44   19   21 1   
    45   21   22 1   
    46   21   46 1   
    47   22   47 1   
@<TRIPOS>SUBSTRUCTURE
     1 B3N         1 TEMP              0 ****  ****    0 ROOT
