@<TRIPOS>MOLECULE
B3N
   49    49     1     0     0
SMALL
bcc


@<TRIPOS>ATOM
      1 O23         0.2800   -0.1250   -0.2760 o         1 B3N     -0.469100
      2 C13         1.4780   -0.0650   -0.0240 c         1 B3N      0.587700
      3 C14         2.1520   -0.0140    1.2430 ca        1 B3N     -0.314600
      4 C15         1.3280   -0.0410    2.3980 ca        1 B3N      0.000000
      5 C16         1.8650    0.0030    3.6610 ca        1 B3N     -0.224500
      6 C17         3.2830    0.0770    3.8610 ca        1 B3N      0.282600
      7 N20         3.8280    0.1200    5.1100 nh        1 B3N     -0.622000
      8 C22         2.9820    0.0920    6.2790 c3        1 B3N      0.179600
      9 C21         5.2560    0.1950    5.2880 c3        1 B3N      0.179600
     10 C18         4.1040    0.1030    2.6810 ca        1 B3N     -0.224500
     11 C19         3.5500    0.0590    1.4250 ca        1 B3N      0.000000
     12 N12         2.3820   -0.0410   -1.2730 ny        1 B3N     -0.681800
     13 C10         1.6120   -0.1080   -2.5430 c3        1 B3N      0.102800
     14 C9          2.4930   -0.0830   -3.7870 c3        1 B3N     -0.104400
     15 C8          1.6090   -0.1620   -5.0180 c3        1 B3N     -0.078400
     16 C7          2.4360   -0.1390   -6.2880 c3        1 B3N     -0.079400
     17 C6          1.5330   -0.2330   -7.5030 c3        1 B3N     -0.085400
     18 C5          2.3540   -0.2060   -8.7810 c3        1 B3N     -0.143400
     19 C1          1.4640   -0.3660   -9.9710 c         1 B3N      0.552100
     20 O2          0.2850   -0.6320  -10.0750 o         1 B3N     -0.366100
     21 N3          2.1650   -0.1670  -11.3490 ny        1 B3N     -0.479300
     22 O4          2.7120    1.0640  -11.4530 oh        1 B3N     -0.352300
     23 H15         0.2320   -0.0980    2.2690 ha        1 B3N      0.139000
     24 H16         1.1840   -0.0210    4.5280 ha        1 B3N      0.164000
     25 H221        2.2850    0.9740    6.2740 h1        1 B3N      0.066700
     26 H222        2.3780   -0.8550    6.2970 h1        1 B3N      0.066700
     27 H223        3.6080    0.1360    7.2100 h1        1 B3N      0.066700
     28 H211        5.5090    0.2210    6.3820 h1        1 B3N      0.066700
     29 H212        5.6600    1.1260    4.8060 h1        1 B3N      0.066700
     30 H213        5.7520   -0.7030    4.8290 h1        1 B3N      0.066700
     31 H18         5.2010    0.1610    2.7780 ha        1 B3N      0.164000
     32 H19         4.2380    0.0830    0.5650 ha        1 B3N      0.139000
     33 H12         3.0250   -0.8350   -1.2160 hn        1 B3N      0.447800
     34 H101        0.9960   -1.0550   -2.5200 hx        1 B3N      0.116200
     35 H102        0.8940    0.7630   -2.5550 hx        1 B3N      0.116200
     36 H91         3.0990    0.8610   -3.8200 hc        1 B3N      0.063700
     37 H92         3.2070   -0.9480   -3.7810 hc        1 B3N      0.063700
     38 H81         0.8900    0.7000   -5.0210 hc        1 B3N      0.064200
     39 H82         1.0000   -1.1050   -4.9840 hc        1 B3N      0.064200
     40 H71         3.0350    0.8090   -6.3330 hc        1 B3N      0.057200
     41 H72         3.1590   -0.9960   -6.2850 hc        1 B3N      0.057200
     42 H61         0.9330   -1.1820   -7.4590 hc        1 B3N      0.076700
     43 H62         0.8050    0.6220   -7.5040 hc        1 B3N      0.076700
     44 H51         2.9220    0.7630   -8.8660 hc        1 B3N      0.116700
     45 H52         3.1060   -1.0460   -8.7770 hc        1 B3N      0.116700
     46 H24         2.9660   -0.8270  -11.4250 hn        1 B3N      0.482300
     47 H25         2.0040    1.7120  -11.6770 ho        1 B3N      0.481000
     48 H122        2.9350    0.8200   -1.2490 hn        1 B3N      0.447800
     49 H32         1.5020   -0.3630  -12.1230 hn        1 B3N      0.482300
@<TRIPOS>BOND
     1    1    2 2   
     2    2    3 1   
     3    2   12 1   
     4    3    4 ar  
     5    3   11 ar  
     6    4    5 ar  
     7    4   23 1   
     8    5    6 ar  
     9    5   24 1   
    10    6    7 1   
    11    6   10 ar  
    12    7    8 1   
    13    7    9 1   
    14    8   25 1   
    15    8   26 1   
    16    8   27 1   
    17    9   28 1   
    18    9   29 1   
    19    9   30 1   
    20   10   11 ar  
    21   10   31 1   
    22   11   32 1   
    23   12   13 1   
    24   12   33 1   
    25   12   48 1   
    26   13   14 1   
    27   13   34 1   
    28   13   35 1   
    29   14   15 1   
    30   14   36 1   
    31   14   37 1   
    32   15   16 1   
    33   15   38 1   
    34   15   39 1   
    35   16   17 1   
    36   16   40 1   
    37   16   41 1   
    38   17   18 1   
    39   17   42 1   
    40   17   43 1   
    41   18   19 1   
    42   18   44 1   
    43   18   45 1   
    44   19   20 2   
    45   19   21 1   
    46   21   22 1   
    47   21   46 1   
    48   21   49 1   
    49   22   47 1   
@<TRIPOS>SUBSTRUCTURE
     1 B3N         1 TEMP              0 ****  ****    0 ROOT
