@<TRIPOS>MOLECULE
B3P
   47    46     1     0     0
SMALL
bcc


@<TRIPOS>ATOM
      1 C1          0.0180    0.1100    0.0260 c3        1 B3P     -0.132400
      2 C2          1.5460    0.0550    0.0410 c3        1 B3P      0.108800
      3 C3         -0.4770    0.0550    1.4710 c3        1 B3P      0.108800
      4 N1         -1.9610    0.0350    1.5610 n4        1 B3P     -0.743000
      5 C4         -2.4930   -0.0110    2.9860 c3        1 B3P      0.078200
      6 C5         -4.0420   -0.1160    2.9170 c3        1 B3P      0.117733
      7 C6         -1.9380   -1.2520    3.7410 c3        1 B3P      0.117733
      8 C7         -2.1230    1.2680    3.7740 c3        1 B3P      0.117733
      9 N2          2.1260    0.0350   -1.3280 n4        1 B3P     -0.743000
     10 C8          3.6460   -0.0110   -1.3540 c3        1 B3P      0.078200
     11 C9          4.0990   -0.1160   -2.8370 c3        1 B3P      0.117733
     12 C10         4.1730   -1.2520   -0.5780 c3        1 B3P      0.117733
     13 C11         4.2660    1.2680   -0.7420 c3        1 B3P      0.117733
     14 O1          3.4880   -1.2800   -3.3610 oh        1 B3P     -0.626467
     15 O2          3.3560   -2.3690   -0.8200 oh        1 B3P     -0.626467
     16 O3          3.5220    2.3810   -1.1970 oh        1 B3P     -0.626467
     17 O4         -4.3320   -1.2810    2.1660 oh        1 B3P     -0.626467
     18 O5         -1.8930   -2.3690    2.8900 oh        1 B3P     -0.626467
     19 O6         -2.3040    2.3810    2.9210 oh        1 B3P     -0.626467
     20 H11        -0.3930   -0.7600   -0.5560 hc        1 B3P      0.087200
     21 H12        -0.3310    1.0560   -0.4690 hc        1 B3P      0.087200
     22 H21         1.8900   -0.8830    0.5720 hx        1 B3P      0.121200
     23 H22         1.9590    0.9600    0.5760 hx        1 B3P      0.121200
     24 H31        -0.0920   -0.8830    1.9720 hx        1 B3P      0.121200
     25 H32        -0.1110    0.9600    2.0390 hx        1 B3P      0.121200
     26 HN1        -2.3260   -0.8100    1.0920 hn        1 B3P      0.471800
     27 H51        -4.4800    0.7930    2.4240 h1        1 B3P      0.082700
     28 H52        -4.4400   -0.2020    3.9640 h1        1 B3P      0.082700
     29 H61        -0.8760   -1.0740    4.0650 h1        1 B3P      0.082700
     30 H62        -2.5790   -1.4270    4.6450 h1        1 B3P      0.082700
     31 H71        -1.0430    1.2320    4.0880 h1        1 B3P      0.082700
     32 H72        -2.7710    1.3210    4.6890 h1        1 B3P      0.082700
     33 HN2         1.8060   -0.8100   -1.8280 hn        1 B3P      0.471800
     34 H91         3.7800    0.7940   -3.4140 h1        1 B3P      0.082700
     35 H92         5.2190   -0.2020   -2.8630 h1        1 B3P      0.082700
     36 H101        5.2390   -1.4270   -0.8810 h1        1 B3P      0.082700
     37 H102        4.1240   -1.0730    0.5310 h1        1 B3P      0.082700
     38 H111        5.3440    1.3220   -1.0470 h1        1 B3P      0.082700
     39 H112        4.2010    1.2330    0.3810 h1        1 B3P      0.082700
     40 HO1         3.8520   -1.4340   -4.2460 ho        1 B3P      0.459333
     41 HO2         3.6460   -2.7880   -1.6460 ho        1 B3P      0.459333
     42 HO3         4.1350    3.1120   -1.3590 ho        1 B3P      0.459333
     43 HO4        -5.2880   -1.4350    2.2140 ho        1 B3P      0.459333
     44 HO5        -2.7680   -2.7880    2.8870 ho        1 B3P      0.459333
     45 HO6        -2.6610    3.1120    3.4450 ho        1 B3P      0.459333
     46 H121       -2.3510    0.8760    1.1160 hn        1 B3P      0.471800
     47 H221        1.8370    0.8760   -1.8440 hn        1 B3P      0.471800
@<TRIPOS>BOND
     1    1    2 1   
     2    1    3 1   
     3    1   20 1   
     4    1   21 1   
     5    2    9 1   
     6    2   22 1   
     7    2   23 1   
     8    3    4 1   
     9    3   24 1   
    10    3   25 1   
    11    4    5 1   
    12    4   26 1   
    13    4   46 1   
    14    5    6 1   
    15    5    7 1   
    16    5    8 1   
    17    6   17 1   
    18    6   27 1   
    19    6   28 1   
    20    7   18 1   
    21    7   29 1   
    22    7   30 1   
    23    8   19 1   
    24    8   31 1   
    25    8   32 1   
    26    9   10 1   
    27    9   33 1   
    28    9   47 1   
    29   10   11 1   
    30   10   12 1   
    31   10   13 1   
    32   11   14 1   
    33   11   34 1   
    34   11   35 1   
    35   12   15 1   
    36   12   36 1   
    37   12   37 1   
    38   13   16 1   
    39   13   38 1   
    40   13   39 1   
    41   14   40 1   
    42   15   41 1   
    43   16   42 1   
    44   17   43 1   
    45   18   44 1   
    46   19   45 1   
@<TRIPOS>SUBSTRUCTURE
     1 B3P         1 TEMP              0 ****  ****    0 ROOT
