@<TRIPOS>MOLECULE
B3P
   47    46     1     0     0
SMALL
bcc


@<TRIPOS>ATOM
      1 C1          0.0180    0.1100    0.0260 c3        1 B3P     -0.132400
      2 C2          1.5460    0.0540    0.0410 c3        1 B3P      0.108800
      3 C3         -0.4770    0.0540    1.4710 c3        1 B3P      0.108800
      4 N1         -1.9610    0.0370    1.5610 n4        1 B3P     -0.743000
      5 C4         -2.4940   -0.0110    2.9850 c3        1 B3P      0.078200
      6 C5         -4.0430   -0.1120    2.9170 c3        1 B3P      0.117733
      7 C6         -1.9410   -1.2550    3.7380 c3        1 B3P      0.117733
      8 C7         -2.1200    1.2650    3.7760 c3        1 B3P      0.117733
      9 N2          2.1270    0.0360   -1.3270 n4        1 B3P     -0.743000
     10 C8          3.6470   -0.0110   -1.3530 c3        1 B3P      0.078200
     11 C9          4.1000   -0.1140   -2.8360 c3        1 B3P      0.117733
     12 C10         4.1730   -1.2540   -0.5800 c3        1 B3P      0.117733
     13 C11         4.2670    1.2660   -0.7380 c3        1 B3P      0.117733
     14 O1          3.4880   -1.2770   -3.3630 oh        1 B3P     -0.626467
     15 O2          3.3550   -2.3700   -0.8240 oh        1 B3P     -0.626467
     16 O3          3.5240    2.3810   -1.1910 oh        1 B3P     -0.626467
     17 O4         -4.3360   -1.2740    2.1620 oh        1 B3P     -0.626467
     18 O5         -1.9000   -2.3700    2.8840 oh        1 B3P     -0.626467
     19 O6         -2.2970    2.3800    2.9250 oh        1 B3P     -0.626467
     20 H11        -0.3300    1.0580   -0.4680 hc        1 B3P      0.087200
     21 H12        -0.3940   -0.7580   -0.5570 hc        1 B3P      0.087200
     22 H21         1.9600    0.9580    0.5780 hx        1 B3P      0.121450
     23 H22         1.8890   -0.8850    0.5700 hx        1 B3P      0.121450
     24 H31        -0.1100    0.9580    2.0410 hx        1 B3P      0.121450
     25 H32        -0.0940   -0.8850    1.9710 hx        1 B3P      0.121450
     26 HN1        -2.3500    0.8790    1.1170 hn        1 B3P      0.471800
     27 H51        -4.4410   -0.2000    3.9630 h1        1 B3P      0.082700
     28 H52        -4.4780    0.8000    2.4250 h1        1 B3P      0.082700
     29 H61        -0.8790   -1.0810    4.0620 h1        1 B3P      0.082700
     30 H62        -2.5830   -1.4310    4.6410 h1        1 B3P      0.082700
     31 H71        -1.0410    1.2260    4.0900 h1        1 B3P      0.082700
     32 H72        -2.7680    1.3180    4.6910 h1        1 B3P      0.082700
     33 HN2         1.8060   -0.8080   -1.8290 hn        1 B3P      0.471800
     34 H91         3.7810    0.7970   -3.4120 h1        1 B3P      0.082700
     35 H92         5.2200   -0.2010   -2.8620 h1        1 B3P      0.082700
     36 H101        4.1230   -1.0780    0.5300 h1        1 B3P      0.082700
     37 H102        5.2380   -1.4290   -0.8820 h1        1 B3P      0.082700
     38 H111        5.3460    1.3190   -1.0430 h1        1 B3P      0.082700
     39 H112        4.2030    1.2280    0.3840 h1        1 B3P      0.082700
     40 HO1         3.8520   -1.4290   -4.2470 ho        1 B3P      0.459333
     41 HO2         3.6440   -2.7880   -1.6510 ho        1 B3P      0.459333
     42 HO3         4.1380    3.1120   -1.3510 ho        1 B3P      0.459333
     43 HO4        -5.2920   -1.4260    2.2100 ho        1 B3P      0.459333
     44 HO5        -2.7760   -2.7880    2.8800 ho        1 B3P      0.459333
     45 HO6        -2.6520    3.1110    3.4510 ho        1 B3P      0.459333
     46 H121       -2.3270   -0.8070    1.0900 hn        1 B3P      0.471800
     47 H221        1.8380    0.8780   -1.8420 hn        1 B3P      0.471800
@<TRIPOS>BOND
     1    1    2 1   
     2    1    3 1   
     3    1   20 1   
     4    1   21 1   
     5    2    9 1   
     6    2   22 1   
     7    2   23 1   
     8    3    4 1   
     9    3   24 1   
    10    3   25 1   
    11    4    5 1   
    12    4   26 1   
    13    4   46 1   
    14    5    6 1   
    15    5    7 1   
    16    5    8 1   
    17    6   17 1   
    18    6   27 1   
    19    6   28 1   
    20    7   18 1   
    21    7   29 1   
    22    7   30 1   
    23    8   19 1   
    24    8   31 1   
    25    8   32 1   
    26    9   10 1   
    27    9   33 1   
    28    9   47 1   
    29   10   11 1   
    30   10   12 1   
    31   10   13 1   
    32   11   14 1   
    33   11   34 1   
    34   11   35 1   
    35   12   15 1   
    36   12   36 1   
    37   12   37 1   
    38   13   16 1   
    39   13   38 1   
    40   13   39 1   
    41   14   40 1   
    42   15   41 1   
    43   16   42 1   
    44   17   43 1   
    45   18   44 1   
    46   19   45 1   
@<TRIPOS>SUBSTRUCTURE
     1 B3P         1 TEMP              0 ****  ****    0 ROOT
