@<TRIPOS>MOLECULE
B3P
   47    46     1     0     0
SMALL
bcc


@<TRIPOS>ATOM
      1 C1          0.0170    0.0980    0.0240 c3        1 B3P     -0.132400
      2 C2          1.5450    0.0570    0.0400 c3        1 B3P      0.108800
      3 C3         -0.4780    0.0560    1.4700 c3        1 B3P      0.108800
      4 N1         -1.9620    0.0250    1.5600 ny        1 B3P     -0.743000
      5 C4         -2.4940   -0.0100    2.9850 c3        1 B3P      0.078200
      6 C5         -4.0420   -0.1280    2.9180 c3        1 B3P      0.117733
      7 C6         -1.9290   -1.2380    3.7530 c3        1 B3P      0.117733
      8 C7         -2.1330    1.2800    3.7590 c3        1 B3P      0.117733
      9 N2          2.1260    0.0250   -1.3290 ny        1 B3P     -0.743000
     10 C8          3.6460   -0.0080   -1.3540 c3        1 B3P      0.078200
     11 C9          4.1000   -0.1260   -2.8360 c3        1 B3P      0.117733
     12 C10         4.1830   -1.2350   -0.5640 c3        1 B3P      0.117733
     13 C11         4.2550    1.2830   -0.7570 c3        1 B3P      0.117733
     14 O1          3.4980   -1.3020   -3.3470 oh        1 B3P     -0.626467
     15 O2          3.3760   -2.3620   -0.7930 oh        1 B3P     -0.626467
     16 O3          3.5010    2.3850   -1.2250 oh        1 B3P     -0.626467
     17 O4         -4.3230   -1.3020    2.1790 oh        1 B3P     -0.626467
     18 O5         -1.8760   -2.3640    2.9140 oh        1 B3P     -0.626467
     19 O6         -2.3220    2.3820    2.8940 oh        1 B3P     -0.626467
     20 H11        -0.3870   -0.7820   -0.5480 hc        1 B3P      0.087200
     21 H12        -0.3410    1.0360   -0.4810 hc        1 B3P      0.087200
     22 H21         1.8970   -0.8730    0.5810 hx        1 B3P      0.121450
     23 H22         1.9510    0.9710    0.5640 hx        1 B3P      0.121450
     24 H31        -0.0860   -0.8740    1.9820 hx        1 B3P      0.121450
     25 H32        -0.1200    0.9700    2.0280 hx        1 B3P      0.121450
     26 HN1        -2.3200   -0.8290    1.1000 hn        1 B3P      0.471800
     27 H51        -4.4860    0.7730    2.4140 h1        1 B3P      0.082700
     28 H52        -4.4390   -0.2060    3.9650 h1        1 B3P      0.082700
     29 H61        -0.8680   -1.0490    4.0750 h1        1 B3P      0.082700
     30 H62        -2.5690   -1.4090    4.6590 h1        1 B3P      0.082700
     31 H71        -1.0540    1.2560    4.0740 h1        1 B3P      0.082700
     32 H72        -2.7810    1.3380    4.6730 h1        1 B3P      0.082700
     33 HN2         1.8130   -0.8280   -1.8190 hn        1 B3P      0.471800
     34 H91         3.7730    0.7740   -3.4240 h1        1 B3P      0.082700
     35 H92         5.2200   -0.2030   -2.8610 h1        1 B3P      0.082700
     36 H101        5.2510   -1.4050   -0.8650 h1        1 B3P      0.082700
     37 H102        4.1330   -1.0440    0.5430 h1        1 B3P      0.082700
     38 H111        5.3330    1.3430   -1.0630 h1        1 B3P      0.082700
     39 H112        4.1900    1.2600    0.3660 h1        1 B3P      0.082700
     40 HO1         3.8640   -1.4630   -4.2290 ho        1 B3P      0.459333
     41 HO2         3.6690   -2.7880   -1.6140 ho        1 B3P      0.459333
     42 HO3         4.1080    3.1190   -1.3950 ho        1 B3P      0.459333
     43 HO4        -5.2770   -1.4630    2.2280 ho        1 B3P      0.459333
     44 HO5        -2.7480   -2.7900    2.9160 ho        1 B3P      0.459333
     45 HO6        -2.6850    3.1160    3.4100 ho        1 B3P      0.459333
     46 H121       -2.3590    0.8570    1.1050 hn        1 B3P      0.471800
     47 H221        1.8290    0.8580   -1.8550 hn        1 B3P      0.471800
@<TRIPOS>BOND
     1    1    2 1   
     2    1    3 1   
     3    1   20 1   
     4    1   21 1   
     5    2    9 1   
     6    2   22 1   
     7    2   23 1   
     8    3    4 1   
     9    3   24 1   
    10    3   25 1   
    11    4    5 1   
    12    4   26 1   
    13    4   46 1   
    14    5    6 1   
    15    5    7 1   
    16    5    8 1   
    17    6   17 1   
    18    6   27 1   
    19    6   28 1   
    20    7   18 1   
    21    7   29 1   
    22    7   30 1   
    23    8   19 1   
    24    8   31 1   
    25    8   32 1   
    26    9   10 1   
    27    9   33 1   
    28    9   47 1   
    29   10   11 1   
    30   10   12 1   
    31   10   13 1   
    32   11   14 1   
    33   11   34 1   
    34   11   35 1   
    35   12   15 1   
    36   12   36 1   
    37   12   37 1   
    38   13   16 1   
    39   13   38 1   
    40   13   39 1   
    41   14   40 1   
    42   15   41 1   
    43   16   42 1   
    44   17   43 1   
    45   18   44 1   
    46   19   45 1   
@<TRIPOS>SUBSTRUCTURE
     1 B3P         1 TEMP              0 ****  ****    0 ROOT
