@<TRIPOS>MOLECULE
B3P
   45    44     1     0     0
SMALL
bcc


@<TRIPOS>ATOM
      1 C1         -0.4970   -0.1200   -0.6710 c3        1 B3P     -0.089400
      2 C2          1.0610   -0.0210   -0.7060 c3        1 B3P      0.165300
      3 C3         -0.9820   -0.1150    0.7990 c3        1 B3P      0.165300
      4 N1         -2.3080    0.4680    0.8690 n3        1 B3P     -0.824700
      5 C4         -2.9760    0.0120    2.0660 c3        1 B3P      0.076200
      6 C5         -4.2660    0.8400    2.2830 c3        1 B3P      0.126733
      7 C6         -2.0360    0.1940    3.2810 c3        1 B3P      0.126733
      8 C7         -3.3430   -1.4850    1.9150 c3        1 B3P      0.126733
      9 N2          1.5470   -0.4810   -1.9850 n3        1 B3P     -0.824700
     10 C8          2.9170   -0.0050   -2.1870 c3        1 B3P      0.076200
     11 C9          3.4680   -0.5830   -3.4810 c3        1 B3P      0.126733
     12 C10         3.7880   -0.4530   -1.0210 c3        1 B3P      0.126733
     13 C11         2.9190    1.5160   -2.2700 c3        1 B3P      0.126733
     14 O1          2.6270   -0.2180   -4.5550 oh        1 B3P     -0.604800
     15 O2          5.1610   -0.3300   -1.3790 oh        1 B3P     -0.604800
     16 O3          4.0850    1.9510   -2.9420 oh        1 B3P     -0.604800
     17 O4         -5.0990    0.7100    1.1640 oh        1 B3P     -0.604800
     18 O5         -2.7970    0.1750    4.4740 oh        1 B3P     -0.604800
     19 O6         -4.4980   -1.7670    2.6860 oh        1 B3P     -0.604800
     20 H11        -0.7840   -0.9560   -1.1100 hc        1 B3P      0.056700
     21 H12        -0.8870    0.6540   -1.1490 hc        1 B3P      0.056700
     22 H21         1.4420   -0.5800    0.0100 h1        1 B3P      0.031700
     23 H22         1.3330    0.9170   -0.5700 h1        1 B3P      0.031700
     24 H31        -1.0120   -1.0400    1.1400 h1        1 B3P      0.031700
     25 H32        -0.3750    0.4040    1.3350 h1        1 B3P      0.031700
     26 HN1        -2.2390    1.3870    0.8860 hn        1 B3P      0.372800
     27 H51        -4.0350    1.7740    2.4070 h1        1 B3P      0.053367
     28 H52        -4.7410    0.5080    3.0880 h1        1 B3P      0.053367
     29 H61        -1.3860   -0.5300    3.3000 h1        1 B3P      0.053367
     30 H62        -1.5680    1.0520    3.2060 h1        1 B3P      0.053367
     31 H71        -3.5250   -1.6850    0.9610 h1        1 B3P      0.053367
     32 H72        -2.6060   -2.0320    2.2250 h1        1 B3P      0.053367
     33 HN2         1.5350   -1.3940   -2.0040 hn        1 B3P      0.372800
     34 H91         4.3730   -0.2310   -3.6390 h1        1 B3P      0.053367
     35 H92         3.5050   -1.5520   -3.4130 h1        1 B3P      0.053367
     36 H101        3.6000    0.1160   -0.2280 h1        1 B3P      0.053367
     37 H102        3.5930   -1.3700   -0.8110 h1        1 B3P      0.053367
     38 H111        2.1270    1.8160   -2.7640 h1        1 B3P      0.053367
     39 H112        2.9030    1.8890   -1.3750 h1        1 B3P      0.053367
     40 HO1         2.9580   -0.5460   -5.3180 ho        1 B3P      0.416167
     41 HO2         5.6700   -0.5670   -0.6890 ho        1 B3P      0.416167
     42 HO3         4.0730    2.8430   -3.0140 ho        1 B3P      0.416167
     43 HO4        -5.8470    1.2020    1.2860 ho        1 B3P      0.416167
     44 HO5        -2.2510    0.2980    5.1810 ho        1 B3P      0.416167
     45 HO6        -4.6300   -2.6640    2.7150 ho        1 B3P      0.416167
@<TRIPOS>BOND
     1    1    2 1   
     2    1    3 1   
     3    1   20 1   
     4    1   21 1   
     5    2    9 1   
     6    2   22 1   
     7    2   23 1   
     8    3    4 1   
     9    3   24 1   
    10    3   25 1   
    11    4    5 1   
    12    4   26 1   
    13    5    6 1   
    14    5    7 1   
    15    5    8 1   
    16    6   17 1   
    17    6   27 1   
    18    6   28 1   
    19    7   18 1   
    20    7   29 1   
    21    7   30 1   
    22    8   19 1   
    23    8   31 1   
    24    8   32 1   
    25    9   10 1   
    26    9   33 1   
    27   10   11 1   
    28   10   12 1   
    29   10   13 1   
    30   11   14 1   
    31   11   34 1   
    32   11   35 1   
    33   12   15 1   
    34   12   36 1   
    35   12   37 1   
    36   13   16 1   
    37   13   38 1   
    38   13   39 1   
    39   14   40 1   
    40   15   41 1   
    41   16   42 1   
    42   17   43 1   
    43   18   44 1   
    44   19   45 1   
@<TRIPOS>SUBSTRUCTURE
     1 B3P         1 TEMP              0 ****  ****    0 ROOT
