@<TRIPOS>MOLECULE
B3P
   45    44     1     0     0
SMALL
bcc


@<TRIPOS>ATOM
      1 C1         -0.1790    0.6860   -0.0000 c3        1 B3P     -0.088400
      2 C2          0.0380   -0.1750    1.2430 c3        1 B3P      0.158800
      3 C3          0.0390   -0.1760   -1.2430 c3        1 B3P      0.158800
      4 N1         -0.1060    0.5740   -2.4750 n3        1 B3P     -0.813200
      5 C4         -0.1800   -0.2330   -3.6920 c3        1 B3P      0.113200
      6 C5          0.1170    0.6740   -4.9200 c3        1 B3P      0.127067
      7 C6          0.8120   -1.4250   -3.7090 c3        1 B3P      0.127067
      8 C7         -1.5810   -0.8620   -3.9400 c3        1 B3P      0.127067
      9 N2         -0.1060    0.5750    2.4750 n3        1 B3P     -0.813200
     10 C8         -0.1800   -0.2300    3.6920 c3        1 B3P      0.113200
     11 C9          0.1160    0.6770    4.9200 c3        1 B3P      0.127067
     12 C10         0.8100   -1.4240    3.7100 c3        1 B3P      0.127067
     13 C11        -1.5820   -0.8590    3.9400 c3        1 B3P      0.127067
     14 O1          1.4150    1.2280    4.8880 oh        1 B3P     -0.603467
     15 O2          2.1230   -1.0910    3.3280 oh        1 B3P     -0.603467
     16 O3         -2.5300    0.1950    3.9710 oh        1 B3P     -0.603467
     17 O4          1.4150    1.2250   -4.8890 oh        1 B3P     -0.603467
     18 O5          2.1240   -1.0930   -3.3270 oh        1 B3P     -0.603467
     19 O6         -2.5290    0.1910   -3.9720 oh        1 B3P     -0.603467
     20 H11        -1.2180    1.1100   -0.0010 hc        1 B3P      0.051700
     21 H12         0.5390    1.5460   -0.0000 hc        1 B3P      0.051700
     22 H21         1.0890   -0.5890    1.2290 h1        1 B3P      0.041700
     23 H22        -0.6720   -1.0540    1.1950 h1        1 B3P      0.041700
     24 H31         1.0890   -0.5900   -1.2290 h1        1 B3P      0.041700
     25 H32        -0.6720   -1.0550   -1.1950 h1        1 B3P      0.041700
     26 HN1        -0.9150    1.1700   -2.4380 hn        1 B3P      0.372800
     27 H51         0.0940    0.0510   -5.8540 h1        1 B3P      0.042533
     28 H52        -0.6580    1.4830   -4.9890 h1        1 B3P      0.042533
     29 H61         0.4920   -2.2120   -2.9730 h1        1 B3P      0.042533
     30 H62         0.8110   -1.8610   -4.7450 h1        1 B3P      0.042533
     31 H71        -1.5800   -1.4080   -4.9200 h1        1 B3P      0.042533
     32 H72        -1.8330   -1.5820   -3.1160 h1        1 B3P      0.042533
     33 HN2        -0.9150    1.1720    2.4370 hn        1 B3P      0.372800
     34 H91         0.0930    0.0540    5.8540 h1        1 B3P      0.042533
     35 H92        -0.6580    1.4860    4.9880 h1        1 B3P      0.042533
     36 H101        0.8090   -1.8590    4.7460 h1        1 B3P      0.042533
     37 H102        0.4900   -2.2100    2.9740 h1        1 B3P      0.042533
     38 H111       -1.8350   -1.5790    3.1170 h1        1 B3P      0.042533
     39 H112       -1.5810   -1.4050    4.9200 h1        1 B3P      0.042533
     40 HO1         1.4680    1.8110    4.1200 ho        1 B3P      0.417333
     41 HO2         2.4140   -0.3550    3.8840 ho        1 B3P      0.417333
     42 HO3        -3.3930   -0.2140    4.1020 ho        1 B3P      0.417333
     43 HO4         1.4680    1.8090   -4.1210 ho        1 B3P      0.417333
     44 HO5         2.4160   -0.3560   -3.8830 ho        1 B3P      0.417333
     45 HO6        -3.3920   -0.2180   -4.1020 ho        1 B3P      0.417333
@<TRIPOS>BOND
     1    1    2 1   
     2    1    3 1   
     3    1   20 1   
     4    1   21 1   
     5    2    9 1   
     6    2   22 1   
     7    2   23 1   
     8    3    4 1   
     9    3   24 1   
    10    3   25 1   
    11    4    5 1   
    12    4   26 1   
    13    5    6 1   
    14    5    7 1   
    15    5    8 1   
    16    6   17 1   
    17    6   27 1   
    18    6   28 1   
    19    7   18 1   
    20    7   29 1   
    21    7   30 1   
    22    8   19 1   
    23    8   31 1   
    24    8   32 1   
    25    9   10 1   
    26    9   33 1   
    27   10   11 1   
    28   10   12 1   
    29   10   13 1   
    30   11   14 1   
    31   11   34 1   
    32   11   35 1   
    33   12   15 1   
    34   12   36 1   
    35   12   37 1   
    36   13   16 1   
    37   13   38 1   
    38   13   39 1   
    39   14   40 1   
    40   15   41 1   
    41   16   42 1   
    42   17   43 1   
    43   18   44 1   
    44   19   45 1   
@<TRIPOS>SUBSTRUCTURE
     1 B3P         1 TEMP              0 ****  ****    0 ROOT
