@<TRIPOS>MOLECULE
B3Q
   22    21     1     0     0
SMALL
bcc


@<TRIPOS>ATOM
      1 N          -1.7830   -0.5100   -1.0940 n3        1 B3Q     -0.909800
      2 CB         -0.3760   -0.3580   -0.9370 c3        1 B3Q      0.176500
      3 CG         -0.0310   -0.3480    0.5330 c3        1 B3Q     -0.074400
      4 CA          0.3330   -1.5080   -1.6140 c3        1 B3Q     -0.233400
      5 C           0.0280   -1.4880   -3.0960 c         1 B3Q      0.907600
      6 O           0.6060   -0.6590   -3.8460 o         1 B3Q     -0.848300
      7 HN         -2.1840    0.3130   -1.0710 hn        1 B3Q      0.356300
      8 HB         -0.0930    0.4850   -1.3440 h1        1 B3Q      0.048700
      9 HG          0.7200   -0.9520    0.6950 hc        1 B3Q      0.033200
     10 HGA        -0.8060   -0.6450    1.0510 hc        1 B3Q      0.033200
     11 HA          0.0250   -2.3530   -1.2290 hc        1 B3Q      0.027200
     12 HAA         1.2980   -1.4210   -1.4790 hc        1 B3Q      0.027200
     13 HNA        -2.1120   -1.0290   -0.4140 hn        1 B3Q      0.356300
     14 CD          0.3500    1.0540    0.9520 c3        1 B3Q     -0.142400
     15 OXT        -0.7990   -2.3050   -3.5790 o         1 B3Q     -0.848300
     16 CE          0.7230    1.0580    2.4180 c         1 B3Q      0.653100
     17 H8          1.1130    1.3570    0.4200 hc        1 B3Q      0.077700
     18 H9         -0.4090    1.6550    0.8070 hc        1 B3Q      0.077700
     19 NF2         0.7980    2.2840    3.1270 n         1 B3Q     -0.680000
     20 OF1         0.9430    0.0100    2.9910 o         1 B3Q     -0.640100
     21 H11         1.0490    2.2890    4.0070 hn        1 B3Q      0.301000
     22 H12         0.6090    3.0710    2.7020 hn        1 B3Q      0.301000
@<TRIPOS>BOND
     1    1    2 1   
     2    1    7 1   
     3    1   13 1   
     4    2    3 1   
     5    2    4 1   
     6    2    8 1   
     7    3    9 1   
     8    3   10 1   
     9    3   14 1   
    10    4    5 1   
    11    4   11 1   
    12    4   12 1   
    13    5    6 1   
    14    5   15 1   
    15   14   16 1   
    16   14   17 1   
    17   14   18 1   
    18   16   19 1   
    19   16   20 2   
    20   19   21 1   
    21   19   22 1   
@<TRIPOS>SUBSTRUCTURE
     1 B3Q         1 TEMP              0 ****  ****    0 ROOT
