@<TRIPOS>MOLECULE
B3Q
   22    21     1     0     0
SMALL
bcc


@<TRIPOS>ATOM
      1 N          -0.7460    1.0510    1.4200 n3        1 B3Q     -0.909800
      2 CB         -0.4280    0.3830    0.1660 c3        1 B3Q      0.176500
      3 CG          0.9760   -0.2500    0.1840 c3        1 B3Q     -0.074400
      4 CA         -1.4310   -0.6920   -0.2660 c3        1 B3Q     -0.233400
      5 C          -2.8420   -0.1100   -0.4520 c         1 B3Q      0.907600
      6 O          -3.3830   -0.2260   -1.5870 o         1 B3Q     -0.848300
      7 HN         -1.6580    1.4740    1.3230 hn        1 B3Q      0.356300
      8 HB         -0.4290    1.1880   -0.6300 h1        1 B3Q      0.048700
      9 HG          1.0240   -1.0490    0.9670 hc        1 B3Q      0.033200
     10 HGA         1.1310   -0.7450   -0.8100 hc        1 B3Q      0.033200
     11 HA         -1.0960   -1.1460   -1.2310 hc        1 B3Q      0.027200
     12 HAA        -1.4800   -1.5020    0.5040 hc        1 B3Q      0.027200
     13 HNA        -0.8190    0.3630    2.1470 hn        1 B3Q      0.356300
     14 CD          2.0520    0.7820    0.4390 c3        1 B3Q     -0.142400
     15 OXT        -3.4000    0.4450    0.5420 o         1 B3Q     -0.848300
     16 CE          3.4400    0.2490    0.1520 c         1 B3Q      0.653100
     17 H8          1.8690    1.6920   -0.1920 hc        1 B3Q      0.077700
     18 H9          2.0230    1.1050    1.5140 hc        1 B3Q      0.077700
     19 NF2         3.7610   -0.0740   -1.1490 n         1 B3Q     -0.680000
     20 OF1         4.3130    0.1350    1.0390 o         1 B3Q     -0.640100
     21 H11         3.0570   -0.1090   -1.8390 hn        1 B3Q      0.301000
     22 H12         4.6330   -0.4980   -1.3430 hn        1 B3Q      0.301000
@<TRIPOS>BOND
     1    1    2 1   
     2    1    7 1   
     3    1   13 1   
     4    2    3 1   
     5    2    4 1   
     6    2    8 1   
     7    3    9 1   
     8    3   10 1   
     9    3   14 1   
    10    4    5 1   
    11    4   11 1   
    12    4   12 1   
    13    5    6 1   
    14    5   15 1   
    15   14   16 1   
    16   14   17 1   
    17   14   18 1   
    18   16   19 1   
    19   16   20 2   
    20   19   21 1   
    21   19   22 1   
@<TRIPOS>SUBSTRUCTURE
     1 B3Q         1 TEMP              0 ****  ****    0 ROOT
