@<TRIPOS>MOLECULE
B3R
   13    10     1     0     0
SMALL
bcc


@<TRIPOS>ATOM
      1 C1         -0.6320   -0.0590   -0.9630 c1        1 B3R      0.081000
      2 C2          0.7540   -0.0590   -0.9630 c2        1 B3R     -0.191000
      3 C3          1.4470   -0.0590    0.2370 c1        1 B3R     -0.128000
      4 C4         -1.3250   -0.0590    0.2370 c1        1 B3R     -0.144000
      5 C5         -0.6320   -0.0590    1.4370 c1        1 B3R     -0.118000
      6 C6          0.7540   -0.0590    1.4370 c1        1 B3R     -0.118000
      7 O7         -1.3350   -0.0830   -2.1820 o         1 B3R     -0.248000
      8 BR8         3.3590   -0.0780    0.2370 br        1 B3R      0.054000
      9 H2          1.2420   -0.0590   -1.8090 ha        1 B3R      0.148000
     10 H4         -2.3010   -0.0590    0.2370 ha        1 B3R      0.155000
     11 H5         -1.1200   -0.0590    2.2830 ha        1 B3R      0.145000
     12 H6          1.2420   -0.0590    2.2830 ha        1 B3R      0.145000
     13 HO7        -1.4560    0.7480   -2.4700 ho        1 B3R      0.221000
@<TRIPOS>BOND
     1    1    2 1   
     2    1    4 1   
     3    2    3 1   
     4    2    9 1   
     5    3    8 1   
     6    4   10 1   
     7    5    6 1   
     8    5   11 1   
     9    6   12 1   
    10    7   13 1   
@<TRIPOS>SUBSTRUCTURE
     1 B3R         1 TEMP              0 ****  ****    0 ROOT
