@<TRIPOS>MOLECULE
B3R
   13    13     1     0     0
SMALL
bcc


@<TRIPOS>ATOM
      1 C1         -2.2910    0.4530    0.1240 ca        1 B3R      0.126100
      2 C2         -0.9360    0.8090    0.1300 ca        1 B3R     -0.191000
      3 C3          0.0300   -0.1970    0.0470 ca        1 B3R      0.012100
      4 C4         -2.6870   -0.8920    0.0360 ca        1 B3R     -0.144000
      5 C5         -1.7070   -1.8750   -0.0460 ca        1 B3R     -0.097000
      6 C6         -0.3520   -1.5370   -0.0410 ca        1 B3R     -0.139000
      7 O7         -3.3000    1.3850    0.2020 oh        1 B3R     -0.494100
      8 BR8         1.8470    0.2640    0.0540 br        1 B3R     -0.086100
      9 H2         -0.6450    1.8680    0.2000 ha        1 B3R      0.148000
     10 H4         -3.7570   -1.1450    0.0330 ha        1 B3R      0.155000
     11 H5         -2.0020   -2.9330   -0.1150 ha        1 B3R      0.141000
     12 H6          0.4060   -2.3310   -0.1060 ha        1 B3R      0.149000
     13 HO7        -2.8950    2.2630    0.2580 ho        1 B3R      0.422000
@<TRIPOS>BOND
     1    1    2 ar  
     2    1    4 ar  
     3    1    7 1   
     4    2    3 ar  
     5    2    9 1   
     6    3    6 ar  
     7    3    8 1   
     8    4    5 ar  
     9    4   10 1   
    10    5    6 ar  
    11    5   11 1   
    12    6   12 1   
    13    7   13 1   
@<TRIPOS>SUBSTRUCTURE
     1 B3R         1 TEMP              0 ****  ****    0 ROOT
