@<TRIPOS>MOLECULE
B3R
   13    13     1     0     0
SMALL
bcc


@<TRIPOS>ATOM
      1 C1         -0.0750   -0.1460    0.0560 ca        1 B3R      0.126100
      2 C2          1.3250   -0.1400   -0.0060 ca        1 B3R     -0.191000
      3 C3          2.0550   -0.0400    1.1800 ca        1 B3R      0.012100
      4 C4         -0.7480   -0.0540    1.2860 ca        1 B3R     -0.144000
      5 C5          0.0020    0.0450    2.4530 ca        1 B3R     -0.097000
      6 C6          1.3980    0.0530    2.4090 ca        1 B3R     -0.139000
      7 O7         -0.8640   -0.2420   -1.0670 oh        1 B3R     -0.494100
      8 BR8         3.9280   -0.0290    1.1140 br        1 B3R     -0.086100
      9 H2          1.8330   -0.2130   -0.9790 ha        1 B3R      0.148000
     10 H4         -1.8460   -0.0620    1.3070 ha        1 B3R      0.155000
     11 H5         -0.5100    0.1180    3.4250 ha        1 B3R      0.141000
     12 H6          1.9710    0.1320    3.3450 ha        1 B3R      0.149000
     13 HO7        -0.2820   -0.2990   -1.8390 ho        1 B3R      0.422000
@<TRIPOS>BOND
     1    1    2 ar  
     2    1    4 ar  
     3    1    7 1   
     4    2    3 ar  
     5    2    9 1   
     6    3    6 ar  
     7    3    8 1   
     8    4    5 ar  
     9    4   10 1   
    10    5    6 ar  
    11    5   11 1   
    12    6   12 1   
    13    7   13 1   
@<TRIPOS>SUBSTRUCTURE
     1 B3R         1 TEMP              0 ****  ****    0 ROOT
