@<TRIPOS>MOLECULE
B3S
   16    15     1     0     0
SMALL
bcc


@<TRIPOS>ATOM
      1 N          -0.6950   -1.2910    2.4300 n3        1 B3S     -0.919800
      2 OD          1.1980   -3.5180    1.7420 oh        1 B3S     -0.621800
      3 CG          0.9790   -2.3660    0.9490 c3        1 B3S      0.125400
      4 CB          0.6020   -1.1260    1.7800 c3        1 B3S      0.125500
      5 CA          0.7080    0.1100    0.8820 c3        1 B3S     -0.230400
      6 C           2.1800    0.4650    0.5930 c         1 B3S      0.912600
      7 O           2.6940    1.4160    1.2460 o         1 B3S     -0.844300
      8 OXT         2.7910   -0.2010   -0.2930 o         1 B3S     -0.844300
      9 H          -1.4190   -1.3180    1.7370 hn        1 B3S      0.328300
     10 H2         -0.8680   -0.4990    3.0200 hn        1 B3S      0.328300
     11 HD          0.4680   -3.5840    2.3670 ho        1 B3S      0.393000
     12 HG3         0.1830   -2.5890    0.1880 h1        1 B3S      0.062700
     13 HG2         1.9590   -2.1640    0.4280 h1        1 B3S      0.062700
     14 HB          1.3670   -1.0270    2.6070 h1        1 B3S      0.074700
     15 HA1         0.1830   -0.0770   -0.0870 hc        1 B3S      0.023200
     16 HA2         0.2280    0.9900    1.3810 hc        1 B3S      0.023200
@<TRIPOS>BOND
     1    1    4 1   
     2    1    9 1   
     3    1   10 1   
     4    2    3 1   
     5    2   11 1   
     6    3    4 1   
     7    3   12 1   
     8    3   13 1   
     9    4    5 1   
    10    4   14 1   
    11    5    6 1   
    12    5   15 1   
    13    5   16 1   
    14    6    7 1   
    15    6    8 1   
@<TRIPOS>SUBSTRUCTURE
     1 B3S         1 TEMP              0 ****  ****    0 ROOT
