@<TRIPOS>MOLECULE
B3S
   16    15     1     0     0
SMALL
bcc


@<TRIPOS>ATOM
      1 N          -1.6420   -0.1690   -0.3620 n3        1 B3S     -0.900800
      2 OD          1.5550    0.7370   -1.5860 oh        1 B3S     -0.627800
      3 CG          0.3420    1.0200   -1.0180 c3        1 B3S      0.128400
      4 CB         -0.1350   -0.1400   -0.3150 c3        1 B3S      0.138500
      5 CA          0.3240   -0.0820    1.1060 c3        1 B3S     -0.237400
      6 C           0.1570   -1.4660    1.7580 c         1 B3S      0.908600
      7 O           1.0560   -2.2630    1.7150 o         1 B3S     -0.847800
      8 OXT        -1.0070   -1.7840    2.3960 o         1 B3S     -0.847800
      9 H          -1.9120   -0.8220   -0.9220 hn        1 B3S      0.354800
     10 H2         -1.9670    0.6740   -0.6780 hn        1 B3S      0.354800
     11 HD          1.8220    1.4290   -2.0700 ho        1 B3S      0.406000
     12 HG3         0.4420    1.7740   -0.3870 h1        1 B3S      0.030200
     13 HG2        -0.2390    1.2390   -1.6530 h1        1 B3S      0.030200
     14 HB          0.2070   -0.9110   -0.7220 h1        1 B3S      0.059700
     15 HA1        -0.2250    0.5990    1.6100 hc        1 B3S      0.025200
     16 HA2         1.2210    0.1640    1.1290 hc        1 B3S      0.025200
@<TRIPOS>BOND
     1    1    4 1   
     2    1    9 1   
     3    1   10 1   
     4    2    3 1   
     5    2   11 1   
     6    3    4 1   
     7    3   12 1   
     8    3   13 1   
     9    4    5 1   
    10    4   14 1   
    11    5    6 1   
    12    5   15 1   
    13    5   16 1   
    14    6    7 1   
    15    6    8 1   
@<TRIPOS>SUBSTRUCTURE
     1 B3S         1 TEMP              0 ****  ****    0 ROOT
