@<TRIPOS>MOLECULE
B3T
   19    18     1     0     0
SMALL
bcc


@<TRIPOS>ATOM
      1 CG         -0.4730    0.9120    0.5980 c3        1 B3T      0.139100
      2 OD1        -0.0300    0.9720    1.9330 oh        1 B3T     -0.613800
      3 CD2        -1.9850    0.9130    0.5680 c3        1 B3T     -0.120100
      4 CB          0.0420   -0.3520   -0.0480 c3        1 B3T      0.146500
      5 N           0.2730   -1.3370    0.9530 n3        1 B3T     -0.908800
      6 CA          1.3360   -0.0570   -0.7720 c3        1 B3T     -0.227400
      7 C           1.4400   -0.9360   -1.9990 c         1 B3T      0.905600
      8 O           2.0940   -2.0100   -1.9510 o         1 B3T     -0.851800
      9 HG         -0.1380    1.6890    0.1080 h1        1 B3T      0.060700
     10 HOD1        0.1210    1.8180    2.1570 ho        1 B3T      0.397000
     11 H1D2       -2.3220    0.1400    1.0680 hc        1 B3T      0.032033
     12 H2D2       -2.2940    0.8610   -0.3610 hc        1 B3T      0.032033
     13 H3D2       -2.3200    1.7380    0.9780 hc        1 B3T      0.032033
     14 HB         -0.6190   -0.6860   -0.6860 h1        1 B3T      0.049700
     15 HN         -0.4540   -1.8910    1.0090 hn        1 B3T      0.355800
     16 HA          1.3520    0.8830   -1.0420 hc        1 B3T      0.033200
     17 HAA         2.0910   -0.2380   -0.1770 hc        1 B3T      0.033200
     18 HNA         1.0150   -1.8270    0.7340 hn        1 B3T      0.355800
     19 OXT         0.8710   -0.5920   -3.0690 o         1 B3T     -0.851800
@<TRIPOS>BOND
     1    1    2 1   
     2    1    3 1   
     3    1    4 1   
     4    1    9 1   
     5    2   10 1   
     6    3   11 1   
     7    3   12 1   
     8    3   13 1   
     9    4    5 1   
    10    4    6 1   
    11    4   14 1   
    12    5   15 1   
    13    5   18 1   
    14    6    7 1   
    15    6   16 1   
    16    6   17 1   
    17    7    8 1   
    18    7   19 1   
@<TRIPOS>SUBSTRUCTURE
     1 B3T         1 TEMP              0 ****  ****    0 ROOT
