@<TRIPOS>MOLECULE
B3T
   19    18     1     0     0
SMALL
bcc


@<TRIPOS>ATOM
      1 CG         -1.8570    0.3940   -0.3200 c3        1 B3T      0.139100
      2 OD1        -2.2470    1.1530    0.8160 oh        1 B3T     -0.613800
      3 CD2        -2.9500   -0.5910   -0.6970 c3        1 B3T     -0.120100
      4 CB         -0.4930   -0.3200   -0.1440 c3        1 B3T      0.146500
      5 N          -0.4680   -1.1810    1.0310 n3        1 B3T     -0.908800
      6 CA          0.6280    0.7210   -0.2020 c3        1 B3T     -0.227400
      7 C           2.0190    0.0710   -0.1240 c         1 B3T      0.905600
      8 O           2.2970   -0.6500    0.8810 o         1 B3T     -0.851800
      9 HG         -1.7460    1.1730   -1.1280 h1        1 B3T      0.060700
     10 HOD1       -2.3150    0.5460    1.5600 ho        1 B3T      0.397000
     11 H1D2       -3.9230   -0.0560   -0.8160 hc        1 B3T      0.032033
     12 H2D2       -2.6930   -1.0950   -1.6580 hc        1 B3T      0.032033
     13 H3D2       -3.0660   -1.3690    0.0950 hc        1 B3T      0.032033
     14 HB         -0.3750   -0.9970   -1.0440 h1        1 B3T      0.049700
     15 HN          0.3760   -1.7340    0.9880 hn        1 B3T      0.355800
     16 HA          0.5480    1.2970   -1.1570 hc        1 B3T      0.033200
     17 HAA         0.5190    1.4380    0.6500 hc        1 B3T      0.033200
     18 HNA        -0.3800   -0.6030    1.8490 hn        1 B3T      0.355800
     19 OXT         2.8300    0.2980   -1.0650 o         1 B3T     -0.851800
@<TRIPOS>BOND
     1    1    2 1   
     2    1    3 1   
     3    1    4 1   
     4    1    9 1   
     5    2   10 1   
     6    3   11 1   
     7    3   12 1   
     8    3   13 1   
     9    4    5 1   
    10    4    6 1   
    11    4   14 1   
    12    5   15 1   
    13    5   18 1   
    14    6    7 1   
    15    6   16 1   
    16    6   17 1   
    17    7    8 1   
    18    7   19 1   
@<TRIPOS>SUBSTRUCTURE
     1 B3T         1 TEMP              0 ****  ****    0 ROOT
