@<TRIPOS>MOLECULE
B3U
   21    21     1     0     0
SMALL
bcc


@<TRIPOS>ATOM
      1 N          -2.4670    1.4390   -0.6700 n3        1 B3U     -0.888800
      2 CA         -1.3410    0.5250   -0.5060 c3        1 B3U      0.021500
      3 CB         -0.4860    0.9080    0.7140 c3        1 B3U      0.007900
      4 CG          0.9350    0.5380    0.5550 cc        1 B3U     -0.182900
      5 CD2         2.0950    1.2990    0.8340 cd        1 B3U      0.254200
      6 NE2         3.2390    0.5770    0.5360 nd        1 B3U     -0.727000
      7 CE1         2.7880   -0.6440    0.0780 cc        1 B3U      0.518400
      8 ND1         1.3790   -0.6960    0.0900 na        1 B3U     -0.280900
      9 NT          3.5910   -1.7640   -0.2780 nh        1 B3U     -0.865500
     10 C          -1.7860   -0.9670   -0.3770 c         1 B3U      0.883600
     11 OXT        -1.0220   -1.8610   -0.8510 o         1 B3U     -0.840300
     12 O          -2.8970   -1.2100    0.1680 o         1 B3U     -0.840300
     13 H          -3.0020    1.1210   -1.4590 hn        1 B3U      0.333300
     14 H2         -3.0640    1.3460    0.1350 hn        1 B3U      0.333300
     15 HA         -0.7070    0.6160   -1.4350 h1        1 B3U      0.050700
     16 HB         -0.5260    2.0160    0.8960 hc        1 B3U      0.051200
     17 HBA        -0.9090    0.3970    1.6220 hc        1 B3U      0.051200
     18 HD2         2.1480    2.3130    1.2220 h4        1 B3U      0.020100
     19 HND1        0.7790   -1.4290   -0.2450 hn        1 B3U      0.364700
     20 HNT         4.5560   -1.4970   -0.3070 hn        1 B3U      0.367300
     21 HNTA        3.3080   -2.1230   -1.1710 hn        1 B3U      0.367300
@<TRIPOS>BOND
     1    1    2 1   
     2    1   13 1   
     3    1   14 1   
     4    2    3 1   
     5    2   10 1   
     6    2   15 1   
     7    3    4 1   
     8    3   16 1   
     9    3   17 1   
    10    4    5 2   
    11    4    8 1   
    12    5    6 1   
    13    5   18 1   
    14    6    7 2   
    15    7    8 1   
    16    7    9 1   
    17    8   19 1   
    18    9   20 1   
    19    9   21 1   
    20   10   11 1   
    21   10   12 1   
@<TRIPOS>SUBSTRUCTURE
     1 B3U         1 TEMP              0 ****  ****    0 ROOT
