@<TRIPOS>MOLECULE
B3V
   43    41     1     0     0
SMALL
bcc


@<TRIPOS>ATOM
      1 N1         -0.2030    0.4630   -0.1440 n3        1 B3V     -0.419000
      2 O1          1.5710    0.7910   -2.2650 o         1 B3V     -0.406400
      3 S1          2.1870    0.6060   -1.0750 s4        1 B3V      2.078800
      4 C2          4.1700   -4.1390   -3.9910 c3        1 B3V     -0.090000
      5 N2         -2.7950   -1.4650    1.9210 n4        1 B3V     -0.006000
      6 O2          2.3690    1.6030   -0.1790 o         1 B3V     -0.406400
      7 C5          2.0900   -4.0960   -2.0970 c3        1 B3V     -0.080000
      8 C6          3.0490   -2.9530   -2.2330 c2        1 B3V      0.172000
      9 C7          2.9150   -1.8270   -1.5380 c1        1 B3V      0.004000
     10 C11        -2.2600   -0.4520    0.9640 c3        1 B3V     -0.170000
     11 C8          2.8610   -0.7650   -0.7630 c2        1 B3V     -0.993000
     12 C9          0.2530   -3.5610   -0.4360 c1        1 B3V      0.147000
     13 C10         1.3910   -4.0970   -0.7920 c2        1 B3V     -0.457000
     14 C13        -0.7310   -0.5440    0.7490 c3        1 B3V     -0.122000
     15 C16        -4.0650    0.0170    3.5270 c3        1 B3V     -0.255500
     16 C17        -4.1440   -1.0340    2.4420 c3        1 B3V     -0.132000
     17 C19        -2.8770   -2.8270    1.2860 c3        1 B3V     -0.132000
     18 C20        -2.9570   -3.9550    2.2930 c3        1 B3V     -0.255500
     19 H1         -0.7170    0.4780   -1.0120 hn        1 B3V      0.196000
     20 H131       -0.2600    1.3770    0.2770 hn        1 B3V      0.196000
     21 H132       -0.2080   -0.4420    1.7440 h1        1 B3V      0.132500
     22 H21C        3.2140   -4.3060   -4.5410 h1        1 B3V      0.123667
     23 H22C        4.4710   -5.0350   -3.3970 h1        1 B3V      0.123667
     24 H23C        4.9930   -3.8320   -4.6930 h1        1 B3V      0.123667
     25 H111       -2.7970   -0.5900   -0.0180 hx        1 B3V      0.149500
     26 H112       -2.5180    0.5720    1.3680 hx        1 B3V      0.149500
     27 H171       -4.7460   -0.6580    1.5670 hx        1 B3V      0.150250
     28 H172       -4.6530   -1.9560    2.8530 hx        1 B3V      0.150250
     29 H191       -3.7850   -2.8360    0.6170 hx        1 B3V      0.150250
     30 H192       -1.9550   -2.9690    0.6440 hx        1 B3V      0.150250
     31 H5          1.3540   -4.0430   -2.9510 hc        1 B3V      0.155000
     32 H10         2.6590   -5.0650   -2.2100 hc        1 B3V      0.155000
     33 H7          1.9060   -4.6950    0.0050 ha        1 B3V      0.235000
     34 H9          3.4350   -0.8460    0.2020 h4        1 B3V      0.241000
     35 H161       -3.6360    0.9790    3.1560 hc        1 B3V      0.122000
     36 H162       -3.4690   -0.3320    4.4060 hc        1 B3V      0.122000
     37 H163       -5.1100    0.2220    3.8810 hc        1 B3V      0.122000
     38 H201       -3.8940   -3.9180    2.9010 hc        1 B3V      0.122000
     39 H202       -2.0790   -3.9590    2.9850 hc        1 B3V      0.122000
     40 H203       -2.9580   -4.9210    1.7240 hc        1 B3V      0.122000
     41 H12        -0.4760   -1.5590    0.3160 h1        1 B3V      0.132500
     42 H21        -2.1550   -1.5260    2.7250 hn        1 B3V      0.241000
     43 O06         4.0730   -2.9900   -3.1340 os        1 B3V     -0.165000
@<TRIPOS>BOND
     1    1   14 1   
     2    1   19 1   
     3    1   20 1   
     4    2    3 1   
     5    3    6 1   
     6    3   11 1   
     7    4   22 1   
     8    4   23 1   
     9    4   24 1   
    10    4   43 1   
    11    5   10 1   
    12    5   16 1   
    13    5   17 1   
    14    5   42 1   
    15    7    8 1   
    16    7   13 1   
    17    7   31 1   
    18    7   32 1   
    19    8    9 1   
    20    8   43 1   
    21    9   11 1   
    22   10   14 1   
    23   10   25 1   
    24   10   26 1   
    25   11   34 1   
    26   12   13 1   
    27   13   33 1   
    28   14   21 1   
    29   14   41 1   
    30   15   16 1   
    31   15   35 1   
    32   15   36 1   
    33   15   37 1   
    34   16   27 1   
    35   16   28 1   
    36   17   18 1   
    37   17   29 1   
    38   17   30 1   
    39   18   38 1   
    40   18   39 1   
    41   18   40 1   
@<TRIPOS>SUBSTRUCTURE
     1 B3V         1 TEMP              0 ****  ****    0 ROOT
