@<TRIPOS>MOLECULE
B3V
   41    38     1     0     0
SMALL
bcc


@<TRIPOS>ATOM
      1 N1          0.0160    0.4860    0.1730 n3        1 B3V     -0.895000
      2 O1          1.9690   -1.1430   -0.2120 o         1 B3V     -0.540400
      3 S1          1.6580    0.2460    0.0480 s4        1 B3V      2.069800
      4 C2          5.2530    0.5520   -4.5890 c3        1 B3V     -0.078000
      5 N2         -2.8250   -1.2090    1.8350 n3        1 B3V     -0.274000
      6 O2          2.3100    0.4450    1.3080 o         1 B3V     -0.540400
      7 C5          3.6560    2.9110   -3.0830 c1        1 B3V     -0.145000
      8 C6          3.4780    1.5670   -3.3280 c1        1 B3V      0.053000
      9 C7          2.8260    0.7780   -2.4030 c1        1 B3V     -0.044000
     10 C11        -2.0770   -0.5910    0.7450 c3        1 B3V     -0.077000
     11 C8          2.3540    1.3270   -1.2390 c1        1 B3V     -0.787000
     12 C9          2.5300    2.6720   -0.9900 c2        1 B3V     -0.058000
     13 C10         3.1830    3.4660   -1.9150 c1        1 B3V     -0.120000
     14 C13        -0.7200   -0.1080    1.2600 c3        1 B3V     -0.012000
     15 C16        -2.7530   -3.5050    2.5350 c3        1 B3V     -0.213000
     16 C17        -3.1990   -2.5460    1.4630 c3        1 B3V     -0.059500
     17 O06         3.8940    1.0040   -4.5790 os        1 B3V     -0.207000
     18 C19        -4.0410   -0.4150    2.1190 c3        1 B3V     -0.059500
     19 C20        -4.1780   -0.2140    3.6490 c3        1 B3V     -0.213000
     20 H1         -0.4280    0.9990   -0.4650 hn        1 B3V      0.243000
     21 H131       -0.2130   -0.8710    1.6240 h1        1 B3V      0.096000
     22 H132       -0.8550    0.5500    1.9540 h1        1 B3V      0.096000
     23 H21C        5.8250    1.2650   -4.9010 h1        1 B3V      0.085667
     24 H22C        5.5170    0.2930   -3.6820 h1        1 B3V      0.085667
     25 H23C        5.3340   -0.2030   -5.1740 h1        1 B3V      0.085667
     26 H111       -1.9390   -1.2500    0.0280 h1        1 B3V      0.078500
     27 H112       -2.5880    0.1830    0.3900 h1        1 B3V      0.078500
     28 H171       -4.1540   -2.5970    1.3650 h1        1 B3V      0.067750
     29 H172       -2.7780   -2.7770    0.6290 h1        1 B3V      0.067750
     30 H191       -4.8340   -0.8940    1.7780 h1        1 B3V      0.067750
     31 H192       -3.9720    0.4610    1.6780 h1        1 B3V      0.067750
     32 H5          4.1300    3.4850   -3.7560 ha        1 B3V      0.141000
     33 H10         3.3090    4.4280   -1.7390 ha        1 B3V      0.141000
     34 H7          2.6970   -0.1990   -2.5820 ha        1 B3V      0.168000
     35 H9          2.1880    3.0690   -0.1480 ha        1 B3V      0.156000
     36 H161       -2.0040   -3.1100    3.0380 hc        1 B3V      0.079167
     37 H162       -2.4550   -4.3610    2.1160 hc        1 B3V      0.079167
     38 H163       -3.4930   -3.6810    3.1410 hc        1 B3V      0.079167
     39 H201       -3.3280   -0.4060    4.0780 hc        1 B3V      0.079167
     40 H202       -4.8590   -0.8140    3.9960 hc        1 B3V      0.079167
     41 H203       -4.4330    0.7050    3.8330 hc        1 B3V      0.079167
@<TRIPOS>BOND
     1    1    3 1   
     2    1   14 1   
     3    1   20 1   
     4    2    3 1   
     5    3    6 1   
     6    4   17 1   
     7    4   23 1   
     8    4   24 1   
     9    4   25 1   
    10    5   10 1   
    11    5   16 1   
    12    5   18 1   
    13    7    8 1   
    14    7   32 1   
    15    8   17 1   
    16    9   11 1   
    17    9   34 1   
    18   10   14 1   
    19   10   26 1   
    20   10   27 1   
    21   11   12 1   
    22   12   13 1   
    23   12   35 1   
    24   13   33 1   
    25   14   21 1   
    26   14   22 1   
    27   15   16 1   
    28   15   36 1   
    29   15   37 1   
    30   15   38 1   
    31   16   28 1   
    32   16   29 1   
    33   18   19 1   
    34   18   30 1   
    35   18   31 1   
    36   19   39 1   
    37   19   40 1   
    38   19   41 1   
@<TRIPOS>SUBSTRUCTURE
     1 B3V         1 TEMP              0 ****  ****    0 ROOT
