@<TRIPOS>MOLECULE
B3V
   41    41     1     0     0
SMALL
bcc


@<TRIPOS>ATOM
      1 N1          0.5460   -0.3520   -1.1430 n3        1 B3V     -0.922100
      2 O1         -0.9650   -2.2440   -1.5360 o         1 B3V     -0.652800
      3 S1         -0.4500   -1.4420   -0.4940 sy        1 B3V      1.514200
      4 C2         -5.9760    1.6210   -0.5020 c3        1 B3V      0.111700
      5 N2          3.9910    0.8840   -0.2920 n3        1 B3V     -0.748600
      6 O2          0.1730   -2.1070    0.5830 o         1 B3V     -0.652800
      7 C5         -3.8080    1.0510    1.1910 ca        1 B3V     -0.145000
      8 C6         -3.8440    0.6250   -0.1410 ca        1 B3V      0.098100
      9 C7         -2.7970   -0.1490   -0.6740 ca        1 B3V     -0.044000
     10 C11         2.9890    0.1040   -1.0010 c3        1 B3V      0.159800
     11 C8         -1.7100   -0.4920    0.1270 ca        1 B3V     -0.342500
     12 C9         -1.6820   -0.0680    1.4620 ca        1 B3V     -0.058000
     13 C10        -2.7200    0.6950    1.9880 ca        1 B3V     -0.120000
     14 C13         1.5690    0.3550   -0.4300 c3        1 B3V      0.224800
     15 C16         5.2290   -0.9290    0.8940 c3        1 B3V     -0.095100
     16 C17         5.2600    0.1870   -0.1390 c3        1 B3V      0.177300
     17 C19         4.1370    2.2310   -0.8290 c3        1 B3V      0.177300
     18 C20         4.6860    3.2370    0.1710 c3        1 B3V     -0.095100
     19 H1          0.5010   -0.1240   -2.1080 hn        1 B3V      0.447800
     20 H131        1.3480    1.4620   -0.4600 h1        1 B3V      0.056700
     21 H132        1.5520    0.0260    0.6490 h1        1 B3V      0.056700
     22 H21C       -6.4510    1.0470    0.3300 h1        1 B3V      0.046367
     23 H22C       -5.6680    2.6370   -0.1520 h1        1 B3V      0.046367
     24 H23C       -6.6710    1.7000   -1.3760 h1        1 B3V      0.046367
     25 H111        2.9860    0.3380   -2.1060 h1        1 B3V      0.039200
     26 H112        3.2220   -0.9920   -0.8920 h1        1 B3V      0.039200
     27 H171        5.6130   -0.2420   -1.1230 h1        1 B3V      0.028450
     28 H172        6.0320    0.9420    0.1890 h1        1 B3V      0.028450
     29 H191        4.8000    2.2370   -1.7450 h1        1 B3V      0.028450
     30 H192        3.1180    2.5880   -1.1540 h1        1 B3V      0.028450
     31 H5         -4.6230    1.6550    1.6160 ha        1 B3V      0.141000
     32 H10        -2.6870    1.0180    3.0400 ha        1 B3V      0.141000
     33 H7         -2.8590   -0.4950   -1.7200 ha        1 B3V      0.168000
     34 H9         -0.8310   -0.3600    2.1030 ha        1 B3V      0.156000
     35 H161        4.5410   -1.7540    0.5890 hc        1 B3V      0.039867
     36 H162        6.2590   -1.3480    0.9970 hc        1 B3V      0.039867
     37 H163        4.8960   -0.5460    1.8880 hc        1 B3V      0.039867
     38 H201        4.0800    3.2440    1.1090 hc        1 B3V      0.039867
     39 H202        5.7450    3.0130    0.4400 hc        1 B3V      0.039867
     40 H203        4.6470    4.2540   -0.2890 hc        1 B3V      0.039867
     41 O06        -4.8600    0.9150   -1.0320 os        1 B3V     -0.323900
@<TRIPOS>BOND
     1    1    3 1   
     2    1   14 1   
     3    1   19 1   
     4    2    3 2   
     5    3    6 2   
     6    3   11 1   
     7    4   22 1   
     8    4   23 1   
     9    4   24 1   
    10    4   41 1   
    11    5   10 1   
    12    5   16 1   
    13    5   17 1   
    14    7    8 ar  
    15    7   13 ar  
    16    7   31 1   
    17    8    9 ar  
    18    8   41 1   
    19    9   11 ar  
    20    9   33 1   
    21   10   14 1   
    22   10   25 1   
    23   10   26 1   
    24   11   12 ar  
    25   12   13 ar  
    26   12   34 1   
    27   13   32 1   
    28   14   20 1   
    29   14   21 1   
    30   15   16 1   
    31   15   35 1   
    32   15   36 1   
    33   15   37 1   
    34   16   27 1   
    35   16   28 1   
    36   17   18 1   
    37   17   29 1   
    38   17   30 1   
    39   18   38 1   
    40   18   39 1   
    41   18   40 1   
@<TRIPOS>SUBSTRUCTURE
     1 B3V         1 TEMP              0 ****  ****    0 ROOT
