@<TRIPOS>MOLECULE
B3V
   41    38     1     0     0
SMALL
bcc


@<TRIPOS>ATOM
      1 N1         -2.0420   -1.3680   -1.9760 n2        1 B3V     -0.252000
      2 O1          1.1160    0.3560   -2.2800 oh        1 B3V     -0.608000
      3 S1          2.0820    0.0880   -0.9170 s4        1 B3V      1.571000
      4 C2          4.5580   -5.6630   -1.8570 c3        1 B3V     -0.080000
      5 N2         -4.2050   -2.4740   -0.2750 n2        1 B3V     -0.198000
      6 O2          1.0570   -0.5180   -0.0570 o         1 B3V     -0.832000
      7 C5          5.5220   -3.0730   -1.4400 c2        1 B3V     -0.164000
      8 C6          4.2010   -3.3600   -1.3460 c2        1 B3V      0.034000
      9 C7          3.1700   -2.3970   -0.9640 c2        1 B3V      0.022000
     10 C11        -2.8800   -2.2630    0.2430 c3        1 B3V     -0.134000
     11 C8          3.0850   -1.1610   -1.4730 c2        1 B3V     -0.688000
     12 C9          5.4360   -0.6040   -1.1590 c1        1 B3V      0.151000
     13 C10         6.0680   -1.7660   -1.1790 c2        1 B3V     -0.409000
     14 C13        -1.9270   -1.6030   -0.7300 c2        1 B3V     -0.062000
     15 C16        -3.8630    0.2760    4.7460 c3        1 B3V     -0.213500
     16 C17        -3.5660   -0.4140    3.4470 c3        1 B3V     -0.213500
     17 C19        -5.2340   -2.1090    0.4020 c2        1 B3V     -0.065000
     18 C20        -6.6350   -2.3220   -0.0660 c3        1 B3V     -0.194000
     19 H1          0.2710   -0.1040   -2.2450 ho        1 B3V      0.269000
     20 H131       -2.8890   -1.6420   -2.4270 hn        1 B3V      0.151000
     21 H132       -0.9710   -1.2980   -0.2400 h4        1 B3V      0.180000
     22 H21C        5.3020   -5.8140   -1.0390 h1        1 B3V      0.086667
     23 H22C        5.0750   -5.4450   -2.8230 h1        1 B3V      0.086667
     24 H23C        3.8920   -6.5580   -1.9580 h1        1 B3V      0.086667
     25 H111       -2.8590   -1.6590    1.2010 h1        1 B3V      0.099500
     26 H112       -2.4540   -3.2840    0.4810 h1        1 B3V      0.099500
     27 H171       -2.4650   -0.4520    3.2620 hc        1 B3V      0.071500
     28 H172       -4.0450    0.1250    2.5940 hc        1 B3V      0.071500
     29 H191       -3.9540   -1.4630    3.4590 hc        1 B3V      0.071500
     30 H192       -5.1710   -1.6060    1.3970 h4        1 B3V      0.094000
     31 H5          7.1590   -1.7440   -0.9670 ha        1 B3V      0.186000
     32 H10         6.2550   -3.8540   -1.6970 ha        1 B3V      0.140000
     33 H7          2.4580   -2.7530   -0.1930 ha        1 B3V      0.165000
     34 H9          3.6790   -0.8740   -2.3650 h4        1 B3V      0.183000
     35 H161       -3.3830   -0.2640    5.5980 hc        1 B3V      0.071500
     36 H162       -3.4750    1.3230    4.7330 hc        1 B3V      0.071500
     37 H163       -4.9640    0.3140    4.9310 hc        1 B3V      0.071500
     38 H201       -7.1770   -2.9480    0.6850 hc        1 B3V      0.093333
     39 H202       -7.1450   -1.3300   -0.1420 hc        1 B3V      0.093333
     40 H203       -6.6910   -2.8290   -1.0600 hc        1 B3V      0.093333
     41 O06         3.6520   -4.6170   -1.5250 os        1 B3V     -0.202000
@<TRIPOS>BOND
     1    1   14 1   
     2    1   20 1   
     3    2    3 1   
     4    2   19 1   
     5    3    6 1   
     6    3   11 1   
     7    4   22 1   
     8    4   23 1   
     9    4   24 1   
    10    4   41 1   
    11    5   10 1   
    12    5   17 1   
    13    7    8 1   
    14    7   13 1   
    15    7   32 1   
    16    8    9 1   
    17    8   41 1   
    18    9   11 1   
    19    9   33 1   
    20   10   14 1   
    21   10   25 1   
    22   10   26 1   
    23   11   34 1   
    24   12   13 1   
    25   13   31 1   
    26   14   21 1   
    27   15   16 1   
    28   15   35 1   
    29   15   36 1   
    30   15   37 1   
    31   16   27 1   
    32   16   28 1   
    33   16   29 1   
    34   17   18 1   
    35   17   30 1   
    36   18   38 1   
    37   18   39 1   
    38   18   40 1   
@<TRIPOS>SUBSTRUCTURE
     1 B3V         1 TEMP              0 ****  ****    0 ROOT
