@<TRIPOS>MOLECULE
B3W
   37    33     1     0     0
SMALL
bcc


@<TRIPOS>ATOM
      1 O2         -2.8560    0.4770   -0.0850 o         1 B3W     -0.931000
      2 S1         -2.3740   -0.8440    0.1880 ss        1 B3W      2.854000
      3 O1         -3.1940   -1.2150    1.3100 o         1 B3W     -0.931000
      4 N4         -0.7860   -0.8240    0.5910 n2        1 B3W     -0.893000
      5 C22        -0.2210    0.3370    1.3050 c3        1 B3W     -0.014000
      6 C21         1.3260    0.1610    1.4550 c3        1 B3W     -0.081000
      7 N17         2.0040    1.4610    1.1860 n3        1 B3W     -0.271000
      8 C16         1.7640    2.3610    2.2770 c3        1 B3W     -0.062500
      9 C20         1.5470    3.7590    1.7390 c3        1 B3W     -0.212500
     10 C5         -2.6480   -1.9550   -1.2340 c1        1 B3W     -0.825000
     11 C10        -2.1120   -1.6300   -2.4730 c2        1 B3W     -0.009000
     12 C9         -2.4730   -2.3540   -3.5950 c1        1 B3W     -0.155000
     13 C8         -3.3700   -3.4050   -3.4830 c1        1 B3W     -0.005000
     14 C7         -3.9020   -3.7290   -2.2550 c1        1 B3W     -0.154000
     15 C6         -3.5390   -3.0000   -1.1230 c1        1 B3W     -0.011000
     16 C11         3.4550    1.2350    1.0440 c3        1 B3W     -0.062500
     17 C12         3.8610    1.4620   -0.3800 c3        1 B3W     -0.212500
     18 CL8        -3.8180   -4.3220   -4.8960 cl        1 B3W      0.001000
     19 H4         -0.2460   -1.5010    0.3300 hn        1 B3W      0.243000
     20 H221       -0.6390    0.4040    2.2160 h1        1 B3W      0.101500
     21 H222       -0.4110    1.1590    0.7940 h1        1 B3W      0.101500
     22 H211        1.6430   -0.5120    0.8140 h1        1 B3W      0.074500
     23 H212        1.5320   -0.1310    2.3610 h1        1 B3W      0.074500
     24 H161        0.9710    2.0740    2.7630 h1        1 B3W      0.069250
     25 H162        2.5470    2.3580    2.8890 h1        1 B3W      0.069250
     26 H111        3.6680    0.3110    1.3010 h1        1 B3W      0.069250
     27 H112        3.9450    1.8590    1.6290 h1        1 B3W      0.069250
     28 H201        0.9420    4.2460    2.3330 hc        1 B3W      0.078833
     29 H202        1.1520    3.7070    0.8410 hc        1 B3W      0.078833
     30 H203        2.4000    4.2240    1.6930 hc        1 B3W      0.078833
     31 H6         -3.9150   -3.2280   -0.2580 ha        1 B3W      0.158000
     32 H10        -1.4920   -0.9040   -2.5520 ha        1 B3W      0.160000
     33 H7         -4.5290   -4.4640   -2.1780 ha        1 B3W      0.156000
     34 H9         -2.0920   -2.1220   -4.4730 ha        1 B3W      0.156000
     35 H121        3.6430    0.6730   -0.9110 hc        1 B3W      0.078833
     36 H122        4.8370    1.6290   -0.4210 hc        1 B3W      0.078833
     37 H123        3.3800    2.2420   -0.7390 hc        1 B3W      0.078833
@<TRIPOS>BOND
     1    1    2 1   
     2    2    3 1   
     3    4    5 1   
     4    4   19 1   
     5    5    6 1   
     6    5   20 1   
     7    5   21 1   
     8    6    7 1   
     9    6   22 1   
    10    6   23 1   
    11    7    8 1   
    12    7   16 1   
    13    8    9 1   
    14    8   24 1   
    15    8   25 1   
    16    9   28 1   
    17    9   29 1   
    18    9   30 1   
    19   10   11 1   
    20   10   15 1   
    21   11   12 1   
    22   11   32 1   
    23   12   34 1   
    24   13   14 1   
    25   13   18 1   
    26   14   33 1   
    27   15   31 1   
    28   16   17 1   
    29   16   26 1   
    30   16   27 1   
    31   17   35 1   
    32   17   36 1   
    33   17   37 1   
@<TRIPOS>SUBSTRUCTURE
     1 B3W         1 TEMP              0 ****  ****    0 ROOT
