@<TRIPOS>MOLECULE
B3W
   37    37     1     0     0
SMALL
bcc


@<TRIPOS>ATOM
      1 O2         -0.4890    2.8280    1.4250 o         1 B3W     -0.653300
      2 S1         -0.1660    1.8480    0.4600 sy        1 B3W      1.516200
      3 O1          0.4610    2.2850   -0.7250 o         1 B3W     -0.653300
      4 N4          0.7120    0.7030    1.1810 n3        1 B3W     -0.922100
      5 C22         1.5540   -0.2380    0.5010 c3        1 B3W      0.224800
      6 C21         3.0430   -0.1300    0.9180 c3        1 B3W      0.159800
      7 N17         3.8530   -1.1370    0.2520 n3        1 B3W     -0.749600
      8 C16         5.1840   -0.6630   -0.1040 c3        1 B3W      0.177300
      9 C20         5.2000    0.3000   -1.2810 c3        1 B3W     -0.095100
     10 C5         -1.5890    1.0360    0.0310 ca        1 B3W     -0.378500
     11 C10        -1.7040    0.4050   -1.2130 ca        1 B3W     -0.009500
     12 C9         -2.8770   -0.2460   -1.5840 ca        1 B3W     -0.153500
     13 C8         -3.9590   -0.2670   -0.6970 ca        1 B3W      0.074400
     14 C7         -3.8680    0.3670    0.5480 ca        1 B3W     -0.153500
     15 C6         -2.6860    1.0120    0.8990 ca        1 B3W     -0.009500
     16 C11         3.8690   -2.4080    0.9640 c3        1 B3W      0.177300
     17 C12         4.1730   -3.6080    0.0800 c3        1 B3W     -0.095100
     18 CL8        -5.3930   -1.0620   -1.1350 cl        1 B3W     -0.077400
     19 H4          0.7240    0.6090    2.1690 hn        1 B3W      0.447800
     20 H221        1.1860   -1.2850    0.7080 h1        1 B3W      0.055700
     21 H222        1.4770   -0.0550   -0.6100 h1        1 B3W      0.055700
     22 H211        3.4140    0.8960    0.6360 h1        1 B3W      0.039200
     23 H212        3.1160   -0.2150    2.0420 h1        1 B3W      0.039200
     24 H161        5.6900   -0.1650    0.7760 h1        1 B3W      0.028700
     25 H162        5.8080   -1.5600   -0.3810 h1        1 B3W      0.028700
     26 H111        4.6130   -2.3910    1.8150 h1        1 B3W      0.028700
     27 H112        2.8480   -2.5640    1.4190 h1        1 B3W      0.028700
     28 H201        6.2610    0.5440   -1.5270 hc        1 B3W      0.040033
     29 H202        4.7200   -0.1570   -2.1790 hc        1 B3W      0.040033
     30 H203        4.6650    1.2500   -1.0440 hc        1 B3W      0.040033
     31 H6         -2.6170    1.5320    1.8730 ha        1 B3W      0.158500
     32 H10        -0.8530    0.4400   -1.9170 ha        1 B3W      0.158500
     33 H7         -4.7230    0.3600    1.2410 ha        1 B3W      0.156000
     34 H9         -2.9520   -0.7360   -2.5670 ha        1 B3W      0.156000
     35 H121        4.0410   -4.5380    0.6850 hc        1 B3W      0.040033
     36 H122        3.4810   -3.6480   -0.7950 hc        1 B3W      0.040033
     37 H123        5.2210   -3.5810   -0.3010 hc        1 B3W      0.040033
@<TRIPOS>BOND
     1    1    2 2   
     2    2    3 2   
     3    2    4 1   
     4    2   10 1   
     5    4    5 1   
     6    4   19 1   
     7    5    6 1   
     8    5   20 1   
     9    5   21 1   
    10    6    7 1   
    11    6   22 1   
    12    6   23 1   
    13    7    8 1   
    14    7   16 1   
    15    8    9 1   
    16    8   24 1   
    17    8   25 1   
    18    9   28 1   
    19    9   29 1   
    20    9   30 1   
    21   10   11 ar  
    22   10   15 ar  
    23   11   12 ar  
    24   11   32 1   
    25   12   13 ar  
    26   12   34 1   
    27   13   14 ar  
    28   13   18 1   
    29   14   15 ar  
    30   14   33 1   
    31   15   31 1   
    32   16   17 1   
    33   16   26 1   
    34   16   27 1   
    35   17   35 1   
    36   17   36 1   
    37   17   37 1   
@<TRIPOS>SUBSTRUCTURE
     1 B3W         1 TEMP              0 ****  ****    0 ROOT
