@<TRIPOS>MOLECULE
B3W
   39    38     1     0     0
SMALL
bcc


@<TRIPOS>ATOM
      1 O2          2.8750    0.4930    0.6690 o         1 B3W     -0.431900
      2 S1          3.2450    1.3570   -0.3080 s4        1 B3W      1.690300
      3 O1          4.5380    1.4720   -0.7040 o         1 B3W     -0.431900
      4 N4          3.1010   -0.6370   -1.9070 n3        1 B3W     -0.979800
      5 C22         4.0800   -1.6030   -1.4510 c3        1 B3W      0.109800
      6 C21         4.1520   -2.8950   -2.2950 c3        1 B3W      0.067800
      7 N17         5.1450   -3.8850   -1.7810 n4        1 B3W     -0.689400
      8 C16         4.8000   -5.2780   -2.2480 c3        1 B3W      0.111300
      9 C20         3.6800   -5.9190   -1.4580 c3        1 B3W     -0.139100
     10 C5          2.2030    2.3370   -0.8710 ca        1 B3W     -0.659500
     11 C10         2.5530    3.3370   -1.8280 ca        1 B3W      0.046000
     12 C9          1.6360    4.2530   -2.2930 ca        1 B3W     -0.158000
     13 C8          0.3040    4.2240   -1.8230 ca        1 B3W      0.170400
     14 C7         -0.0750    3.2440   -0.8790 ca        1 B3W     -0.158000
     15 C6          0.8490    2.3320   -0.4200 ca        1 B3W      0.046000
     16 C11         6.5470   -3.5200   -2.1970 c3        1 B3W      0.111300
     17 C12         7.6120   -4.1200   -1.3030 c3        1 B3W     -0.139100
     18 CL8        -0.8070    5.3370   -2.3740 cl        1 B3W      0.075600
     19 H4          2.1740   -1.0260   -1.8810 hn        1 B3W      0.397800
     20 H221        3.8220   -1.8680   -0.3820 h1        1 B3W      0.097700
     21 H222        5.0870   -1.0900   -1.4530 h1        1 B3W      0.097700
     22 H211        4.4270   -2.6500   -3.3610 hx        1 B3W      0.110200
     23 H212        3.1380   -3.3930   -2.2980 hx        1 B3W      0.110200
     24 H161        4.5330   -5.2180   -3.3410 hx        1 B3W      0.107450
     25 H162        5.7350   -5.9040   -2.1430 hx        1 B3W      0.107450
     26 H111        6.6880   -3.8660   -3.2620 hx        1 B3W      0.107450
     27 H112        6.6300   -2.3950   -2.1740 hx        1 B3W      0.107450
     28 H201        3.9230   -5.9880   -0.3690 hc        1 B3W      0.085033
     29 H202        2.7100   -5.3790   -1.5810 hc        1 B3W      0.085033
     30 H203        3.5430   -6.9630   -1.8460 hc        1 B3W      0.085033
     31 H6          0.5400    1.5790    0.3320 ha        1 B3W      0.178000
     32 H10         3.5980    3.3810   -2.1950 ha        1 B3W      0.178000
     33 H7         -1.1160    3.2190   -0.5030 ha        1 B3W      0.202000
     34 H9          1.9420    5.0210   -3.0290 ha        1 B3W      0.202000
     35 H121        8.6090   -3.7600   -1.6700 hc        1 B3W      0.085033
     36 H122        7.4970   -3.7930   -0.2400 hc        1 B3W      0.085033
     37 H123        7.6170   -5.2360   -1.3410 hc        1 B3W      0.085033
     38 H42         3.3020   -0.3390   -2.8460 hn        1 B3W      0.397800
     39 H171        5.1070   -3.8830   -0.7520 hn        1 B3W      0.448800
@<TRIPOS>BOND
     1    1    2 1   
     2    2    3 1   
     3    2   10 1   
     4    4    5 1   
     5    4   19 1   
     6    4   38 1   
     7    5    6 1   
     8    5   20 1   
     9    5   21 1   
    10    6    7 1   
    11    6   22 1   
    12    6   23 1   
    13    7    8 1   
    14    7   16 1   
    15    7   39 1   
    16    8    9 1   
    17    8   24 1   
    18    8   25 1   
    19    9   28 1   
    20    9   29 1   
    21    9   30 1   
    22   10   11 ar  
    23   10   15 ar  
    24   11   12 ar  
    25   11   32 1   
    26   12   13 ar  
    27   12   34 1   
    28   13   14 ar  
    29   13   18 1   
    30   14   15 ar  
    31   14   33 1   
    32   15   31 1   
    33   16   17 1   
    34   16   26 1   
    35   16   27 1   
    36   17   35 1   
    37   17   36 1   
    38   17   37 1   
@<TRIPOS>SUBSTRUCTURE
     1 B3W         1 TEMP              0 ****  ****    0 ROOT
