@<TRIPOS>MOLECULE
B3W
   39    38     1     0     0
SMALL
bcc


@<TRIPOS>ATOM
      1 O2          2.7860    0.5030    0.6140 o         1 B3W     -0.431900
      2 S1          3.2260    1.3670   -0.3350 s4        1 B3W      1.690300
      3 O1          4.5420    1.4650   -0.6530 o         1 B3W     -0.431900
      4 N4          3.1470   -0.6160   -1.9520 n8        1 B3W     -0.979800
      5 C22         4.0700   -1.6060   -1.4350 c3        1 B3W      0.109800
      6 C21         4.1710   -2.8950   -2.2810 c3        1 B3W      0.067800
      7 N17         5.1030   -3.9110   -1.7050 nx        1 B3W     -0.689400
      8 C16         4.7590   -5.2930   -2.2040 c3        1 B3W      0.111300
      9 C20         3.5720   -5.9110   -1.4980 c3        1 B3W     -0.139100
     10 C5          2.2340    2.3650   -0.9530 ca        1 B3W     -0.659500
     11 C10         2.6540    3.3640   -1.8810 ca        1 B3W      0.046000
     12 C9          1.7800    4.2960   -2.3940 ca        1 B3W     -0.158000
     13 C8          0.4220    4.2850   -2.0050 ca        1 B3W      0.170400
     14 C7         -0.0260    3.3070   -1.0900 ca        1 B3W     -0.158000
     15 C6          0.8550    2.3790   -0.5830 ca        1 B3W      0.046000
     16 C11         6.5380   -3.5770   -2.0210 c3        1 B3W      0.111300
     17 C12         7.5240   -4.2050   -1.0590 c3        1 B3W     -0.139100
     18 Cl8        -0.6380    5.4180   -2.6140 cl        1 B3W      0.075600
     19 H4          3.4210   -0.3170   -2.8730 hn        1 B3W      0.397800
     20 H221        3.7330   -1.8700   -0.3890 h1        1 B3W      0.097700
     21 H222        5.0860   -1.1160   -1.3650 h1        1 B3W      0.097700
     22 H211        3.1480   -3.3700   -2.3570 hx        1 B3W      0.110200
     23 H212        4.5250   -2.6520   -3.3240 hx        1 B3W      0.110200
     24 H161        4.5700   -5.2210   -3.3130 hx        1 B3W      0.107450
     25 H162        5.6700   -5.9410   -2.0390 hx        1 B3W      0.107450
     26 H111        6.7450   -3.9210   -3.0750 hx        1 B3W      0.107450
     27 H112        6.6450   -2.4540   -1.9840 hx        1 B3W      0.107450
     28 H201        3.7370   -5.9920   -0.3950 hc        1 B3W      0.085033
     29 H202        2.6260   -5.3480   -1.6850 hc        1 B3W      0.085033
     30 H203        3.4390   -6.9510   -1.9010 hc        1 B3W      0.085033
     31 H6          0.4920    1.6260    0.1450 ha        1 B3W      0.178000
     32 H10         3.7190    3.3950   -2.1860 ha        1 B3W      0.178000
     33 H7         -1.0880    3.2950   -0.7760 ha        1 B3W      0.202000
     34 H9          2.1400    5.0630   -3.1070 ha        1 B3W      0.202000
     35 H121        7.3430   -3.8820   -0.0040 hc        1 B3W      0.085033
     36 H122        7.5070   -5.3220   -1.1030 hc        1 B3W      0.085033
     37 H123        8.5530   -3.8670   -1.3530 hc        1 B3W      0.085033
     38 H42         2.2120   -0.9840   -1.9940 hn        1 B3W      0.397800
     39 H171        4.9940   -3.9130   -0.6810 hn        1 B3W      0.448800
@<TRIPOS>BOND
     1    1    2 1   
     2    2    3 1   
     3    2   10 1   
     4    4    5 1   
     5    4   19 1   
     6    4   38 1   
     7    5    6 1   
     8    5   20 1   
     9    5   21 1   
    10    6    7 1   
    11    6   22 1   
    12    6   23 1   
    13    7    8 1   
    14    7   16 1   
    15    7   39 1   
    16    8    9 1   
    17    8   24 1   
    18    8   25 1   
    19    9   28 1   
    20    9   29 1   
    21    9   30 1   
    22   10   11 ar  
    23   10   15 ar  
    24   11   12 ar  
    25   11   32 1   
    26   12   13 ar  
    27   12   34 1   
    28   13   14 ar  
    29   13   18 1   
    30   14   15 ar  
    31   14   33 1   
    32   15   31 1   
    33   16   17 1   
    34   16   26 1   
    35   16   27 1   
    36   17   35 1   
    37   17   36 1   
    38   17   37 1   
@<TRIPOS>SUBSTRUCTURE
     1 B3W         1 TEMP              0 ****  ****    0 ROOT
