@<TRIPOS>MOLECULE
B3W
   39    38     1     0     0
SMALL
bcc


@<TRIPOS>ATOM
      1 O2          2.9670    0.5360    0.6510 o         1 B3W     -0.431900
      2 S1          3.3010    1.3880   -0.3500 s4        1 B3W      1.690300
      3 O1          4.5800    1.5020   -0.7900 o         1 B3W     -0.431900
      4 N4          3.1120   -0.6290   -1.9150 n3        1 B3W     -0.979800
      5 C22         4.0910   -1.5960   -1.4610 c3        1 B3W      0.109800
      6 C21         4.1380   -2.9010   -2.2870 c3        1 B3W      0.067800
      7 N17         5.1310   -3.8930   -1.7750 n4        1 B3W     -0.689400
      8 C16         4.7660   -5.2890   -2.2140 c3        1 B3W      0.111300
      9 C20         3.6540   -5.9080   -1.3960 c3        1 B3W     -0.139100
     10 C5          2.2370    2.3550   -0.8920 ca        1 B3W     -0.659500
     11 C10         2.5510    3.3420   -1.8750 ca        1 B3W      0.046000
     12 C9          1.6150    4.2480   -2.3220 ca        1 B3W     -0.158000
     13 C8          0.3000    4.2220   -1.8080 ca        1 B3W      0.170400
     14 C7         -0.0440    3.2550   -0.8380 ca        1 B3W     -0.158000
     15 C6          0.8990    2.3530   -0.3970 ca        1 B3W      0.046000
     16 C11         6.5290   -3.5460   -2.2200 c3        1 B3W      0.111300
     17 C12         7.6030   -4.1410   -1.3360 c3        1 B3W     -0.139100
     18 CL8        -0.8330    5.3230   -2.3380 cl        1 B3W      0.075600
     19 H4          3.3010   -0.3450   -2.8620 hn        1 B3W      0.397300
     20 H221        3.8500   -1.8430   -0.3840 h1        1 B3W      0.097700
     21 H222        5.1020   -1.0920   -1.4890 h1        1 B3W      0.097700
     22 H211        3.1190   -3.3910   -2.2640 hx        1 B3W      0.110200
     23 H212        4.3960   -2.6750   -3.3610 hx        1 B3W      0.110200
     24 H161        4.4810   -5.2430   -3.3040 hx        1 B3W      0.107450
     25 H162        5.6970   -5.9220   -2.1160 hx        1 B3W      0.107450
     26 H111        6.6480   -3.9090   -3.2820 hx        1 B3W      0.107450
     27 H112        6.6210   -2.4220   -2.2150 hx        1 B3W      0.107450
     28 H201        3.9150   -5.9630   -0.3100 hc        1 B3W      0.085033
     29 H202        2.6870   -5.3620   -1.5110 hc        1 B3W      0.085033
     30 H203        3.5020   -6.9570   -1.7650 hc        1 B3W      0.085033
     31 H6          0.6180    1.6090    0.3760 ha        1 B3W      0.178000
     32 H10         3.5830    3.3850   -2.2760 ha        1 B3W      0.178000
     33 H7         -1.0710    3.2310   -0.4260 ha        1 B3W      0.202000
     34 H9          1.8940    5.0060   -3.0790 ha        1 B3W      0.202000
     35 H121        7.5090   -3.7980   -0.2760 hc        1 B3W      0.085033
     36 H122        7.5990   -5.2580   -1.3570 hc        1 B3W      0.085033
     37 H123        8.5970   -3.7960   -1.7250 hc        1 B3W      0.085033
     38 H42         2.1830   -1.0110   -1.8700 hn        1 B3W      0.397300
     39 H171        5.1110   -3.8750   -0.7450 hn        1 B3W      0.448800
@<TRIPOS>BOND
     1    1    2 1   
     2    2    3 1   
     3    2   10 1   
     4    4    5 1   
     5    4   19 1   
     6    4   38 1   
     7    5    6 1   
     8    5   20 1   
     9    5   21 1   
    10    6    7 1   
    11    6   22 1   
    12    6   23 1   
    13    7    8 1   
    14    7   16 1   
    15    7   39 1   
    16    8    9 1   
    17    8   24 1   
    18    8   25 1   
    19    9   28 1   
    20    9   29 1   
    21    9   30 1   
    22   10   11 ar  
    23   10   15 ar  
    24   11   12 ar  
    25   11   32 1   
    26   12   13 ar  
    27   12   34 1   
    28   13   14 ar  
    29   13   18 1   
    30   14   15 ar  
    31   14   33 1   
    32   15   31 1   
    33   16   17 1   
    34   16   26 1   
    35   16   27 1   
    36   17   35 1   
    37   17   36 1   
    38   17   37 1   
@<TRIPOS>SUBSTRUCTURE
     1 B3W         1 TEMP              0 ****  ****    0 ROOT
