@<TRIPOS>MOLECULE
B3X
   19    18     1     0     0
SMALL
bcc


@<TRIPOS>ATOM
      1 OE1        -2.1590   -1.1160    0.3950 o         1 B3X     -0.693100
      2 CD         -0.9960   -1.0280   -0.0720 c         1 B3X      0.654100
      3 NE2        -0.6950   -1.5370   -1.3040 n         1 B3X     -0.660000
      4 CG          0.1080   -0.3180    0.6850 c3        1 B3X     -0.187400
      5 CB          1.1660   -1.3230    1.2010 c3        1 B3X      0.169500
      6 N           1.0450   -1.6320    2.6170 n3        1 B3X     -0.905800
      7 CA          2.5590   -0.8140    0.8220 c3        1 B3X     -0.194400
      8 C           2.7120   -0.7270   -0.7050 c         1 B3X      0.907600
      9 O           2.2610   -1.6750   -1.4210 o         1 B3X     -0.850800
     10 OXT         3.2890    0.2880   -1.1830 o         1 B3X     -0.850800
     11 HE21        0.2630   -1.5720   -1.6030 hn        1 B3X      0.327500
     12 HE22       -1.3640   -2.0900   -1.7740 hn        1 B3X      0.327500
     13 HG3         0.6070    0.4230    0.0040 hc        1 B3X      0.069700
     14 HG2        -0.3620    0.2540    1.5250 hc        1 B3X      0.069700
     15 HB          1.0300   -2.3070    0.6540 h1        1 B3X      0.083700
     16 H           0.0900   -1.8440    2.8360 hn        1 B3X      0.330800
     17 H2          1.3250   -0.8440    3.1690 hn        1 B3X      0.330800
     18 HA1         3.3390   -1.5200    1.2040 hc        1 B3X      0.035200
     19 HA2         2.7460    0.1920    1.2720 hc        1 B3X      0.035200
@<TRIPOS>BOND
     1    1    2 2   
     2    2    3 1   
     3    2    4 1   
     4    3   11 1   
     5    3   12 1   
     6    4    5 1   
     7    4   13 1   
     8    4   14 1   
     9    5    6 1   
    10    5    7 1   
    11    5   15 1   
    12    6   16 1   
    13    6   17 1   
    14    7    8 1   
    15    7   18 1   
    16    7   19 1   
    17    8    9 1   
    18    8   10 1   
@<TRIPOS>SUBSTRUCTURE
     1 B3X         1 TEMP              0 ****  ****    0 ROOT
