@<TRIPOS>MOLECULE
B3X
   19    17     1     0     0
SMALL
bcc


@<TRIPOS>ATOM
      1 OE1        -1.2630    0.8420    1.8090 o         1 B3X     -0.426000
      2 CD         -0.0990    0.5090    1.9090 c1        1 B3X      0.299000
      3 NE2         0.4780    0.3240    3.1920 n2        1 B3X     -0.421000
      4 CG          0.7340    0.2870    0.6660 c3        1 B3X     -0.178000
      5 CB         -0.1440   -0.2550   -0.4390 c3        1 B3X     -0.024000
      6 N           0.0470   -1.6600   -0.5490 n3        1 B3X     -0.356000
      7 CA          0.2250    0.4080   -1.7460 c3        1 B3X     -0.260000
      8 C          -0.9620    0.3700   -2.6830 c2        1 B3X      0.326000
      9 O          -0.9690   -0.4260   -3.6590 o         1 B3X     -0.581500
     10 OXT        -1.9420    1.1360   -2.4890 o         1 B3X     -0.581500
     11 HE21        1.3540    0.0730    3.2670 hn        1 B3X      0.222500
     12 HE22       -0.0260    0.4570    3.9430 hn        1 B3X      0.222500
     13 HG3         1.1280    1.1360    0.3820 hc        1 B3X      0.104000
     14 HG2         1.4460   -0.3540    0.8610 hc        1 B3X      0.104000
     15 HB         -1.0810   -0.0680   -0.2320 h1        1 B3X      0.094000
     16 H          -0.7530   -2.0620   -0.7430 hn        1 B3X      0.157000
     17 H2          0.3690   -1.9880    0.2430 hn        1 B3X      0.157000
     18 HA1         0.4800    1.3380   -1.5800 hc        1 B3X      0.070500
     19 HA2         0.9770   -0.0680   -2.1530 hc        1 B3X      0.070500
@<TRIPOS>BOND
     1    1    2 1   
     2    2    4 1   
     3    3   11 1   
     4    3   12 1   
     5    4    5 1   
     6    4   13 1   
     7    4   14 1   
     8    5    6 1   
     9    5    7 1   
    10    5   15 1   
    11    6   16 1   
    12    6   17 1   
    13    7    8 1   
    14    7   18 1   
    15    7   19 1   
    16    8    9 1   
    17    8   10 1   
@<TRIPOS>SUBSTRUCTURE
     1 B3X         1 TEMP              0 ****  ****    0 ROOT
