@<TRIPOS>MOLECULE
B3Y
   26    26     1     0     0
SMALL
bcc


@<TRIPOS>ATOM
      1 O           0.1480   -2.5300   -1.9540 o         1 B3Y     -0.853300
      2 C          -0.8140   -2.2280   -1.1880 c         1 B3Y      0.905600
      3 CA         -0.7250   -2.6490    0.2870 c3        1 B3Y     -0.236400
      4 CB          0.3960   -1.8910    1.0080 c3        1 B3Y      0.184500
      5 N           1.7260   -2.1580    0.4660 n3        1 B3Y     -0.903800
      6 CG          0.0960   -0.3780    0.9950 c3        1 B3Y     -0.038100
      7 CD         -1.1090   -0.0260    1.7940 ca        1 B3Y     -0.090300
      8 CE2        -2.3760   -0.0480    1.1880 ca        1 B3Y     -0.096500
      9 CF2        -3.5060    0.3140    1.9120 ca        1 B3Y     -0.196000
     10 CZ         -3.3720    0.6990    3.2540 ca        1 B3Y      0.093100
     11 OH         -4.4550    1.0760    4.0270 oh        1 B3Y     -0.519100
     12 CF1        -2.1170    0.7210    3.8740 ca        1 B3Y     -0.196000
     13 CE1        -0.9940    0.3560    3.1340 ca        1 B3Y     -0.096500
     14 OXT        -1.8380   -1.5860   -1.5650 o         1 B3Y     -0.853300
     15 HA1        -0.5270   -3.7490    0.3350 hc        1 B3Y      0.031200
     16 HA2        -1.6990   -2.4500    0.7970 hc        1 B3Y      0.031200
     17 HB          0.4160   -2.2290    2.0870 h1        1 B3Y      0.020700
     18 H           1.7690   -1.7850   -0.4700 hn        1 B3Y      0.349300
     19 H2          1.8310   -3.1530    0.3790 hn        1 B3Y      0.349300
     20 HG2         0.9820    0.1830    1.3950 hc        1 B3Y      0.058200
     21 HG3        -0.0640   -0.0640   -0.0750 hc        1 B3Y      0.058200
     22 HE2        -2.4580   -0.3810    0.1280 ha        1 B3Y      0.168500
     23 HF2        -4.4970    0.2930    1.4380 ha        1 B3Y      0.127000
     24 HOH        -5.2450    0.9840    3.4770 ho        1 B3Y      0.407000
     25 HF1        -2.0320    1.0220    4.9260 ha        1 B3Y      0.127000
     26 HE1        -0.0040    0.3680    3.6130 ha        1 B3Y      0.168500
@<TRIPOS>BOND
     1    1    2 1   
     2    2    3 1   
     3    2   14 1   
     4    3    4 1   
     5    3   15 1   
     6    3   16 1   
     7    4    5 1   
     8    4    6 1   
     9    4   17 1   
    10    5   18 1   
    11    5   19 1   
    12    6    7 1   
    13    6   20 1   
    14    6   21 1   
    15    7    8 ar  
    16    7   13 ar  
    17    8    9 ar  
    18    8   22 1   
    19    9   10 ar  
    20    9   23 1   
    21   10   11 1   
    22   10   12 ar  
    23   11   24 1   
    24   12   13 ar  
    25   12   25 1   
    26   13   26 1   
@<TRIPOS>SUBSTRUCTURE
     1 B3Y         1 TEMP              0 ****  ****    0 ROOT
