@<TRIPOS>MOLECULE
B3Y
   26    23     1     0     0
SMALL
bcc


@<TRIPOS>ATOM
      1 O          -3.6020   -0.8290   -2.7550 o         1 B3Y     -0.587500
      2 C          -2.4000   -0.4880   -2.9090 c1        1 B3Y      0.329000
      3 CA         -1.2920   -1.3360   -2.3240 c2        1 B3Y     -0.223000
      4 CB         -1.0520   -0.9300   -0.8880 c3        1 B3Y     -0.032000
      5 N          -1.7660   -1.8040   -0.0220 n3        1 B3Y     -0.335000
      6 CG          0.4260   -1.0130   -0.5810 c3        1 B3Y     -0.159000
      7 CD          0.7920    0.0540    0.4260 c2        1 B3Y     -0.084000
      8 CE2         0.9520   -0.2800    1.7620 c1        1 B3Y     -0.120000
      9 CF2         1.3450    0.6850    2.6750 c1        1 B3Y     -0.173000
     10 CZ          1.5780    1.9850    2.2540 c1        1 B3Y      0.047000
     11 OH          2.0100    2.9570    3.1750 oh        1 B3Y     -0.273000
     12 CF1         1.4190    2.3190    0.9180 c1        1 B3Y     -0.213000
     13 CE1         1.0260    1.3540    0.0040 c2        1 B3Y     -0.079000
     14 OXT        -2.1190    0.5440   -3.5730 o         1 B3Y     -0.587500
     15 HA1        -0.4720   -1.2040   -2.8410 ha        1 B3Y      0.071000
     16 HA2        -1.5500   -2.2790   -2.3570 ha        1 B3Y      0.071000
     17 HB         -1.3620   -0.0130   -0.7530 h1        1 B3Y      0.128000
     18 H          -1.3070   -2.5930    0.0620 hn        1 B3Y      0.119000
     19 H2         -1.8540   -1.4140    0.8010 hn        1 B3Y      0.119000
     20 HG2         0.6330   -1.8950   -0.2120 hc        1 B3Y      0.095500
     21 HG3         0.9380   -0.8750   -1.4030 hc        1 B3Y      0.095500
     22 HE2         0.8030   -1.1980    2.0560 ha        1 B3Y      0.118000
     23 HF2         1.4580    0.4500    3.6160 ha        1 B3Y      0.129000
     24 HOH         2.8990    2.9810    3.1850 ho        1 B3Y      0.207000
     25 HF1         1.5830    3.2340    0.6210 ha        1 B3Y      0.125000
     26 HE1         0.9130    1.5890   -0.9360 ha        1 B3Y      0.213000
@<TRIPOS>BOND
     1    1    2 1   
     2    2   14 1   
     3    3    4 1   
     4    3   15 1   
     5    3   16 1   
     6    4    5 1   
     7    4    6 1   
     8    4   17 1   
     9    5   18 1   
    10    5   19 1   
    11    6    7 1   
    12    6   20 1   
    13    6   21 1   
    14    7    8 1   
    15    7   13 1   
    16    8   22 1   
    17    9   10 1   
    18    9   23 1   
    19   10   11 1   
    20   11   24 1   
    21   12   13 1   
    22   12   25 1   
    23   13   26 1   
@<TRIPOS>SUBSTRUCTURE
     1 B3Y         1 TEMP              0 ****  ****    0 ROOT
