@<TRIPOS>MOLECULE
B3Z
   37    37     1     0     0
SMALL
bcc


@<TRIPOS>ATOM
      1 O1          1.7780   -2.2380    0.4590 o         1 B3Z     -0.651300
      2 S1          1.2300   -1.0520   -0.0790 sy        1 B3Z      1.515200
      3 O2          0.8430   -1.0950   -1.4310 o         1 B3Z     -0.651300
      4 N4          0.0140   -0.5660    0.8560 n3        1 B3Z     -0.922100
      5 C22        -1.1580    0.1210    0.3900 c3        1 B3Z      0.219800
      6 C21        -2.4520   -0.7160    0.5540 c3        1 B3Z      0.157800
      7 N17        -3.6260    0.0260    0.1200 n3        1 B3Z     -0.745600
      8 C16        -3.8180   -0.0240   -1.3250 c3        1 B3Z      0.172300
      9 C20        -4.5980    1.1560   -1.8820 c3        1 B3Z     -0.093600
     10 C5          2.3930    0.1800    0.1230 ca        1 B3Z     -0.399500
     11 C6          3.6400   -0.1800    0.6570 ca        1 B3Z     -0.010000
     12 C7          4.6660    0.7450    0.8140 ca        1 B3Z     -0.170000
     13 C8          4.4670    2.0750    0.4360 ca        1 B3Z     -0.047000
     14 C9          3.2470    2.4750   -0.0920 ca        1 B3Z     -0.193000
     15 C10         2.2130    1.5300   -0.2450 ca        1 B3Z      0.241900
     16 C11        -4.8290   -0.3230    0.8640 c3        1 B3Z      0.172300
     17 F09         1.0290    1.9440   -0.7530 f         1 B3Z     -0.129900
     18 C12        -4.8670    0.2420    2.2760 c3        1 B3Z     -0.093600
     19 H4         -0.0010   -0.7600    1.8290 hn        1 B3Z      0.448800
     20 H221       -1.2740    1.0870    0.9600 h1        1 B3Z      0.065200
     21 H222       -1.0100    0.3810   -0.6990 h1        1 B3Z      0.065200
     22 H211       -2.3370   -1.6840   -0.0150 h1        1 B3Z      0.037700
     23 H212       -2.5670   -0.9800    1.6430 h1        1 B3Z      0.037700
     24 H161       -2.8010   -0.0300   -1.8150 h1        1 B3Z      0.032950
     25 H162       -4.3390   -0.9790   -1.6330 h1        1 B3Z      0.032950
     26 H111       -5.7150    0.0900    0.3020 h1        1 B3Z      0.032950
     27 H112       -4.9640   -1.4440    0.9210 h1        1 B3Z      0.032950
     28 H201       -4.6010    1.0860   -2.9960 hc        1 B3Z      0.038033
     29 H202       -5.6560    1.1550   -1.5250 hc        1 B3Z      0.038033
     30 H203       -4.1280    2.1240   -1.5850 hc        1 B3Z      0.038033
     31 H6          3.8070   -1.2340    0.9550 ha        1 B3Z      0.171000
     32 H7          5.6330    0.4290    1.2330 ha        1 B3Z      0.146000
     33 H8          5.2790    2.8100    0.5560 ha        1 B3Z      0.143000
     34 H9          3.0730    3.5180   -0.3950 ha        1 B3Z      0.156000
     35 H121       -4.0740   -0.2070    2.9200 hc        1 B3Z      0.038033
     36 H122       -4.7290    1.3490    2.2680 hc        1 B3Z      0.038033
     37 H123       -5.8620    0.0070    2.7260 hc        1 B3Z      0.038033
@<TRIPOS>BOND
     1    1    2 2   
     2    2    3 2   
     3    2    4 1   
     4    2   10 1   
     5    4    5 1   
     6    4   19 1   
     7    5    6 1   
     8    5   20 1   
     9    5   21 1   
    10    6    7 1   
    11    6   22 1   
    12    6   23 1   
    13    7    8 1   
    14    7   16 1   
    15    8    9 1   
    16    8   24 1   
    17    8   25 1   
    18    9   28 1   
    19    9   29 1   
    20    9   30 1   
    21   10   11 ar  
    22   10   15 ar  
    23   11   12 ar  
    24   11   31 1   
    25   12   13 ar  
    26   12   32 1   
    27   13   14 ar  
    28   13   33 1   
    29   14   15 ar  
    30   14   34 1   
    31   15   17 1   
    32   16   18 1   
    33   16   26 1   
    34   16   27 1   
    35   18   35 1   
    36   18   36 1   
    37   18   37 1   
@<TRIPOS>SUBSTRUCTURE
     1 B3Z         1 TEMP              0 ****  ****    0 ROOT
