@<TRIPOS>MOLECULE
B3Z
   37    33     1     0     0
SMALL
bcc


@<TRIPOS>ATOM
      1 O1         -2.3880    0.5820    0.7570 o         1 B3Z     -0.928500
      2 S1         -1.4670    1.6530    0.5210 ss        1 B3Z      2.854000
      3 O2         -1.3950    2.2530    1.8290 o         1 B3Z     -0.928500
      4 N4          0.0120    1.0770    0.0400 n2        1 B3Z     -0.888000
      5 C22         0.6760    0.0560    0.8200 c3        1 B3Z     -0.053000
      6 C21         1.3480   -0.9580   -0.1270 c3        1 B3Z     -0.064000
      7 N17         1.6680   -2.1750    0.6100 n3        1 B3Z     -0.292000
      8 C16         0.8130   -3.2500    0.1590 c3        1 B3Z     -0.052000
      9 C20         0.1190   -3.9030    1.3760 c3        1 B3Z     -0.248000
     10 C5         -2.1070    2.8080   -0.6840 c1        1 B3Z     -0.841000
     11 C6         -2.5000    2.3580   -1.9350 c2        1 B3Z     -0.009000
     12 C7         -3.0890    3.2430   -2.8410 c1        1 B3Z     -0.166000
     13 C8         -3.2800    4.5750   -2.4890 c1        1 B3Z     -0.119000
     14 C9         -2.8860    5.0260   -1.2350 c1        1 B3Z     -0.119000
     15 C10        -2.3000    4.1440   -0.3310 c1        1 B3Z      0.199000
     16 C11         3.0510   -2.5300    0.3780 c3        1 B3Z     -0.052000
     17 F09        -2.0700    4.8530    0.7890 f         1 B3Z     -0.103000
     18 C12         3.7630   -2.7180    1.7220 c3        1 B3Z     -0.248000
     19 H4          0.4510    1.4760   -0.6560 hn        1 B3Z      0.248000
     20 H221        0.0250   -0.4030    1.3750 h1        1 B3Z      0.101000
     21 H222        1.3570    0.4720    1.3900 h1        1 B3Z      0.101000
     22 H211        2.1760   -0.5670   -0.4920 h1        1 B3Z      0.089000
     23 H212        0.7380   -1.1720   -0.8600 h1        1 B3Z      0.089000
     24 H161        0.1390   -2.8950   -0.4490 h1        1 B3Z      0.086750
     25 H162        1.3540   -3.9240   -0.3100 h1        1 B3Z      0.086750
     26 H111        3.4920   -1.8160   -0.1280 h1        1 B3Z      0.086750
     27 H112        3.0920   -3.3620   -0.1310 h1        1 B3Z      0.086750
     28 H201       -0.7440   -4.3080    1.0880 hc        1 B3Z      0.078333
     29 H202        0.7050   -4.6060    1.7510 hc        1 B3Z      0.078333
     30 H203       -0.0530   -3.2190    2.0600 hc        1 B3Z      0.078333
     31 H6         -2.3640    1.4170   -2.1840 ha        1 B3Z      0.170000
     32 H7         -3.3690    2.9230   -3.7320 ha        1 B3Z      0.147000
     33 H8         -3.6910    5.1920   -3.1210 ha        1 B3Z      0.149500
     34 H9         -3.0230    5.9760   -0.9840 ha        1 B3Z      0.149500
     35 H121        3.5320   -1.9780    2.3190 hc        1 B3Z      0.078333
     36 H122        3.4800   -3.5670    2.1270 hc        1 B3Z      0.078333
     37 H123        4.7350   -2.7310    1.5780 hc        1 B3Z      0.078333
@<TRIPOS>BOND
     1    1    2 1   
     2    2    3 1   
     3    4    5 1   
     4    4   19 1   
     5    5    6 1   
     6    5   20 1   
     7    5   21 1   
     8    6    7 1   
     9    6   22 1   
    10    6   23 1   
    11    7    8 1   
    12    7   16 1   
    13    8    9 1   
    14    8   24 1   
    15    8   25 1   
    16    9   28 1   
    17    9   29 1   
    18    9   30 1   
    19   10   11 1   
    20   10   15 1   
    21   11   12 1   
    22   11   31 1   
    23   12   32 1   
    24   13   14 1   
    25   13   33 1   
    26   14   34 1   
    27   15   17 1   
    28   16   18 1   
    29   16   26 1   
    30   16   27 1   
    31   18   35 1   
    32   18   36 1   
    33   18   37 1   
@<TRIPOS>SUBSTRUCTURE
     1 B3Z         1 TEMP              0 ****  ****    0 ROOT
