@<TRIPOS>MOLECULE
B3Z
   39    38     1     0     0
SMALL
bcc


@<TRIPOS>ATOM
      1 O1          2.4110    0.7360    0.8700 o         1 B3Z     -0.420400
      2 S1          3.0610    1.3200   -0.1660 s4        1 B3Z      1.685300
      3 O2          4.3900    1.1550   -0.3640 o         1 B3Z     -0.420400
      4 N4          2.7490   -0.8480   -1.4450 n3        1 B3Z     -0.983800
      5 C22         3.8920   -1.6960   -1.1730 c3        1 B3Z      0.111800
      6 C21         3.8650   -3.0630   -1.8950 c3        1 B3Z      0.067800
      7 N17         5.0600   -3.9100   -1.6030 n4        1 B3Z     -0.689400
      8 C16         4.9250   -4.6060   -0.2720 c3        1 B3Z      0.111800
      9 C20         6.2540   -5.0130    0.3270 c3        1 B3Z     -0.139100
     10 C5          2.2790    2.3400   -1.0360 ca        1 B3Z     -0.667500
     11 C6          0.9390    2.6700   -0.6470 ca        1 B3Z      0.016000
     12 C7          0.1940    3.6250   -1.2990 ca        1 B3Z     -0.147000
     13 C8          0.7370    4.3200   -2.3960 ca        1 B3Z      0.068000
     14 C9          2.0250    4.0290   -2.8350 ca        1 B3Z     -0.188000
     15 C10         2.7840    3.0510   -2.1760 ca        1 B3Z      0.316900
     16 C11         5.2830   -4.9160   -2.7050 c3        1 B3Z      0.111800
     17 F09         4.0200    2.7630   -2.6220 f         1 B3Z     -0.087900
     18 C12         5.9400   -4.3270   -3.9350 c3        1 B3Z     -0.139100
     19 H4          1.9010   -1.2650   -1.0960 hn        1 B3Z      0.399800
     20 H221        3.9380   -1.8600   -0.0570 h1        1 B3Z      0.098200
     21 H222        4.8190   -1.1260   -1.4790 h1        1 B3Z      0.098200
     22 H211        3.8280   -2.8920   -3.0110 hx        1 B3Z      0.110700
     23 H212        2.9460   -3.6450   -1.5970 hx        1 B3Z      0.110700
     24 H161        4.3990   -3.9000    0.4320 hx        1 B3Z      0.107700
     25 H162        4.2690   -5.5120   -0.4250 hx        1 B3Z      0.107700
     26 H111        5.9450   -5.7290   -2.2830 hx        1 B3Z      0.107700
     27 H112        4.2840   -5.3690   -2.9650 hx        1 B3Z      0.107700
     28 H201        6.9260   -4.1350    0.4900 hc        1 B3Z      0.085033
     29 H202        6.7900   -5.7660   -0.3020 hc        1 B3Z      0.085033
     30 H203        6.0500   -5.4840    1.3250 hc        1 B3Z      0.085033
     31 H6          0.4990    2.1410    0.2240 ha        1 B3Z      0.184000
     32 H7         -0.8330    3.8580   -0.9600 ha        1 B3Z      0.199000
     33 H8          0.1390    5.0990   -2.9090 ha        1 B3Z      0.199000
     34 H9          2.4640    4.5630   -3.6990 ha        1 B3Z      0.207000
     35 H121        6.1110   -5.1640   -4.6630 hc        1 B3Z      0.085033
     36 H122        6.9330   -3.8710   -3.7010 hc        1 B3Z      0.085033
     37 H123        5.2970   -3.5650   -4.4360 hc        1 B3Z      0.085033
     38 H42         2.6470   -0.6870   -2.4330 hn        1 B3Z      0.399800
     39 H171        5.8910   -3.3030   -1.5620 hn        1 B3Z      0.449800
@<TRIPOS>BOND
     1    1    2 1   
     2    2    3 1   
     3    2   10 1   
     4    4    5 1   
     5    4   19 1   
     6    4   38 1   
     7    5    6 1   
     8    5   20 1   
     9    5   21 1   
    10    6    7 1   
    11    6   22 1   
    12    6   23 1   
    13    7    8 1   
    14    7   16 1   
    15    7   39 1   
    16    8    9 1   
    17    8   24 1   
    18    8   25 1   
    19    9   28 1   
    20    9   29 1   
    21    9   30 1   
    22   10   11 ar  
    23   10   15 ar  
    24   11   12 ar  
    25   11   31 1   
    26   12   13 ar  
    27   12   32 1   
    28   13   14 ar  
    29   13   33 1   
    30   14   15 ar  
    31   14   34 1   
    32   15   17 1   
    33   16   18 1   
    34   16   26 1   
    35   16   27 1   
    36   18   35 1   
    37   18   36 1   
    38   18   37 1   
@<TRIPOS>SUBSTRUCTURE
     1 B3Z         1 TEMP              0 ****  ****    0 ROOT
