@<TRIPOS>MOLECULE
B3Z
   39    38     1     0     0
SMALL
bcc


@<TRIPOS>ATOM
      1 O1          2.5260    0.8100    0.8590 o         1 B3Z     -0.420400
      2 S1          3.1340    1.3630   -0.2180 s4        1 B3Z      1.685300
      3 O2          4.4530    1.1860   -0.4670 o         1 B3Z     -0.420400
      4 N4          2.7610   -0.8360   -1.4260 n8        1 B3Z     -0.983800
      5 C22         3.9050   -1.6870   -1.1700 c3        1 B3Z      0.111800
      6 C21         3.8450   -3.0710   -1.8550 c3        1 B3Z      0.067800
      7 N17         5.0420   -3.9210   -1.5790 nx        1 B3Z     -0.689400
      8 C16         4.9440   -4.5830   -0.2290 c3        1 B3Z      0.111800
      9 C20         6.2880   -4.9860    0.3380 c3        1 B3Z     -0.139100
     10 C5          2.3210    2.3630   -1.0820 ca        1 B3Z     -0.667500
     11 C6          0.9990    2.7110   -0.6470 ca        1 B3Z      0.016000
     12 C7          0.2320    3.6520   -1.2920 ca        1 B3Z     -0.147000
     13 C8          0.7310    4.3150   -2.4290 ca        1 B3Z      0.068000
     14 C9          1.9980    4.0050   -2.9140 ca        1 B3Z     -0.188000
     15 C10         2.7810    3.0410   -2.2610 ca        1 B3Z      0.316900
     16 C11         5.2240   -4.9540   -2.6640 c3        1 B3Z      0.111800
     17 F09         3.9950    2.7350   -2.7510 f         1 B3Z     -0.087900
     18 C12         5.8460   -4.4020   -3.9270 c3        1 B3Z     -0.139100
     19 H4          1.9220   -1.2370   -1.0380 hn        1 B3Z      0.399800
     20 H221        3.9870   -1.8230   -0.0510 h1        1 B3Z      0.098200
     21 H222        4.8270   -1.1320   -1.5200 h1        1 B3Z      0.098200
     22 H211        2.9310   -3.6370   -1.5130 hx        1 B3Z      0.110700
     23 H212        3.7740   -2.9270   -2.9740 hx        1 B3Z      0.110700
     24 H161        4.4450   -3.8550    0.4740 hx        1 B3Z      0.107700
     25 H162        4.2770   -5.4860   -0.3390 hx        1 B3Z      0.107700
     26 H111        5.8920   -5.7630   -2.2420 hx        1 B3Z      0.107700
     27 H112        4.2140   -5.4050   -2.8810 hx        1 B3Z      0.107700
     28 H201        6.7980   -5.7580   -0.2880 hc        1 B3Z      0.085033
     29 H202        6.9700   -4.1100    0.4600 hc        1 B3Z      0.085033
     30 H203        6.1110   -5.4310    1.3530 hc        1 B3Z      0.085033
     31 H6          0.5950    2.2080    0.2560 ha        1 B3Z      0.184000
     32 H7         -0.7790    3.9000   -0.9170 ha        1 B3Z      0.199000
     33 H8          0.1160    5.0830   -2.9380 ha        1 B3Z      0.199000
     34 H9          2.4030    4.5130   -3.8090 ha        1 B3Z      0.207000
     35 H121        5.9880   -5.2570   -4.6400 hc        1 B3Z      0.085033
     36 H122        5.1930   -3.6460   -4.4260 hc        1 B3Z      0.085033
     37 H123        6.8490   -3.9480   -3.7350 hc        1 B3Z      0.085033
     38 H42         2.6280   -0.7000   -2.4140 hn        1 B3Z      0.399800
     39 H171        5.8780   -3.3190   -1.5790 hn        1 B3Z      0.449800
@<TRIPOS>BOND
     1    1    2 1   
     2    2    3 1   
     3    2   10 1   
     4    4    5 1   
     5    4   19 1   
     6    4   38 1   
     7    5    6 1   
     8    5   20 1   
     9    5   21 1   
    10    6    7 1   
    11    6   22 1   
    12    6   23 1   
    13    7    8 1   
    14    7   16 1   
    15    7   39 1   
    16    8    9 1   
    17    8   24 1   
    18    8   25 1   
    19    9   28 1   
    20    9   29 1   
    21    9   30 1   
    22   10   11 ar  
    23   10   15 ar  
    24   11   12 ar  
    25   11   31 1   
    26   12   13 ar  
    27   12   32 1   
    28   13   14 ar  
    29   13   33 1   
    30   14   15 ar  
    31   14   34 1   
    32   15   17 1   
    33   16   18 1   
    34   16   26 1   
    35   16   27 1   
    36   18   35 1   
    37   18   36 1   
    38   18   37 1   
@<TRIPOS>SUBSTRUCTURE
     1 B3Z         1 TEMP              0 ****  ****    0 ROOT
