@<TRIPOS>MOLECULE
B3Z
   39    38     1     0     0
SMALL
bcc


@<TRIPOS>ATOM
      1 O1          2.5790    0.8090    0.8790 o         1 B3Z     -0.420400
      2 S1          3.1580    1.3640   -0.2130 s4        1 B3Z      1.685300
      3 O2          4.4720    1.1930   -0.4940 o         1 B3Z     -0.420400
      4 N4          2.7660   -0.8370   -1.4110 n3        1 B3Z     -0.983800
      5 C22         3.9170   -1.6850   -1.1750 c3        1 B3Z      0.111800
      6 C21         3.8470   -3.0690   -1.8590 c3        1 B3Z      0.067800
      7 N17         5.0510   -3.9170   -1.6040 n4        1 B3Z     -0.689400
      8 C16         4.9770   -4.5790   -0.2520 c3        1 B3Z      0.111800
      9 C20         6.3320   -4.9790    0.2920 c3        1 B3Z     -0.139100
     10 C5          2.3190    2.3600   -1.0580 ca        1 B3Z     -0.667500
     11 C6          1.0070    2.7020   -0.5900 ca        1 B3Z      0.016000
     12 C7          0.2190    3.6390   -1.2180 ca        1 B3Z     -0.147000
     13 C8          0.6870    4.3030   -2.3670 ca        1 B3Z      0.068000
     14 C9          1.9430    3.9980   -2.8820 ca        1 B3Z     -0.188000
     15 C10         2.7470    3.0390   -2.2480 ca        1 B3Z      0.316900
     16 C11         5.2160   -4.9500   -2.6910 c3        1 B3Z      0.111800
     17 F09         3.9510    2.7380   -2.7670 f         1 B3Z     -0.087900
     18 C12         5.8150   -4.3960   -3.9650 c3        1 B3Z     -0.139100
     19 H4          1.9350   -1.2390   -1.0080 hn        1 B3Z      0.399800
     20 H221        4.0180   -1.8210   -0.0580 h1        1 B3Z      0.098200
     21 H222        4.8310   -1.1290   -1.5410 h1        1 B3Z      0.098200
     22 H211        2.9410   -3.6380   -1.5010 hx        1 B3Z      0.110700
     23 H212        3.7560   -2.9260   -2.9760 hx        1 B3Z      0.110700
     24 H161        4.4890   -3.8520    0.4600 hx        1 B3Z      0.107700
     25 H162        4.3100   -5.4830   -0.3500 hx        1 B3Z      0.107700
     26 H111        5.8930   -5.7570   -2.2800 hx        1 B3Z      0.107700
     27 H112        4.2030   -5.4030   -2.8900 hx        1 B3Z      0.107700
     28 H201        6.8320   -5.7510   -0.3430 hc        1 B3Z      0.085200
     29 H202        7.0150   -4.1010    0.4020 hc        1 B3Z      0.085200
     30 H203        6.1740   -5.4240    1.3100 hc        1 B3Z      0.085200
     31 H6          0.6270    2.1970    0.3220 ha        1 B3Z      0.184000
     32 H7         -0.7830    3.8810   -0.8180 ha        1 B3Z      0.199000
     33 H8          0.0560    5.0670   -2.8610 ha        1 B3Z      0.199000
     34 H9          2.3240    4.5080   -3.7880 ha        1 B3Z      0.207000
     35 H121        5.9470   -5.2520   -4.6790 hc        1 B3Z      0.085200
     36 H122        5.1520   -3.6420   -4.4530 hc        1 B3Z      0.085200
     37 H123        6.8210   -3.9400   -3.7900 hc        1 B3Z      0.085200
     38 H42         2.6150   -0.7020   -2.3960 hn        1 B3Z      0.399800
     39 H171        5.8860   -3.3130   -1.6180 hn        1 B3Z      0.449800
@<TRIPOS>BOND
     1    1    2 1   
     2    2    3 1   
     3    2   10 1   
     4    4    5 1   
     5    4   19 1   
     6    4   38 1   
     7    5    6 1   
     8    5   20 1   
     9    5   21 1   
    10    6    7 1   
    11    6   22 1   
    12    6   23 1   
    13    7    8 1   
    14    7   16 1   
    15    7   39 1   
    16    8    9 1   
    17    8   24 1   
    18    8   25 1   
    19    9   28 1   
    20    9   29 1   
    21    9   30 1   
    22   10   11 ar  
    23   10   15 ar  
    24   11   12 ar  
    25   11   31 1   
    26   12   13 ar  
    27   12   32 1   
    28   13   14 ar  
    29   13   33 1   
    30   14   15 ar  
    31   14   34 1   
    32   15   17 1   
    33   16   18 1   
    34   16   26 1   
    35   16   27 1   
    36   18   35 1   
    37   18   36 1   
    38   18   37 1   
@<TRIPOS>SUBSTRUCTURE
     1 B3Z         1 TEMP              0 ****  ****    0 ROOT
