@<TRIPOS>MOLECULE
B40
   26    26     1     0     0
SMALL
bcc


@<TRIPOS>ATOM
      1 N          -1.9580   -1.0680    0.1750 n3        1 B40     -0.820200
      2 CA         -1.7940    0.3380   -0.1720 c3        1 B40      0.173500
      3 C          -3.0680    1.1800   -0.0650 c3        1 B40     -0.132100
      4 CB         -0.7070    1.0060    0.6950 c3        1 B40     -0.029100
      5 CG          0.6600    0.5300    0.3560 ca        1 B40     -0.072300
      6 CD1         1.4670    1.2700   -0.5170 ca        1 B40     -0.119000
      7 CD2         1.1610   -0.6520    0.9130 ca        1 B40     -0.119000
      8 CE1         2.7540    0.8350   -0.8270 ca        1 B40     -0.133000
      9 CE2         2.4490   -1.0860    0.6010 ca        1 B40     -0.133000
     10 CZ          3.2480   -0.3440   -0.2680 ca        1 B40     -0.133000
     11 CM         -2.6930   -1.8440   -0.7860 c3        1 B40      0.154100
     12 HN         -2.3670   -1.1500    1.0870 hn        1 B40      0.354800
     13 HA         -1.4430    0.3740   -1.2470 h1        1 B40      0.062700
     14 H          -2.8710    2.2110   -0.4420 hc        1 B40      0.038033
     15 HB         -3.8900    0.7350   -0.6760 hc        1 B40      0.038033
     16 HC         -3.4100    1.2500    0.9950 hc        1 B40      0.038033
     17 HBA        -0.7720    2.1150    0.5300 hc        1 B40      0.047700
     18 HBB        -0.9170    0.8170    1.7820 hc        1 B40      0.047700
     19 HD1         1.0830    2.2010   -0.9600 ha        1 B40      0.132000
     20 HD2         0.5270   -1.2460    1.5890 ha        1 B40      0.132000
     21 HE1         3.3810    1.4230   -1.5130 ha        1 B40      0.128500
     22 HE2         2.8330   -2.0180    1.0410 ha        1 B40      0.128500
     23 HZ          4.2630   -0.6870   -0.5120 ha        1 B40      0.128000
     24 HM         -3.7520   -1.4970   -0.9440 h1        1 B40      0.029033
     25 HMA        -2.1630   -1.8070   -1.7740 h1        1 B40      0.029033
     26 HMB        -2.7190   -2.9090   -0.4330 h1        1 B40      0.029033
@<TRIPOS>BOND
     1    1    2 1   
     2    1   11 1   
     3    1   12 1   
     4    2    3 1   
     5    2    4 1   
     6    2   13 1   
     7    3   14 1   
     8    3   15 1   
     9    3   16 1   
    10    4    5 1   
    11    4   17 1   
    12    4   18 1   
    13    5    6 ar  
    14    5    7 ar  
    15    6    8 ar  
    16    6   19 1   
    17    7    9 ar  
    18    7   20 1   
    19    8   10 ar  
    20    8   21 1   
    21    9   10 ar  
    22    9   22 1   
    23   10   23 1   
    24   11   24 1   
    25   11   25 1   
    26   11   26 1   
@<TRIPOS>SUBSTRUCTURE
     1 B40         1 TEMP              0 ****  ****    0 ROOT
