@<TRIPOS>MOLECULE
B40
   27    27     1     0     0
SMALL
bcc


@<TRIPOS>ATOM
      1 N           0.0190    0.2020   -0.1170 ny        1 B40     -0.765000
      2 CA          1.5080   -0.0220    0.0420 c3        1 B40      0.127500
      3 C           1.9060   -0.1420    1.5040 c3        1 B40     -0.133100
      4 CB          1.9460   -1.2780   -0.7280 c3        1 B40     -0.058100
      5 CG          1.5360   -1.2270   -2.1570 ca        1 B40     -0.158300
      6 CD1         2.3000   -0.5080   -3.0840 ca        1 B40     -0.135000
      7 CD2         0.4040   -1.9290   -2.5910 ca        1 B40     -0.135000
      8 CE1         1.9290   -0.4850   -4.4280 ca        1 B40     -0.113500
      9 CE2         0.0370   -1.9050   -3.9350 ca        1 B40     -0.113500
     10 CZ          0.7980   -1.1810   -4.8550 ca        1 B40     -0.099000
     11 CM         -0.3810    1.6020    0.1350 c3        1 B40      0.080100
     12 HN         -0.2420   -0.0640   -1.0800 hn        1 B40      0.457300
     13 HA          2.0120    0.8800   -0.4200 hx        1 B40      0.108700
     14 H           1.6360    0.7750    2.0830 hc        1 B40      0.078033
     15 HB          3.0180   -0.2670    1.5550 hc        1 B40      0.078033
     16 HC          1.4350   -1.0320    1.9880 hc        1 B40      0.078033
     17 HBA         1.5350   -2.1970   -0.2300 hc        1 B40      0.091200
     18 HBB         3.0670   -1.3330   -0.6510 hc        1 B40      0.091200
     19 HD1         3.2060    0.0240   -2.7560 ha        1 B40      0.136000
     20 HD2        -0.1740   -2.5400   -1.8810 ha        1 B40      0.136000
     21 HE1         2.5400    0.0740   -5.1550 ha        1 B40      0.156000
     22 HE2        -0.8450   -2.4700   -4.2740 ha        1 B40      0.156000
     23 HZ          0.5120   -1.1700   -5.9190 ha        1 B40      0.159000
     24 HM         -0.0670    1.9060    1.1700 hx        1 B40      0.107033
     25 HMA        -1.4970    1.6900    0.0400 hx        1 B40      0.107033
     26 HMB         0.1120    2.2760   -0.6160 hx        1 B40      0.107033
     27 HN3        -0.4760   -0.4190    0.5320 hn        1 B40      0.457300
@<TRIPOS>BOND
     1    1    2 1   
     2    1   11 1   
     3    1   12 1   
     4    1   27 1   
     5    2    3 1   
     6    2    4 1   
     7    2   13 1   
     8    3   14 1   
     9    3   15 1   
    10    3   16 1   
    11    4    5 1   
    12    4   17 1   
    13    4   18 1   
    14    5    6 ar  
    15    5    7 ar  
    16    6    8 ar  
    17    6   19 1   
    18    7    9 ar  
    19    7   20 1   
    20    8   10 ar  
    21    8   21 1   
    22    9   10 ar  
    23    9   22 1   
    24   10   23 1   
    25   11   24 1   
    26   11   25 1   
    27   11   26 1   
@<TRIPOS>SUBSTRUCTURE
     1 B40         1 TEMP              0 ****  ****    0 ROOT
