@<TRIPOS>MOLECULE
B40
   27    27     1     0     0
SMALL
bcc


@<TRIPOS>ATOM
      1 N           0.0080    0.1800   -0.1150 n4        1 B40     -0.765000
      2 CA          1.5000   -0.0200    0.0440 c3        1 B40      0.127500
      3 C           1.8990   -0.1390    1.5060 c3        1 B40     -0.133100
      4 CB          1.9600   -1.2640   -0.7310 c3        1 B40     -0.058100
      5 CG          1.5510   -1.2140   -2.1600 ca        1 B40     -0.158300
      6 CD1         2.3030   -0.4790   -3.0830 ca        1 B40     -0.135000
      7 CD2         0.4310   -1.9330   -2.5980 ca        1 B40     -0.135000
      8 CE1         1.9340   -0.4570   -4.4280 ca        1 B40     -0.113500
      9 CE2         0.0650   -1.9100   -3.9420 ca        1 B40     -0.113500
     10 CZ          0.8140   -1.1690   -4.8580 ca        1 B40     -0.099000
     11 CM         -0.4160    1.5710    0.1430 c3        1 B40      0.080100
     12 HN         -0.4770   -0.4530    0.5300 hn        1 B40      0.457300
     13 HA          1.9890    0.8930   -0.4140 hx        1 B40      0.108700
     14 H           3.0130   -0.2450    1.5570 hc        1 B40      0.078033
     15 HB          1.6130    0.7710    2.0880 hc        1 B40      0.078033
     16 HC          1.4430   -1.0390    1.9850 hc        1 B40      0.078033
     17 HBA         1.5650   -2.1920   -0.2370 hc        1 B40      0.091200
     18 HBB         3.0830   -1.3010   -0.6530 hc        1 B40      0.091200
     19 HD1         3.2000    0.0670   -2.7530 ha        1 B40      0.136000
     20 HD2        -0.1370   -2.5570   -1.8900 ha        1 B40      0.136000
     21 HE1         2.5350    0.1150   -5.1520 ha        1 B40      0.156000
     22 HE2        -0.8070   -2.4890   -4.2850 ha        1 B40      0.156000
     23 HZ          0.5290   -1.1590   -5.9230 ha        1 B40      0.159000
     24 HM         -1.5340    1.6400    0.0470 hx        1 B40      0.107033
     25 HMA         0.0650    2.2580   -0.6040 hx        1 B40      0.107033
     26 HMB        -0.1090    1.8750    1.1800 hx        1 B40      0.107033
     27 HN3        -0.2480   -0.0860   -1.0800 hn        1 B40      0.457300
@<TRIPOS>BOND
     1    1    2 1   
     2    1   11 1   
     3    1   12 1   
     4    1   27 1   
     5    2    3 1   
     6    2    4 1   
     7    2   13 1   
     8    3   14 1   
     9    3   15 1   
    10    3   16 1   
    11    4    5 1   
    12    4   17 1   
    13    4   18 1   
    14    5    6 ar  
    15    5    7 ar  
    16    6    8 ar  
    17    6   19 1   
    18    7    9 ar  
    19    7   20 1   
    20    8   10 ar  
    21    8   21 1   
    22    9   10 ar  
    23    9   22 1   
    24   10   23 1   
    25   11   24 1   
    26   11   25 1   
    27   11   26 1   
@<TRIPOS>SUBSTRUCTURE
     1 B40         1 TEMP              0 ****  ****    0 ROOT
