@<TRIPOS>MOLECULE
B40
   26    24     1     0     0
SMALL
bcc


@<TRIPOS>ATOM
      1 N          -1.2720   -0.0690    1.9970 n3        1 B40     -0.299000
      2 CA         -0.0750    0.2500    1.3000 c3        1 B40     -0.024000
      3 C           0.9760    0.7050    2.2860 c3        1 B40     -0.250000
      4 CB          0.4210   -0.9730    0.5630 c3        1 B40     -0.115000
      5 CG          0.4240   -0.6990   -0.9250 c2        1 B40     -0.065000
      6 CD1        -0.5490   -1.2630   -1.7350 c2        1 B40     -0.106000
      7 CD2         1.4390    0.0590   -1.4870 c1        1 B40     -0.132000
      8 CE1        -0.5070   -1.0690   -3.1070 c1        1 B40     -0.133000
      9 CE2         1.4810    0.2530   -2.8580 c1        1 B40     -0.133000
     10 CZ          0.5080   -0.3110   -3.6680 c1        1 B40     -0.133000
     11 CM         -2.0420    1.1160    2.1860 c3        1 B40     -0.122000
     12 HN         -1.0640   -0.4310    2.8110 hn        1 B40      0.150000
     13 HA         -0.2530    0.9670    0.6590 h1        1 B40      0.102000
     14 H           1.0900    0.0230    2.9810 hc        1 B40      0.077333
     15 HB          0.6930    1.5480    2.7000 hc        1 B40      0.077333
     16 HC          1.8270    0.8400    1.8180 hc        1 B40      0.077333
     17 HBA        -0.1690   -1.7300    0.7540 hc        1 B40      0.087000
     18 HBB         1.3290   -1.1850    0.8580 hc        1 B40      0.087000
     19 HD1        -1.2640   -1.7970   -1.3390 ha        1 B40      0.138000
     20 HD2         2.1250    0.4560   -0.9160 ha        1 B40      0.126000
     21 HE1        -1.1930   -1.4660   -3.6770 ha        1 B40      0.129000
     22 HE2         2.1960    0.7870   -3.2540 ha        1 B40      0.128000
     23 HZ          0.5370   -0.1740   -4.6340 ha        1 B40      0.128000
     24 HM         -2.1490    1.5770    1.3260 h1        1 B40      0.068333
     25 HMA        -1.5830    1.7070    2.8200 h1        1 B40      0.068333
     26 HMB        -2.9260    0.8780    2.5410 h1        1 B40      0.068333
@<TRIPOS>BOND
     1    1    2 1   
     2    1   11 1   
     3    1   12 1   
     4    2    3 1   
     5    2    4 1   
     6    2   13 1   
     7    3   14 1   
     8    3   15 1   
     9    3   16 1   
    10    4    5 1   
    11    4   17 1   
    12    4   18 1   
    13    5    6 1   
    14    5    7 1   
    15    6    8 1   
    16    6   19 1   
    17    7   20 1   
    18    8   21 1   
    19    9   10 1   
    20    9   22 1   
    21   10   23 1   
    22   11   24 1   
    23   11   25 1   
    24   11   26 1   
@<TRIPOS>SUBSTRUCTURE
     1 B40         1 TEMP              0 ****  ****    0 ROOT
