@<TRIPOS>MOLECULE
B40
   27    27     1     0     0
SMALL
bcc


@<TRIPOS>ATOM
      1 N           0.0030    0.1700   -0.1150 n4        1 B40     -0.765000
      2 CA          1.4960   -0.0170    0.0450 c3        1 B40      0.127500
      3 C           1.8960   -0.1330    1.5070 c3        1 B40     -0.133100
      4 CB          1.9670   -1.2580   -0.7310 c3        1 B40     -0.058100
      5 CG          1.5580   -1.2100   -2.1600 ca        1 B40     -0.158300
      6 CD1         2.3040   -0.4670   -3.0830 ca        1 B40     -0.135000
      7 CD2         0.4450   -1.9390   -2.5990 ca        1 B40     -0.135000
      8 CE1         1.9350   -0.4460   -4.4270 ca        1 B40     -0.113500
      9 CE2         0.0800   -1.9170   -3.9440 ca        1 B40     -0.113500
     10 CZ          0.8220   -1.1690   -4.8590 ca        1 B40     -0.099000
     11 CM         -0.4330    1.5580    0.1420 c3        1 B40      0.080100
     12 HN         -0.2510   -0.0980   -1.0800 hn        1 B40      0.457300
     13 HA          1.9780    0.9000   -0.4130 hx        1 B40      0.108700
     14 H           1.6010    0.7730    2.0890 hc        1 B40      0.078033
     15 HB          1.4470   -1.0380    1.9850 hc        1 B40      0.078033
     16 HC          3.0100   -0.2310    1.5580 hc        1 B40      0.078033
     17 HBA         3.0900   -1.2840   -0.6530 hc        1 B40      0.091200
     18 HBB         1.5790   -2.1890   -0.2380 hc        1 B40      0.091200
     19 HD1         3.1960    0.0870   -2.7510 ha        1 B40      0.136000
     20 HD2        -0.1180   -2.5680   -1.8930 ha        1 B40      0.136000
     21 HE1         2.5320    0.1320   -5.1510 ha        1 B40      0.156000
     22 HE2        -0.7870   -2.5040   -4.2870 ha        1 B40      0.156000
     23 HZ          0.5380   -1.1600   -5.9230 ha        1 B40      0.159000
     24 HM         -0.1290    1.8650    1.1790 hx        1 B40      0.107033
     25 HMA        -1.5520    1.6180    0.0460 hx        1 B40      0.107033
     26 HMB         0.0430    2.2480   -0.6050 hx        1 B40      0.107033
     27 HN3        -0.4770   -0.4660    0.5300 hn        1 B40      0.457300
@<TRIPOS>BOND
     1    1    2 1   
     2    1   11 1   
     3    1   12 1   
     4    1   27 1   
     5    2    3 1   
     6    2    4 1   
     7    2   13 1   
     8    3   14 1   
     9    3   15 1   
    10    3   16 1   
    11    4    5 1   
    12    4   17 1   
    13    4   18 1   
    14    5    6 ar  
    15    5    7 ar  
    16    6    8 ar  
    17    6   19 1   
    18    7    9 ar  
    19    7   20 1   
    20    8   10 ar  
    21    8   21 1   
    22    9   10 ar  
    23    9   22 1   
    24   10   23 1   
    25   11   24 1   
    26   11   25 1   
    27   11   26 1   
@<TRIPOS>SUBSTRUCTURE
     1 B40         1 TEMP              0 ****  ****    0 ROOT
