@<TRIPOS>MOLECULE
B41
   29    30     1     0     0
SMALL
bcc


@<TRIPOS>ATOM
      1 O1         -2.6030   -1.3110   -0.7020 os        1 B41     -0.335900
      2 O2         -3.5630    0.4700    0.4710 os        1 B41     -0.336900
      3 N           2.6070   -1.2960    0.0550 n3        1 B41     -0.821200
      4 CA          2.7970    0.1470    0.1170 c3        1 B41      0.173500
      5 C           4.2330    0.6190   -0.1270 c3        1 B41     -0.132100
      6 CB          1.8800    0.8750   -0.8870 c3        1 B41     -0.029100
      7 CG          0.4450    0.8060   -0.4960 ca        1 B41     -0.070300
      8 CD1        -0.3100   -0.3330   -0.8560 ca        1 B41     -0.087000
      9 CD2        -0.1360    1.8650    0.2050 ca        1 B41     -0.135000
     10 CE1        -1.6370   -0.3330   -0.4790 ca        1 B41      0.051100
     11 CE2        -1.4890    1.8610    0.5880 ca        1 B41     -0.115000
     12 CZ         -2.2200    0.7480    0.2320 ca        1 B41      0.051100
     13 CT         -3.8290   -0.8290   -0.1060 c3        1 B41      0.321200
     14 HN          2.9730   -1.6530   -0.8080 hn        1 B41      0.355800
     15 HA          2.4950    0.4760    1.1570 h1        1 B41      0.062700
     16 H           4.5510    0.3960   -1.1730 hc        1 B41      0.038700
     17 HB          4.3010    1.7200    0.0380 hc        1 B41      0.038700
     18 HC          4.9390    0.1150    0.5760 hc        1 B41      0.038700
     19 HBA         2.2060    1.9490   -0.9320 hc        1 B41      0.050200
     20 HBB         2.0160    0.4410   -1.9130 hc        1 B41      0.050200
     21 HD1         0.1460   -1.1750   -1.3910 ha        1 B41      0.162000
     22 HD2         0.4790    2.7390    0.4710 ha        1 B41      0.134000
     23 HE2        -1.9330    2.6990    1.1380 ha        1 B41      0.152000
     24 HM          2.6410   -1.6690    2.1160 h1        1 B41      0.030033
     25 HMA         2.9060   -3.1110    1.0320 h1        1 B41      0.030033
     26 HMB         4.2520   -1.9130    1.3060 h1        1 B41      0.030033
     27 HT         -4.5950   -0.7110   -0.9120 h2        1 B41      0.069700
     28 HTA        -4.1290   -1.5290    0.7120 h2        1 B41      0.069700
     29 CM          3.1390   -2.0230    1.1750 c3        1 B41      0.154100
@<TRIPOS>BOND
     1    1   10 1   
     2    1   13 1   
     3    2   12 1   
     4    2   13 1   
     5    3    4 1   
     6    3   14 1   
     7    3   29 1   
     8    4    5 1   
     9    4    6 1   
    10    4   15 1   
    11    5   16 1   
    12    5   17 1   
    13    5   18 1   
    14    6    7 1   
    15    6   19 1   
    16    6   20 1   
    17    7    8 ar  
    18    7    9 ar  
    19    8   10 ar  
    20    8   21 1   
    21    9   11 ar  
    22    9   22 1   
    23   10   12 ar  
    24   11   12 ar  
    25   11   23 1   
    26   13   27 1   
    27   13   28 1   
    28   24   29 1   
    29   25   29 1   
    30   26   29 1   
@<TRIPOS>SUBSTRUCTURE
     1 B41         1 TEMP              0 ****  ****    0 ROOT
