@<TRIPOS>MOLECULE
B41
   30    28     1     0     0
SMALL
bcc


@<TRIPOS>ATOM
      1 O1          0.1870   -0.7550   -0.1340 oh        1 B41     -0.252000
      2 O2          0.5920    0.6180    2.5780 os        1 B41     -0.071000
      3 N           3.2610   -2.5110   -3.7770 n3        1 B41     -0.361000
      4 CA          4.4260   -0.6910   -2.0180 c1        1 B41      0.213000
      5 C           6.6210   -1.2200   -3.3220 c3        1 B41     -0.303000
      6 CB          4.7170    0.1890   -1.1180 c2        1 B41     -0.196000
      7 CG          3.6480    0.7290   -0.1980 c3        1 B41      0.033000
      8 CD1         2.3040    0.1700   -0.6070 c2        1 B41     -0.350000
      9 CD2         3.9780    0.2830    1.2160 c2        1 B41     -0.103000
     10 CE1         1.3380   -0.1890    0.2910 c2        1 B41      0.168000
     11 CE2         2.8960    0.2550    1.9710 c1        1 B41     -0.097000
     12 CZ          1.5930    0.1860    1.7080 c2        1 B41      0.047000
     13 CT         -0.6310    0.2260    2.2660 c1        1 B41     -0.066000
     14 HA          4.0420   -1.4730   -2.7740 ha        1 B41      0.346000
     15 H           6.5730   -1.5370   -2.2540 hc        1 B41      0.084750
     16 HB          6.1030   -1.9670   -3.9640 hc        1 B41      0.084750
     17 HC          7.6950   -1.1700   -3.6190 hc        1 B41      0.084750
     18 HBA         6.1740   -0.2100   -3.4730 hc        1 B41      0.084750
     19 HBB         5.7340    0.6090   -0.9500 ha        1 B41      0.253000
     20 HD1         2.0830    0.1470   -1.6830 ha        1 B41      0.157000
     21 HD2         3.6400    1.8540   -0.3130 hc        1 B41      0.165000
     22 HE2         4.9800   -0.0650    1.4800 ha        1 B41      0.179000
     23 HM          3.4810   -4.1270   -2.4510 h1        1 B41      0.099667
     24 HMA         3.2270   -4.6210   -4.1840 h1        1 B41      0.099667
     25 HMB         4.8230   -3.9110   -3.6710 h1        1 B41      0.099667
     26 HT         -0.4890   -0.6930    0.5960 ho        1 B41      0.301000
     27 HTA        -1.3290    0.6060    3.0460 ha        1 B41      0.110000
     28 CM          3.7130   -3.8590   -3.5160 c3        1 B41     -0.166000
     29 HN2         2.2710   -2.4330   -3.6210 hn        1 B41      0.177500
     30 HN          3.4530   -2.2530   -4.7290 hn        1 B41      0.177500
@<TRIPOS>BOND
     1    1   10 1   
     2    1   26 1   
     3    2   12 1   
     4    2   13 1   
     5    3   28 1   
     6    3   29 1   
     7    3   30 1   
     8    4    6 1   
     9    4   14 1   
    10    5   15 1   
    11    5   16 1   
    12    5   17 1   
    13    5   18 1   
    14    6    7 1   
    15    6   19 1   
    16    7    8 1   
    17    7    9 1   
    18    7   21 1   
    19    8   10 1   
    20    8   20 1   
    21    9   11 1   
    22    9   22 1   
    23   10   12 1   
    24   11   12 1   
    25   13   27 1   
    26   23   28 1   
    27   24   28 1   
    28   25   28 1   
@<TRIPOS>SUBSTRUCTURE
     1 B41         1 TEMP              0 ****  ****    0 ROOT
