@<TRIPOS>MOLECULE
B41
   30    30     1     0     0
SMALL
bcc


@<TRIPOS>ATOM
      1 O1          0.1620   -0.6890   -0.7480 oh        1 B41     -0.269000
      2 O2          0.8320    0.1300    2.1260 os        1 B41     -0.066000
      3 N           3.6690   -2.0440   -2.5390 ny        1 B41     -0.041000
      4 CA          4.9530   -1.3490   -2.1540 c3        1 B41     -0.069000
      5 C           6.0290   -1.5190   -3.2200 c3        1 B41     -0.251000
      6 CB          4.7310    0.1480   -1.9000 c3        1 B41     -0.171000
      7 CG          3.7390    0.4970   -0.8010 c3        1 B41     -0.057000
      8 CD1         2.3260    0.1430   -1.1990 c2        1 B41     -0.345000
      9 CD2         4.0930   -0.2140    0.4870 c2        1 B41     -0.111000
     10 CE1         1.3790   -0.2900   -0.3120 c2        1 B41      0.138000
     11 CE2         3.0600   -0.2960    1.3080 c1        1 B41     -0.112000
     12 CZ          1.7440   -0.2150    1.1270 c2        1 B41      0.032000
     13 CT         -0.4370   -0.0710    1.8210 c1        1 B41     -0.075000
     14 HA          5.7150   -1.0730   -4.1950 hc        1 B41      0.116667
     15 H           5.2950   -1.8430   -1.1950 hx        1 B41      0.145000
     16 HB          6.9540   -0.9890   -2.8770 hc        1 B41      0.116667
     17 HC          6.2880   -2.5940   -3.3750 hc        1 B41      0.116667
     18 HBA         5.7350    0.5720   -1.6170 hc        1 B41      0.127500
     19 HBB         4.4110    0.6510   -2.8520 hc        1 B41      0.127500
     20 HD1         2.0340    0.3880   -2.2300 ha        1 B41      0.159000
     21 HD2         3.7780    1.6210   -0.6640 hc        1 B41      0.154000
     22 HE2         5.0840   -0.6530    0.6350 ha        1 B41      0.167000
     23 HM          4.1420   -3.8860   -1.5690 hx        1 B41      0.145333
     24 HMA         4.5210   -3.8270   -3.3610 hx        1 B41      0.145333
     25 HMB         2.7810   -3.9600   -2.7960 hx        1 B41      0.145333
     26 HT         -0.4790   -0.6490    0.0180 ho        1 B41      0.304000
     27 HTA        -1.0590    0.2180    2.6980 ha        1 B41      0.110000
     28 CM          3.7890   -3.5150   -2.5680 c3        1 B41     -0.197000
     29 HN2         3.3770   -1.7030   -3.4620 hn        1 B41      0.257000
     30 HN          2.9380   -1.7710   -1.8550 hn        1 B41      0.257000
@<TRIPOS>BOND
     1    1   10 1   
     2    1   26 1   
     3    2   12 1   
     4    2   13 1   
     5    3    4 1   
     6    3   28 1   
     7    3   29 1   
     8    3   30 1   
     9    4    5 1   
    10    4    6 1   
    11    4   15 1   
    12    5   14 1   
    13    5   16 1   
    14    5   17 1   
    15    6    7 1   
    16    6   18 1   
    17    6   19 1   
    18    7    8 1   
    19    7    9 1   
    20    7   21 1   
    21    8   10 1   
    22    8   20 1   
    23    9   11 1   
    24    9   22 1   
    25   10   12 1   
    26   11   12 1   
    27   13   27 1   
    28   23   28 1   
    29   24   28 1   
    30   25   28 1   
@<TRIPOS>SUBSTRUCTURE
     1 B41         1 TEMP              0 ****  ****    0 ROOT
