@<TRIPOS>MOLECULE
B41
   30    27     1     0     0
SMALL
bcc


@<TRIPOS>ATOM
      1 O1          0.0040   -0.7000   -1.1340 oh        1 B41     -0.305000
      2 O2          1.2880   -0.2160    1.6270 os        1 B41     -0.107000
      3 N           2.1970   -2.5270   -2.2650 n3        1 B41     -0.173000
      4 CA          6.8190   -1.3270   -2.2030 c2        1 B41     -0.203000
      5 C           7.7800   -0.9870   -3.0590 c2        1 B41     -0.161000
      6 CB          6.3200   -0.4180   -1.1400 c3        1 B41     -0.188000
      7 CG          4.8840   -0.4880   -0.9420 c2        1 B41      0.064000
      8 CD1         0.1870    1.6670   -1.0890 c2        1 B41     -0.148000
      9 CD2         4.1960    0.5490   -0.2550 c2        1 B41     -0.171000
     10 CE1         0.5700    0.4650   -0.6450 c2        1 B41     -0.002000
     11 CE2         2.9250    0.3960    0.0690 c1        1 B41      0.015000
     12 CZ          1.6510    0.2350    0.3310 c2        1 B41      0.085000
     13 CT          0.1790   -0.9310    1.6830 c1        1 B41     -0.043000
     14 HA          1.7090   -3.2730   -2.7290 hn        1 B41      0.244000
     15 H           6.3490   -2.3250   -2.2250 ha        1 B41      0.132000
     16 HB          8.2670   -0.0010   -3.0570 ha        1 B41      0.133000
     17 HC          8.1500   -1.6850   -3.8240 ha        1 B41      0.133000
     18 HBA         6.7870   -0.7320   -0.1460 hc        1 B41      0.161500
     19 HBB         6.6730    0.6420   -1.3100 hc        1 B41      0.161500
     20 HD1        -0.6440    1.7740   -1.8030 ha        1 B41      0.154500
     21 HD2         0.6810    2.5950   -0.7710 ha        1 B41      0.154500
     22 HE2         4.7190    1.4960   -0.0060 ha        1 B41      0.176000
     23 HM          4.0670   -3.3910   -2.4030 ha        1 B41      0.124000
     24 HMA         1.6140   -1.7630   -1.9680 hn        1 B41      0.244000
     25 HMB         2.2710   -5.3970   -3.7440 ha        1 B41      0.001500
     26 HT         -0.5080   -1.0960   -0.3980 ho        1 B41      0.268000
     27 HTA         0.0050   -1.1950    2.7540 ha        1 B41      0.103000
     28 CM          3.4710   -2.5230   -2.0550 c1        1 B41     -0.178000
     29 HN2         2.8080   -5.0800   -3.4770 ha        1 B41      0.001500
     30 HN          4.2040   -1.4780   -1.4350 ha        1 B41      0.323000
@<TRIPOS>BOND
     1    1   10 1   
     2    1   26 1   
     3    2   12 1   
     4    2   13 1   
     5    3   14 1   
     6    3   24 1   
     7    3   28 1   
     8    4    5 1   
     9    4    6 1   
    10    4   15 1   
    11    5   16 1   
    12    5   17 1   
    13    6    7 1   
    14    6   18 1   
    15    6   19 1   
    16    7    9 1   
    17    7   30 1   
    18    8   10 1   
    19    8   20 1   
    20    8   21 1   
    21    9   11 1   
    22    9   22 1   
    23   10   12 1   
    24   11   12 1   
    25   13   27 1   
    26   23   28 1   
    27   25   29 1   
@<TRIPOS>SUBSTRUCTURE
     1 B41         1 TEMP              0 ****  ****    0 ROOT
