@<TRIPOS>MOLECULE
B41
   29    29     1     0     0
SMALL
bcc


@<TRIPOS>ATOM
      1 O1         -3.8030    0.8440    1.0650 os        1 B41     -0.219000
      2 O2         -3.1100    0.8310    3.1940 os        1 B41     -0.220000
      3 N           1.1830   -0.9770   -2.4050 n3        1 B41     -0.300000
      4 CA          1.6230   -0.4880   -1.1120 c3        1 B41     -0.024000
      5 C           3.1110   -0.3890   -1.0850 c3        1 B41     -0.250000
      6 CB          1.0020    0.9030   -0.8530 c3        1 B41     -0.115000
      7 CG         -0.0480    0.7950    0.3050 c2        1 B41     -0.063000
      8 CD1        -1.4290    0.8190    0.0060 c2        1 B41     -0.087000
      9 CD2         0.3740    0.7820    1.6170 c1        1 B41     -0.135000
     10 CE1        -2.3820    0.8310    1.0650 c2        1 B41      0.006000
     11 CE2        -0.5750    0.7940    2.6620 c1        1 B41     -0.115000
     12 CZ         -1.9630    0.8180    2.3650 c2        1 B41      0.006000
     13 CM          1.2040   -2.4190   -2.4060 c3        1 B41     -0.122000
     14 CT         -4.2290    0.8500    2.3780 c3        1 B41      0.099000
     15 HN          1.7390   -0.6620   -3.0580 hn        1 B41      0.151000
     16 HA          1.3330   -1.1100   -0.4150 h1        1 B41      0.102000
     17 H           3.4970   -1.2770   -1.1940 hc        1 B41      0.078000
     18 HB          3.4060   -0.0010   -0.1960 hc        1 B41      0.078000
     19 HC          3.4410    0.2400   -1.8740 hc        1 B41      0.078000
     20 HBA         0.5530    1.2210   -1.6770 hc        1 B41      0.089500
     21 HBB         1.6940    1.5270   -0.6040 hc        1 B41      0.089500
     22 HD1        -1.7570    0.9370   -1.0200 ha        1 B41      0.162000
     23 HD2         1.3420    0.7950    1.8270 ha        1 B41      0.134000
     24 HE2        -0.2710    0.7850    3.6020 ha        1 B41      0.152000
     25 HM          0.7620   -2.7650   -3.2590 h1        1 B41      0.069333
     26 HMA         0.7440   -2.7350   -1.6700 h1        1 B41      0.069333
     27 HMB         2.1160   -2.7280   -2.3710 h1        1 B41      0.069333
     28 HT         -4.7830    1.7150    2.5660 h2        1 B41      0.109000
     29 HTA        -4.7740    0.0660    2.5470 h2        1 B41      0.109000
@<TRIPOS>BOND
     1    1   10 1   
     2    1   14 1   
     3    2   12 1   
     4    2   14 1   
     5    3    4 1   
     6    3   13 1   
     7    3   15 1   
     8    4    5 1   
     9    4    6 1   
    10    4   16 1   
    11    5   17 1   
    12    5   18 1   
    13    5   19 1   
    14    6    7 1   
    15    6   20 1   
    16    6   21 1   
    17    7    8 1   
    18    7    9 1   
    19    8   10 1   
    20    8   22 1   
    21    9   23 1   
    22   10   12 1   
    23   11   12 1   
    24   11   24 1   
    25   13   25 1   
    26   13   26 1   
    27   13   27 1   
    28   14   28 1   
    29   14   29 1   
@<TRIPOS>SUBSTRUCTURE
     1 B41         1 TEMP              0 ****  ****    0 ROOT
