@<TRIPOS>MOLECULE
B42
   70    73     1     0     0
SMALL
bcc


@<TRIPOS>ATOM
      1 O33         0.1760    2.4100    0.7500 o         1 B42     -0.651300
      2 S36         1.3320    1.6110    0.6610 s6        1 B42      1.470900
      3 O32         2.2820    1.7440    1.6930 o         1 B42     -0.651300
      4 C21         0.8420   -0.0120    0.5890 c3        1 B42     -0.372300
      5 N28         2.1030    1.8400   -0.7530 nu        1 B42     -0.784500
      6 C5          1.5200    1.9620   -2.0270 ca        1 B42      0.103600
      7 C2          0.3280    2.7000   -2.2240 ca        1 B42     -0.083000
      8 C3          2.1270    1.3670   -3.1460 ca        1 B42     -0.025000
      9 C6          1.5810    1.4730   -4.4250 ca        1 B42     -0.373500
     10 S35         2.4130    0.7030   -5.7150 sy        1 B42      1.585700
     11 O30         3.7010    1.2570   -5.8090 o         1 B42     -0.653800
     12 O31         2.4000   -0.6860   -5.4850 o         1 B42     -0.653800
     13 N26         1.4780    1.1130   -6.9330 ne        1 B42     -0.994300
     14 C9          0.3740    1.8110   -7.0210 cf        1 B42      0.940500
     15 N25        -0.2210    2.3180   -5.8650 nu        1 B42     -0.729600
     16 C4          0.3830    2.2000   -4.6030 ca        1 B42      0.223600
     17 C1         -0.2320    2.8110   -3.4840 ca        1 B42     -0.164000
     18 C7         -0.2950    2.0190   -8.3220 cf        1 B42     -0.434800
     19 C10        -1.3900    3.0210   -8.4260 c         1 B42      0.736700
     20 O29        -1.4940    3.9900   -7.6390 o         1 B42     -0.672500
     21 N27        -2.3260    2.8560   -9.4400 n         1 B42     -0.459800
     22 C16        -3.3680    3.8430   -9.6510 c3        1 B42      0.098700
     23 C14        -4.7760    3.2400   -9.8530 c3        1 B42     -0.094400
     24 C12        -5.5400    4.2390  -10.7070 c3        1 B42     -0.079900
     25 C13        -3.1430    4.7830  -10.8580 c3        1 B42     -0.094400
     26 C11        -4.5170    5.1160  -11.4170 c3        1 B42     -0.079900
     27 C15        -2.1470    1.8140  -10.4170 c3        1 B42      0.092000
     28 C17        -0.6680    1.5210  -10.7660 c3        1 B42     -0.048800
     29 C18        -0.6350    0.2450  -11.5950 c3        1 B42     -0.087100
     30 C8          0.0860    1.3430   -9.4610 c2        1 B42      0.287900
     31 O34         1.1050    0.4770   -9.5870 oh        1 B42     -0.472100
     32 C22        -0.0760    2.6940  -11.5520 c3        1 B42     -0.072400
     33 C23         1.3220    2.4320  -12.0690 c3        1 B42     -0.082400
     34 C24         2.0040    3.7090  -12.5420 c3        1 B42     -0.066700
     35 C20         3.4690    3.4360  -12.8170 c3        1 B42     -0.091600
     36 C19         1.3340    4.2710  -13.7770 c3        1 B42     -0.091600
     37 H21         1.6960   -0.7330    0.6190 h1        1 B42      0.119700
     38 H21A        0.1940   -0.2620    1.4680 h1        1 B42      0.119700
     39 H21B        0.2410   -0.2680   -0.3170 h1        1 B42      0.119700
     40 HN28        3.0990    1.8740   -0.7770 hn        1 B42      0.462800
     41 H2         -0.1740    3.1910   -1.3680 ha        1 B42      0.180000
     42 H3          3.0710    0.8020   -3.0310 ha        1 B42      0.154000
     43 HN25       -0.9990    2.9440   -5.9440 hn        1 B42      0.488800
     44 H1         -1.1600    3.3920   -3.6070 ha        1 B42      0.151000
     45 H16        -3.4030    4.4870   -8.7190 h1        1 B42      0.095700
     46 H14        -4.7300    2.2480  -10.3670 hc        1 B42      0.049450
     47 H14A       -5.2730    3.0840   -8.8650 hc        1 B42      0.049450
     48 H12        -6.2060    4.8670  -10.0630 hc        1 B42      0.045700
     49 H12A       -6.1930    3.7100  -11.4440 hc        1 B42      0.045700
     50 H13        -2.5080    4.2990  -11.6430 hc        1 B42      0.049450
     51 H13A       -2.6080    5.7050  -10.5210 hc        1 B42      0.049450
     52 H11        -4.5420    4.9340  -12.5210 hc        1 B42      0.045700
     53 H11A       -4.7540    6.1980  -11.2560 hc        1 B42      0.045700
     54 H15        -2.6110    0.8640  -10.0200 h1        1 B42      0.062200
     55 H15A       -2.6830    2.0910  -11.3690 h1        1 B42      0.062200
     56 H18        -1.1190   -0.5940  -11.0400 hc        1 B42      0.054700
     57 H18A       -1.1760    0.4070  -12.5570 hc        1 B42      0.054700
     58 H18B        0.4210   -0.0460  -11.8160 hc        1 B42      0.054700
     59 HO34        1.6050    0.3870   -8.7450 ho        1 B42      0.492000
     60 H22        -0.7580    2.9070  -12.4190 hc        1 B42      0.055700
     61 H22A       -0.0710    3.6060  -10.8980 hc        1 B42      0.055700
     62 H23         1.9420    1.9640  -11.2570 hc        1 B42      0.051200
     63 H23A        1.2810    1.7000  -12.9180 hc        1 B42      0.051200
     64 H24         1.9360    4.4760  -11.7190 hc        1 B42      0.049700
     65 H20         3.9790    3.0680  -11.8950 hc        1 B42      0.035700
     66 H20A        3.5810    2.6630  -13.6160 hc        1 B42      0.035700
     67 H20B        3.9790    4.3700  -13.1550 hc        1 B42      0.035700
     68 H19         0.2720    4.5380  -13.5600 hc        1 B42      0.035700
     69 H19A        1.3490    3.5240  -14.6080 hc        1 B42      0.035700
     70 H19B        1.8670    5.1910  -14.1200 hc        1 B42      0.035700
@<TRIPOS>BOND
     1    1    2 2   
     2    2    3 2   
     3    2    4 1   
     4    2    5 1   
     5    4   37 1   
     6    4   38 1   
     7    4   39 1   
     8    5    6 1   
     9    5   40 1   
    10    6    7 ar  
    11    6    8 ar  
    12    7   17 ar  
    13    7   41 1   
    14    8    9 ar  
    15    8   42 1   
    16    9   10 1   
    17    9   16 ar  
    18   10   11 2   
    19   10   12 2   
    20   10   13 1   
    21   13   14 2   
    22   14   15 1   
    23   14   18 1   
    24   15   16 1   
    25   15   43 1   
    26   16   17 ar  
    27   17   44 1   
    28   18   19 1   
    29   18   30 2   
    30   19   20 2   
    31   19   21 1   
    32   21   22 1   
    33   21   27 1   
    34   22   23 1   
    35   22   25 1   
    36   22   45 1   
    37   23   24 1   
    38   23   46 1   
    39   23   47 1   
    40   24   26 1   
    41   24   48 1   
    42   24   49 1   
    43   25   26 1   
    44   25   50 1   
    45   25   51 1   
    46   26   52 1   
    47   26   53 1   
    48   27   28 1   
    49   27   54 1   
    50   27   55 1   
    51   28   29 1   
    52   28   30 1   
    53   28   32 1   
    54   29   56 1   
    55   29   57 1   
    56   29   58 1   
    57   30   31 1   
    58   31   59 1   
    59   32   33 1   
    60   32   60 1   
    61   32   61 1   
    62   33   34 1   
    63   33   62 1   
    64   33   63 1   
    65   34   35 1   
    66   34   36 1   
    67   34   64 1   
    68   35   65 1   
    69   35   66 1   
    70   35   67 1   
    71   36   68 1   
    72   36   69 1   
    73   36   70 1   
@<TRIPOS>SUBSTRUCTURE
     1 B42         1 TEMP              0 ****  ****    0 ROOT
