@<TRIPOS>MOLECULE
B42
   70    73     1     0     0
SMALL
bcc


@<TRIPOS>ATOM
      1 O33         6.9910    2.2940   -1.2790 o         1 B42     -0.651300
      2 S36         7.4060    1.0490   -0.7690 s6        1 B42      1.470900
      3 O32         8.5920    0.5030   -1.2970 o         1 B42     -0.651300
      4 C21         7.5890    1.2070    0.9110 c3        1 B42     -0.372300
      5 N28         6.2360   -0.0720   -0.9200 nh        1 B42     -0.784500
      6 C5          4.8610    0.0980   -0.6790 ca        1 B42      0.103600
      7 C2          4.1850    1.2790   -1.0720 ca        1 B42     -0.083000
      8 C3          4.1180   -0.9190   -0.0570 ca        1 B42     -0.025000
      9 C6          2.7510   -0.7870    0.1930 ca        1 B42     -0.373500
     10 S35         1.9490   -2.0970    0.9600 sy        1 B42      1.585700
     11 O30         2.0750   -3.2360    0.1450 o         1 B42     -0.653800
     12 O31         2.4880   -2.2520    2.2510 o         1 B42     -0.653800
     13 N26         0.4650   -1.5300    0.9980 ne        1 B42     -0.994300
     14 C9         -0.0760   -0.4060    0.6040 cf        1 B42      0.940500
     15 N25         0.7260    0.5960    0.0560 nh        1 B42     -0.729600
     16 C4          2.0950    0.4030   -0.1920 ca        1 B42      0.223600
     17 C1          2.8320    1.4300   -0.8280 ca        1 B42     -0.164000
     18 C7         -1.5200   -0.1480    0.7880 cf        1 B42     -0.434800
     19 C10        -2.1450    1.0170    0.1050 c         1 B42      0.736700
     20 O29        -1.6660    1.5250   -0.9350 o         1 B42     -0.672500
     21 N27        -3.3030    1.5480    0.6590 n         1 B42     -0.459800
     22 C16        -4.0100    2.6270   -0.0040 c3        1 B42      0.098700
     23 C14        -4.4330    3.7770    0.9380 c3        1 B42     -0.094400
     24 C12        -5.6700    4.3980    0.3100 c3        1 B42     -0.079900
     25 C13        -5.3000    2.2050   -0.7450 c3        1 B42     -0.094400
     26 C11        -6.2670    3.3730   -0.6440 c3        1 B42     -0.079900
     27 C15        -3.9230    0.8970    1.7830 c3        1 B42      0.092000
     28 C17        -3.7860   -0.6440    1.7780 c3        1 B42     -0.048800
     29 C18        -4.2510   -1.1520    3.1350 c3        1 B42     -0.087100
     30 C8         -2.3230   -0.9740    1.5440 c2        1 B42      0.287900
     31 O34        -1.9660   -2.1150    2.1550 oh        1 B42     -0.472100
     32 C22        -4.6390   -1.2380    0.6530 c3        1 B42     -0.072400
     33 C23        -4.6880   -2.7510    0.6660 c3        1 B42     -0.082400
     34 C24        -5.2470   -3.3150   -0.6330 c3        1 B42     -0.066700
     35 C20        -5.0510   -4.8170   -0.6670 c3        1 B42     -0.091600
     36 C19        -6.7130   -2.9740   -0.7990 c3        1 B42     -0.091600
     37 H21         6.6420    1.4430    1.4550 h1        1 B42      0.119700
     38 H21A        8.0150    0.2940    1.3960 h1        1 B42      0.119700
     39 H21B        8.2970    2.0420    1.1490 h1        1 B42      0.119700
     40 HN28        6.4710   -1.0050   -1.1820 hn        1 B42      0.462800
     41 H2          4.7350    2.0980   -1.5740 ha        1 B42      0.180000
     42 H3          4.6110   -1.8620    0.2440 ha        1 B42      0.154000
     43 HN25        0.2970    1.4070   -0.3470 hn        1 B42      0.488800
     44 H1          2.3320    2.3600   -1.1460 ha        1 B42      0.151000
     45 H16        -3.3000    3.0600   -0.7740 h1        1 B42      0.095700
     46 H14        -4.6670    3.4030    1.9660 hc        1 B42      0.049450
     47 H14A       -3.6040    4.5210    1.0320 hc        1 B42      0.049450
     48 H12        -6.4080    4.6890    1.0980 hc        1 B42      0.045700
     49 H12A       -5.3940    5.3300   -0.2460 hc        1 B42      0.045700
     50 H13        -5.0600    1.9680   -1.8110 hc        1 B42      0.049450
     51 H13A       -5.7510    1.2840   -0.2950 hc        1 B42      0.049450
     52 H11        -7.2630    3.0230   -0.2720 hc        1 B42      0.045700
     53 H11A       -6.4350    3.8320   -1.6510 hc        1 B42      0.045700
     54 H15        -3.4520    1.2910    2.7320 h1        1 B42      0.062200
     55 H15A       -5.0210    1.1520    1.8100 h1        1 B42      0.062200
     56 H18        -5.3330   -0.9170    3.2730 hc        1 B42      0.054700
     57 H18A       -4.1080   -2.2590    3.2030 hc        1 B42      0.054700
     58 H18B       -3.6640   -0.6720    3.9540 hc        1 B42      0.054700
     59 HO34       -1.0240   -2.3370    1.9780 ho        1 B42      0.492000
     60 H22        -5.6810   -0.8320    0.7600 hc        1 B42      0.055700
     61 H22A       -4.2400   -0.8820   -0.3340 hc        1 B42      0.055700
     62 H23        -3.6530   -3.1590    0.8270 hc        1 B42      0.051200
     63 H23A       -5.3200   -3.1020    1.5230 hc        1 B42      0.051200
     64 H24        -4.6760   -2.8630   -1.4940 hc        1 B42      0.049700
     65 H20        -5.5860   -5.3020    0.1840 hc        1 B42      0.035700
     66 H20A       -5.4500   -5.2360   -1.6220 hc        1 B42      0.035700
     67 H20B       -3.9660   -5.0710   -0.5950 hc        1 B42      0.035700
     68 H19        -6.8550   -1.8670   -0.8440 hc        1 B42      0.035700
     69 H19A       -7.1080   -3.4190   -1.7440 hc        1 B42      0.035700
     70 H19B       -7.3100   -3.3740    0.0560 hc        1 B42      0.035700
@<TRIPOS>BOND
     1    1    2 2   
     2    2    3 2   
     3    2    4 1   
     4    2    5 1   
     5    4   37 1   
     6    4   38 1   
     7    4   39 1   
     8    5    6 1   
     9    5   40 1   
    10    6    7 ar  
    11    6    8 ar  
    12    7   17 ar  
    13    7   41 1   
    14    8    9 ar  
    15    8   42 1   
    16    9   10 1   
    17    9   16 ar  
    18   10   11 2   
    19   10   12 2   
    20   10   13 1   
    21   13   14 2   
    22   14   15 1   
    23   14   18 1   
    24   15   16 1   
    25   15   43 1   
    26   16   17 ar  
    27   17   44 1   
    28   18   19 1   
    29   18   30 2   
    30   19   20 2   
    31   19   21 1   
    32   21   22 1   
    33   21   27 1   
    34   22   23 1   
    35   22   25 1   
    36   22   45 1   
    37   23   24 1   
    38   23   46 1   
    39   23   47 1   
    40   24   26 1   
    41   24   48 1   
    42   24   49 1   
    43   25   26 1   
    44   25   50 1   
    45   25   51 1   
    46   26   52 1   
    47   26   53 1   
    48   27   28 1   
    49   27   54 1   
    50   27   55 1   
    51   28   29 1   
    52   28   30 1   
    53   28   32 1   
    54   29   56 1   
    55   29   57 1   
    56   29   58 1   
    57   30   31 1   
    58   31   59 1   
    59   32   33 1   
    60   32   60 1   
    61   32   61 1   
    62   33   34 1   
    63   33   62 1   
    64   33   63 1   
    65   34   35 1   
    66   34   36 1   
    67   34   64 1   
    68   35   65 1   
    69   35   66 1   
    70   35   67 1   
    71   36   68 1   
    72   36   69 1   
    73   36   70 1   
@<TRIPOS>SUBSTRUCTURE
     1 B42         1 TEMP              0 ****  ****    0 ROOT
