@<TRIPOS>MOLECULE
B42
   70    68     1     0     0
SMALL
bcc


@<TRIPOS>ATOM
      1 O33        -0.8680    7.3840   -4.6360 o         1 B42     -0.930500
      2 S36        -2.1300    7.4540   -3.9530 ss        1 B42      2.826000
      3 O32        -2.9860    6.7650   -4.8780 o         1 B42     -0.930500
      4 C21        -2.6470    9.1340   -3.7270 c2        1 B42     -0.952000
      5 N28        -2.0680    6.6780   -2.5080 n2        1 B42     -0.834000
      6 C5         -1.5670    5.3520   -2.4350 c2        1 B42      0.025000
      7 C2         -0.5080    4.7080   -3.0610 c2        1 B42     -0.086000
      8 C3         -2.2650    4.7140   -1.4170 c1        1 B42     -0.027000
      9 C6         -1.9020    3.4210   -1.0220 c1        1 B42     -0.816000
     10 S35        -2.7210    2.6530    0.2720 s4        1 B42      2.074800
     11 O30        -4.0970    2.5110   -0.1160 o         1 B42     -0.541900
     12 O31        -2.6530    3.4740    1.4490 o         1 B42     -0.541900
     13 N26        -2.1220    1.2370    0.6520 n1        1 B42     -0.967000
     14 C9         -0.9760    0.7360   -0.0510 c1        1 B42      0.404000
     15 N25        -0.5890    1.3290   -1.3650 n3        1 B42     -0.289000
     16 C4         -0.8530    2.7820   -1.6430 c2        1 B42      0.138000
     17 C1         -0.1480    3.4280   -2.6710 c2        1 B42     -0.163000
     18 C7         -0.2280   -0.4680    0.4840 c1        1 B42     -0.323000
     19 C10         0.6420   -0.3380    1.8000 c2        1 B42      0.382000
     20 O29         0.7610    0.7400    2.3440 o         1 B42     -0.400000
     21 N27         0.9350   -1.5450    2.5240 n         1 B42     -0.324000
     22 C16         1.8240   -1.5120    3.6230 c3        1 B42      0.044000
     23 C14         1.1880   -1.0640    4.7190 c3        1 B42     -0.173500
     24 C12         1.4390    0.5270    4.7280 c3        1 B42     -0.155000
     25 C13         3.0680   -0.4260    3.3280 c3        1 B42     -0.173500
     26 C11         2.5820    0.7930    3.6280 c3        1 B42     -0.155000
     27 C15         0.0830   -2.6010    2.3650 c3        1 B42     -0.017000
     28 C17        -0.1920   -3.0530    0.9690 c3        1 B42     -0.046000
     29 C18        -1.2210   -4.2670    0.9710 c3        1 B42     -0.206000
     30 C8         -0.6680   -1.9060    0.0710 c2        1 B42      0.235000
     31 O34        -1.0650   -2.1670   -1.2530 oh        1 B42     -0.225000
     32 C22         1.0340   -3.7160    0.3630 c3        1 B42     -0.151000
     33 C23         0.6010   -4.8460   -0.5470 c3        1 B42     -0.161000
     34 C24         1.7070   -5.1510   -1.5340 c3        1 B42     -0.106000
     35 C20         2.2330   -6.5480   -1.2860 c3        1 B42     -0.210000
     36 C19         1.1640   -5.0600   -2.9430 c3        1 B42     -0.210000
     37 H21        -2.6360    9.3530   -2.7710 ha        1 B42      0.159333
     38 H21A       -3.5560    9.2460   -4.0770 ha        1 B42      0.159333
     39 H21B       -2.0360    9.7320   -4.2060 ha        1 B42      0.159333
     40 HN28       -2.3470    7.1030   -1.7510 hn        1 B42      0.258000
     41 H2         -0.0390    5.1440   -3.7980 ha        1 B42      0.180000
     42 H3         -3.0020    5.1710   -0.9700 ha        1 B42      0.154000
     43 HN25       -0.1670    0.8160   -1.9880 hn        1 B42      0.290000
     44 H1          0.5960    2.9750   -3.1110 ha        1 B42      0.152000
     45 H16         2.1890   -2.4050    3.7880 h1        1 B42      0.090000
     46 H14         1.5670   -1.4720    5.5240 hc        1 B42      0.096500
     47 H14A        0.2290   -1.2560    4.6590 hc        1 B42      0.096500
     48 H12         0.6190    1.0000    4.4840 hc        1 B42      0.083250
     49 H12A        1.7460    0.8160    5.6110 hc        1 B42      0.083250
     50 H13         3.8370   -0.6320    3.8980 hc        1 B42      0.096500
     51 H13A        3.3290   -0.4610    2.3840 hc        1 B42      0.096500
     52 H11         2.1970    1.2100    2.8330 hc        1 B42      0.083250
     53 H11A        3.2890    1.3590    4.0020 hc        1 B42      0.083250
     54 H15        -0.7730   -2.3600    2.7770 h1        1 B42      0.098000
     55 H15A        0.4530   -3.3610    2.8590 h1        1 B42      0.098000
     56 H18        -1.0240   -4.8620    0.2220 hc        1 B42      0.094000
     57 H18A       -2.1330   -3.9210    0.8820 hc        1 B42      0.094000
     58 H18B       -1.1400   -4.7630    1.8130 hc        1 B42      0.094000
     59 HO34       -1.9440   -2.0580   -1.3250 ho        1 B42      0.280000
     60 H22         1.5390   -3.0560   -0.1530 hc        1 B42      0.095000
     61 H22A        1.5990   -4.0720    1.0790 hc        1 B42      0.095000
     62 H23        -0.2060   -4.5820   -1.0330 hc        1 B42      0.089500
     63 H23A        0.4130   -5.6430   -0.0110 hc        1 B42      0.089500
     64 H24         2.4300   -4.5050   -1.4220 hc        1 B42      0.087000
     65 H20         1.4840   -7.1500   -1.0910 hc        1 B42      0.074833
     66 H20A        2.7090   -6.8640   -2.0820 hc        1 B42      0.074833
     67 H20B        2.8480   -6.5340   -0.5220 hc        1 B42      0.074833
     68 H19         1.8230   -5.4230   -3.5710 hc        1 B42      0.074833
     69 H19A        0.9840   -4.1230   -3.1640 hc        1 B42      0.074833
     70 H19B        0.3330   -5.5760   -3.0070 hc        1 B42      0.074833
@<TRIPOS>BOND
     1    1    2 1   
     2    2    3 1   
     3    4   37 1   
     4    4   38 1   
     5    4   39 1   
     6    5    6 1   
     7    5   40 1   
     8    6    7 1   
     9    6    8 1   
    10    7   17 1   
    11    7   41 1   
    12    8   42 1   
    13    9   10 1   
    14    9   16 1   
    15   10   11 1   
    16   10   12 1   
    17   13   14 1   
    18   14   15 1   
    19   15   16 1   
    20   15   43 1   
    21   16   17 1   
    22   17   44 1   
    23   18   19 1   
    24   18   30 1   
    25   19   20 1   
    26   19   21 1   
    27   21   22 1   
    28   21   27 1   
    29   22   23 1   
    30   22   25 1   
    31   22   45 1   
    32   23   24 1   
    33   23   46 1   
    34   23   47 1   
    35   24   26 1   
    36   24   48 1   
    37   24   49 1   
    38   25   26 1   
    39   25   50 1   
    40   25   51 1   
    41   26   52 1   
    42   26   53 1   
    43   27   28 1   
    44   27   54 1   
    45   27   55 1   
    46   28   29 1   
    47   28   30 1   
    48   28   32 1   
    49   29   56 1   
    50   29   57 1   
    51   29   58 1   
    52   30   31 1   
    53   31   59 1   
    54   32   33 1   
    55   32   60 1   
    56   32   61 1   
    57   33   34 1   
    58   33   62 1   
    59   33   63 1   
    60   34   35 1   
    61   34   36 1   
    62   34   64 1   
    63   35   65 1   
    64   35   66 1   
    65   35   67 1   
    66   36   68 1   
    67   36   69 1   
    68   36   70 1   
@<TRIPOS>SUBSTRUCTURE
     1 B42         1 TEMP              0 ****  ****    0 ROOT
