@<TRIPOS>MOLECULE
B42
   70    73     1     0     0
SMALL
bcc


@<TRIPOS>ATOM
      1 O33         0.1880    2.4360    0.7480 o         1 B42     -0.651300
      2 S36         1.3330    1.6230    0.6610 s6        1 B42      1.470900
      3 O32         2.2870    1.7470    1.6910 o         1 B42     -0.651300
      4 C21         0.8240    0.0050    0.5950 c3        1 B42     -0.372300
      5 N28         2.1060    1.8370   -0.7550 nh        1 B42     -0.784500
      6 C5          1.5230    1.9610   -2.0290 ca        1 B42      0.104600
      7 C2          0.3380    2.7100   -2.2270 ca        1 B42     -0.083000
      8 C3          2.1230    1.3560   -3.1460 ca        1 B42     -0.025000
      9 C6          1.5760    1.4630   -4.4260 ca        1 B42     -0.373500
     10 S35         2.3980    0.6800   -5.7140 sy        1 B42      1.585700
     11 O30         3.6930    1.2210   -5.8100 o         1 B42     -0.653800
     12 O31         2.3710   -0.7070   -5.4790 o         1 B42     -0.653800
     13 N26         1.4670    1.0970   -6.9320 ne        1 B42     -0.994300
     14 C9          0.3700    1.8050   -7.0210 cf        1 B42      0.940500
     15 N25        -0.2190    2.3220   -5.8660 nh        1 B42     -0.729600
     16 C4          0.3850    2.2020   -4.6040 ca        1 B42      0.223600
     17 C1         -0.2220    2.8230   -3.4870 ca        1 B42     -0.164000
     18 C7         -0.2980    2.0160   -8.3220 cf        1 B42     -0.434800
     19 C10        -1.3870    3.0240   -8.4280 c         1 B42      0.736700
     20 O29        -1.4850    3.9960   -7.6430 o         1 B42     -0.672500
     21 N27        -2.3240    2.8630   -9.4410 n         1 B42     -0.459800
     22 C16        -3.3620    3.8550   -9.6520 c3        1 B42      0.098700
     23 C14        -4.7730    3.2590   -9.8530 c3        1 B42     -0.094400
     24 C12        -5.5320    4.2600  -10.7090 c3        1 B42     -0.079900
     25 C13        -3.1330    4.7930  -10.8590 c3        1 B42     -0.094400
     26 C11        -4.5050    5.1310  -11.4200 c3        1 B42     -0.079900
     27 C15        -2.1510    1.8200  -10.4170 c3        1 B42      0.092000
     28 C17        -0.6740    1.5180  -10.7660 c3        1 B42     -0.048800
     29 C18        -0.6480    0.2420  -11.5940 c3        1 B42     -0.087100
     30 C8          0.0790    1.3370   -9.4600 c2        1 B42      0.287900
     31 O34         1.0920    0.4650   -9.5860 oh        1 B42     -0.472100
     32 C22        -0.0750    2.6880  -11.5520 c3        1 B42     -0.072400
     33 C23         1.3210    2.4180  -12.0690 c3        1 B42     -0.082400
     34 C24         2.0110    3.6910  -12.5410 c3        1 B42     -0.066700
     35 C20         3.4740    3.4100  -12.8170 c3        1 B42     -0.091600
     36 C19         1.3440    4.2580  -13.7760 c3        1 B42     -0.091600
     37 H21         1.6690   -0.7260    0.6300 h1        1 B42      0.119700
     38 H21A        0.1700   -0.2330    1.4730 h1        1 B42      0.119700
     39 H21B        0.2230   -0.2480   -0.3130 h1        1 B42      0.119700
     40 HN28        3.1020    1.8600   -0.7800 hn        1 B42      0.462800
     41 H2         -0.1580    3.2100   -1.3730 ha        1 B42      0.180000
     42 H3          3.0610    0.7820   -3.0300 ha        1 B42      0.154000
     43 HN25       -0.9920    2.9550   -5.9460 hn        1 B42      0.488800
     44 H1         -1.1450    3.4130   -3.6110 ha        1 B42      0.151000
     45 H16        -3.3930    4.5000   -8.7200 h1        1 B42      0.095700
     46 H14        -4.7320    2.2650  -10.3660 hc        1 B42      0.049450
     47 H14A       -5.2710    3.1060   -8.8650 hc        1 B42      0.049450
     48 H12        -6.1950    4.8920  -10.0660 hc        1 B42      0.045700
     49 H12A       -6.1880    3.7330  -11.4450 hc        1 B42      0.045700
     50 H13        -2.4990    4.3060  -11.6440 hc        1 B42      0.049450
     51 H13A       -2.5940    5.7130  -10.5230 hc        1 B42      0.049450
     52 H11        -4.5300    4.9470  -12.5230 hc        1 B42      0.045700
     53 H11A       -4.7370    6.2140  -11.2610 hc        1 B42      0.045700
     54 H15        -2.6860    2.0990  -11.3690 h1        1 B42      0.062200
     55 H15A       -2.6210    0.8720  -10.0200 h1        1 B42      0.062200
     56 H18         0.4070   -0.0540  -11.8150 hc        1 B42      0.054700
     57 H18A       -1.1370   -0.5950  -11.0400 hc        1 B42      0.054700
     58 H18B       -1.1880    0.4070  -12.5570 hc        1 B42      0.054700
     59 HO34        1.5920    0.3710   -8.7440 ho        1 B42      0.492000
     60 H22        -0.7570    2.9050  -12.4190 hc        1 B42      0.055700
     61 H22A       -0.0660    3.6000  -10.8980 hc        1 B42      0.055700
     62 H23         1.2760    1.6870  -12.9190 hc        1 B42      0.051200
     63 H23A        1.9380    1.9470  -11.2570 hc        1 B42      0.051200
     64 H24         1.9470    4.4580  -11.7170 hc        1 B42      0.049700
     65 H20         3.9820    3.0380  -11.8940 hc        1 B42      0.035700
     66 H20A        3.5820    2.6370  -13.6160 hc        1 B42      0.035700
     67 H20B        3.9890    4.3410  -13.1540 hc        1 B42      0.035700
     68 H19         0.2840    4.5320  -13.5580 hc        1 B42      0.035700
     69 H19A        1.8820    5.1750  -14.1190 hc        1 B42      0.035700
     70 H19B        1.3550    3.5120  -14.6070 hc        1 B42      0.035700
@<TRIPOS>BOND
     1    1    2 2   
     2    2    3 2   
     3    2    4 1   
     4    2    5 1   
     5    4   37 1   
     6    4   38 1   
     7    4   39 1   
     8    5    6 1   
     9    5   40 1   
    10    6    7 ar  
    11    6    8 ar  
    12    7   17 ar  
    13    7   41 1   
    14    8    9 ar  
    15    8   42 1   
    16    9   10 1   
    17    9   16 ar  
    18   10   11 2   
    19   10   12 2   
    20   10   13 1   
    21   13   14 2   
    22   14   15 1   
    23   14   18 1   
    24   15   16 1   
    25   15   43 1   
    26   16   17 ar  
    27   17   44 1   
    28   18   19 1   
    29   18   30 2   
    30   19   20 2   
    31   19   21 1   
    32   21   22 1   
    33   21   27 1   
    34   22   23 1   
    35   22   25 1   
    36   22   45 1   
    37   23   24 1   
    38   23   46 1   
    39   23   47 1   
    40   24   26 1   
    41   24   48 1   
    42   24   49 1   
    43   25   26 1   
    44   25   50 1   
    45   25   51 1   
    46   26   52 1   
    47   26   53 1   
    48   27   28 1   
    49   27   54 1   
    50   27   55 1   
    51   28   29 1   
    52   28   30 1   
    53   28   32 1   
    54   29   56 1   
    55   29   57 1   
    56   29   58 1   
    57   30   31 1   
    58   31   59 1   
    59   32   33 1   
    60   32   60 1   
    61   32   61 1   
    62   33   34 1   
    63   33   62 1   
    64   33   63 1   
    65   34   35 1   
    66   34   36 1   
    67   34   64 1   
    68   35   65 1   
    69   35   66 1   
    70   35   67 1   
    71   36   68 1   
    72   36   69 1   
    73   36   70 1   
@<TRIPOS>SUBSTRUCTURE
     1 B42         1 TEMP              0 ****  ****    0 ROOT
