@<TRIPOS>MOLECULE
B42
   71    74     1     0     0
SMALL
bcc


@<TRIPOS>ATOM
      1 O33         0.1540    2.4640    0.6170 o         1 B42     -0.562800
      2 S36         0.9580    1.3500    0.5040 s6        1 B42      1.411900
      3 O32         1.7730    0.9500    1.5440 o         1 B42     -0.562800
      4 C21         0.2840    0.0960   -0.3030 c3        1 B42     -0.468300
      5 N28         2.2750    1.9370   -0.7260 n4        1 B42     -0.559300
      6 C5          1.7470    2.1150   -2.0660 ca        1 B42     -0.154400
      7 C2          1.0150    3.2850   -2.3890 ca        1 B42     -0.032000
      8 C3          1.9860    1.1560   -3.0600 ca        1 B42      0.033000
      9 C6          1.4580    1.3010   -4.3360 ca        1 B42     -0.376500
     10 S35         1.7300   -0.0010   -5.4750 sy        1 B42      1.594700
     11 O30         3.1150   -0.1320   -5.6210 o         1 B42     -0.641300
     12 O31         1.0820   -1.1120   -4.9170 o         1 B42     -0.641300
     13 N26         1.0150    0.6160   -6.7300 ne        1 B42     -0.998300
     14 C9          0.3330    1.7060   -6.9630 cf        1 B42      0.966500
     15 N25         0.1990    2.6590   -5.9340 nh        1 B42     -0.730600
     16 C4          0.7170    2.4640   -4.6630 ca        1 B42      0.299600
     17 C1          0.5080    3.4560   -3.6580 ca        1 B42     -0.168000
     18 C7         -0.2850    1.9650   -8.2700 cf        1 B42     -0.453800
     19 C10        -1.4260    2.9210   -8.3740 c         1 B42      0.742700
     20 O29        -1.5980    3.8550   -7.5540 o         1 B42     -0.690500
     21 N27        -2.3210    2.7490   -9.4150 n         1 B42     -0.445800
     22 C16        -3.4260    3.6760   -9.6020 c3        1 B42      0.095700
     23 C14        -4.7870    2.9890   -9.8510 c3        1 B42     -0.093400
     24 C12        -5.5990    3.9670  -10.6840 c3        1 B42     -0.080900
     25 C13        -3.2410    4.6730  -10.7690 c3        1 B42     -0.093400
     26 C11        -4.6210    4.9180  -11.3610 c3        1 B42     -0.080900
     27 C15        -2.0750    1.7520  -10.4250 c3        1 B42      0.086000
     28 C17        -0.5780    1.5290  -10.7400 c3        1 B42     -0.048800
     29 C18        -0.4710    0.2960  -11.6260 c3        1 B42     -0.091100
     30 C8          0.1330    1.3140   -9.4160 c2        1 B42      0.309900
     31 O34         1.1730    0.4770   -9.5390 oh        1 B42     -0.448100
     32 C22        -0.0000    2.7590  -11.4470 c3        1 B42     -0.075400
     33 C23         1.4210    2.5650  -11.9330 c3        1 B42     -0.082400
     34 C24         2.0760    3.8850  -12.3180 c3        1 B42     -0.065700
     35 C20         3.5540    3.6690  -12.5690 c3        1 B42     -0.093100
     36 C19         1.4200    4.4920  -13.5400 c3        1 B42     -0.093100
     37 H21        -0.8030   -0.0590   -0.0270 h1        1 B42      0.182033
     38 H21A        0.2470    0.1610   -1.4290 h1        1 B42      0.182033
     39 H21B        0.7660   -0.9030   -0.0950 h1        1 B42      0.182033
     40 HN28        2.6480    2.8370   -0.4100 hn        1 B42      0.459800
     41 H2          0.8320    4.0620   -1.6240 ha        1 B42      0.169000
     42 H3          2.5980    0.2560   -2.8510 ha        1 B42      0.163000
     43 HN25       -0.3290    3.5010   -6.1130 hn        1 B42      0.514800
     44 H1         -0.0640    4.3710   -3.8940 ha        1 B42      0.179000
     45 H16        -3.5160    4.2780   -8.6470 h1        1 B42      0.094700
     46 H14        -4.6690    2.0200  -10.3980 hc        1 B42      0.049950
     47 H14A       -5.2900    2.7670   -8.8780 hc        1 B42      0.049950
     48 H12        -6.3040    4.5400  -10.0300 hc        1 B42      0.051700
     49 H12A       -6.2170    3.4220  -11.4410 hc        1 B42      0.051700
     50 H13        -2.5470    4.2710  -11.5500 hc        1 B42      0.049950
     51 H13A       -2.7930    5.6220  -10.3850 hc        1 B42      0.049950
     52 H11        -4.6050    4.7430  -12.4670 hc        1 B42      0.051700
     53 H11A       -4.9340    5.9800  -11.2000 hc        1 B42      0.051700
     54 H15        -2.5170    0.7700  -10.0800 h1        1 B42      0.072200
     55 H15A       -2.5950    2.0500  -11.3800 h1        1 B42      0.072200
     56 H18        -0.9840    0.4890  -12.5990 hc        1 B42      0.060033
     57 H18A        0.6010    0.0520  -11.8250 hc        1 B42      0.060033
     58 H18B       -0.9460   -0.5850  -11.1310 hc        1 B42      0.060033
     59 HO34        1.6170    0.3100   -8.6840 ho        1 B42      0.478000
     60 H22        -0.0460    3.6380  -10.7510 hc        1 B42      0.060200
     61 H22A       -0.6630    2.9920  -12.3240 hc        1 B42      0.060200
     62 H23         2.0300    2.0730  -11.1280 hc        1 B42      0.049200
     63 H23A        1.4270    1.8780  -12.8200 hc        1 B42      0.049200
     64 H24         1.9630    4.6050  -11.4590 hc        1 B42      0.043700
     65 H20         4.0520    3.2640  -11.6550 hc        1 B42      0.038367
     66 H20A        4.0440    4.6350  -12.8410 hc        1 B42      0.038367
     67 H20B        3.7090    2.9460  -13.4060 hc        1 B42      0.038367
     68 H19         1.9350    5.4430  -13.8210 hc        1 B42      0.038367
     69 H19A        1.4780    3.7910  -14.4080 hc        1 B42      0.038367
     70 H19B        0.3460    4.7190  -13.3380 hc        1 B42      0.038367
     71 H282        3.0650    1.2900   -0.7580 hn        1 B42      0.459800
@<TRIPOS>BOND
     1    1    2 2   
     2    2    3 2   
     3    2    4 1   
     4    2    5 1   
     5    4   37 1   
     6    4   38 1   
     7    4   39 1   
     8    5    6 1   
     9    5   40 1   
    10    5   71 1   
    11    6    7 ar  
    12    6    8 ar  
    13    7   17 ar  
    14    7   41 1   
    15    8    9 ar  
    16    8   42 1   
    17    9   10 1   
    18    9   16 ar  
    19   10   11 2   
    20   10   12 2   
    21   10   13 1   
    22   13   14 2   
    23   14   15 1   
    24   14   18 1   
    25   15   16 1   
    26   15   43 1   
    27   16   17 ar  
    28   17   44 1   
    29   18   19 1   
    30   18   30 2   
    31   19   20 2   
    32   19   21 1   
    33   21   22 1   
    34   21   27 1   
    35   22   23 1   
    36   22   25 1   
    37   22   45 1   
    38   23   24 1   
    39   23   46 1   
    40   23   47 1   
    41   24   26 1   
    42   24   48 1   
    43   24   49 1   
    44   25   26 1   
    45   25   50 1   
    46   25   51 1   
    47   26   52 1   
    48   26   53 1   
    49   27   28 1   
    50   27   54 1   
    51   27   55 1   
    52   28   29 1   
    53   28   30 1   
    54   28   32 1   
    55   29   56 1   
    56   29   57 1   
    57   29   58 1   
    58   30   31 1   
    59   31   59 1   
    60   32   33 1   
    61   32   60 1   
    62   32   61 1   
    63   33   34 1   
    64   33   62 1   
    65   33   63 1   
    66   34   35 1   
    67   34   36 1   
    68   34   64 1   
    69   35   65 1   
    70   35   66 1   
    71   35   67 1   
    72   36   68 1   
    73   36   69 1   
    74   36   70 1   
@<TRIPOS>SUBSTRUCTURE
     1 B42         1 TEMP              0 ****  ****    0 ROOT
