@<TRIPOS>MOLECULE
B43
   50    54     1     0     0
SMALL
bcc


@<TRIPOS>ATOM
      1 N1          1.1130    3.5170   -0.0840 nh        1 B43     -0.949500
      2 C1          2.2630    2.7580   -0.1940 ca        1 B43      0.728200
      3 N4          3.4800    3.3720   -0.3600 nb        1 B43     -0.793000
      4 C23         4.5800    2.5710   -0.3910 ca        1 B43      0.678900
      5 N3          4.6750    1.2280   -0.3030 nb        1 B43     -0.742000
      6 C22         3.4590    0.6110   -0.1520 ca        1 B43      0.474800
      7 C2          2.1980    1.3330   -0.0800 ca        1 B43     -0.362400
      8 N2          3.1750   -0.7590   -0.0540 na        1 B43     -0.154100
      9 C17         4.1370   -1.8310   -0.0600 c3        1 B43      0.047000
     10 C21         4.1500   -2.6790    1.2330 c3        1 B43     -0.093900
     11 C20         4.6160   -4.0660    0.8230 c3        1 B43     -0.080400
     12 C19         4.4880   -4.1730   -0.6920 c3        1 B43     -0.080400
     13 C18         3.9410   -2.8510   -1.2060 c3        1 B43     -0.093900
     14 C16         1.7880   -0.9050    0.0770 cc        1 B43     -0.107100
     15 C3          1.1590    0.3440    0.0700 cd        1 B43     -0.060400
     16 C4         -0.2650    0.5590    0.1980 ca        1 B43     -0.047800
     17 C15        -1.1520   -0.0550   -0.6990 ca        1 B43     -0.102500
     18 C14        -2.5260    0.1290   -0.5790 ca        1 B43     -0.161500
     19 C7         -3.0190    0.9310    0.4570 ca        1 B43      0.106100
     20 C6         -2.1500    1.5450    1.3720 ca        1 B43     -0.161500
     21 C5         -0.7790    1.3560    1.2330 ca        1 B43     -0.102500
     22 O          -4.3640    1.2540    0.5990 os        1 B43     -0.249200
     23 C8         -5.2870    0.2760    0.2360 ca        1 B43      0.102100
     24 C13        -5.1010   -1.0850    0.5050 ca        1 B43     -0.155500
     25 C12        -6.1260   -1.9790    0.2020 ca        1 B43     -0.109000
     26 C11        -7.3190   -1.5210   -0.3560 ca        1 B43     -0.148000
     27 C10        -7.4950   -0.1620   -0.6180 ca        1 B43     -0.109000
     28 C9         -6.4810    0.7500   -0.3300 ca        1 B43     -0.155500
     29 HN1         0.2530    3.0410   -0.2260 hn        1 B43      0.431300
     30 HN1A        1.1520    4.4760   -0.3370 hn        1 B43      0.431300
     31 H23         5.5430    3.1110   -0.5160 h5        1 B43      0.049100
     32 H17         5.1600   -1.3620   -0.1810 h1        1 B43      0.095700
     33 H21         4.8370   -2.2210    1.9860 hc        1 B43      0.053950
     34 H21A        3.1300   -2.7310    1.6910 hc        1 B43      0.053950
     35 H20         5.6790   -4.2280    1.1340 hc        1 B43      0.046200
     36 H20A        4.0000   -4.8510    1.3300 hc        1 B43      0.046200
     37 H19         5.4870   -4.3860   -1.1510 hc        1 B43      0.046200
     38 H19A        3.8070   -5.0140   -0.9750 hc        1 B43      0.046200
     39 H18         2.8590   -2.9550   -1.4720 hc        1 B43      0.053950
     40 H18A        4.4840   -2.5110   -2.1220 hc        1 B43      0.053950
     41 H16         1.3450   -1.8980    0.1750 h4        1 B43      0.174000
     42 H15        -0.7540   -0.6830   -1.5110 ha        1 B43      0.146000
     43 H14        -3.2210   -0.3490   -1.2850 ha        1 B43      0.151500
     44 H6         -2.5590    2.1680    2.1790 ha        1 B43      0.151500
     45 H5         -0.0880    1.8270    1.9510 ha        1 B43      0.146000
     46 H13        -4.1570   -1.4350    0.9470 ha        1 B43      0.149000
     47 H12        -5.9910   -3.0510    0.4110 ha        1 B43      0.135500
     48 H11        -8.1250   -2.2330   -0.5900 ha        1 B43      0.135000
     49 H10        -8.4380    0.1970   -1.0560 ha        1 B43      0.135500
     50 H9         -6.6050    1.8240   -0.5250 ha        1 B43      0.149000
@<TRIPOS>BOND
     1    1    2 1   
     2    1   29 1   
     3    1   30 1   
     4    2    3 ar  
     5    2    7 ar  
     6    3    4 ar  
     7    4    5 ar  
     8    4   31 1   
     9    5    6 ar  
    10    6    7 ar  
    11    6    8 1   
    12    7   15 1   
    13    8    9 1   
    14    8   14 1   
    15    9   10 1   
    16    9   13 1   
    17    9   32 1   
    18   10   11 1   
    19   10   33 1   
    20   10   34 1   
    21   11   12 1   
    22   11   35 1   
    23   11   36 1   
    24   12   13 1   
    25   12   37 1   
    26   12   38 1   
    27   13   39 1   
    28   13   40 1   
    29   14   15 2   
    30   14   41 1   
    31   15   16 1   
    32   16   17 ar  
    33   16   21 ar  
    34   17   18 ar  
    35   17   42 1   
    36   18   19 ar  
    37   18   43 1   
    38   19   20 ar  
    39   19   22 1   
    40   20   21 ar  
    41   20   44 1   
    42   21   45 1   
    43   22   23 1   
    44   23   24 ar  
    45   23   28 ar  
    46   24   25 ar  
    47   24   46 1   
    48   25   26 ar  
    49   25   47 1   
    50   26   27 ar  
    51   26   48 1   
    52   27   28 ar  
    53   27   49 1   
    54   28   50 1   
@<TRIPOS>SUBSTRUCTURE
     1 B43         1 TEMP              0 ****  ****    0 ROOT
