@<TRIPOS>MOLECULE
B43
   50    54     1     0     0
SMALL
bcc


@<TRIPOS>ATOM
      1 N1         -0.0790    0.0700   -0.0090 nv        1 B43     -0.949500
      2 C1          1.2930    0.2360   -0.0530 ca        1 B43      0.728200
      3 N4          1.9930    0.4910    1.1000 nb        1 B43     -0.793000
      4 C23         3.3480    0.5730    0.9990 ca        1 B43      0.678900
      5 N3          4.1420    0.4620   -0.0860 nb        1 B43     -0.742000
      6 C22         3.4440    0.2230   -1.2430 ca        1 B43      0.474800
      7 C2          1.9960    0.0880   -1.2910 ca        1 B43     -0.362400
      8 N2          3.9310    0.0790   -2.5490 na        1 B43     -0.154100
      9 C17         5.3140    0.1220   -2.9520 c3        1 B43      0.047000
     10 C21         5.8270   -1.1860   -3.5990 c3        1 B43     -0.093900
     11 C20         6.9390   -0.7770   -4.5520 c3        1 B43     -0.080400
     12 C19         6.8240    0.7240   -4.7860 c3        1 B43     -0.080400
     13 C18         5.6390    1.2310   -3.9790 c3        1 B43     -0.093900
     14 C16         2.8380   -0.1420   -3.3970 cc        1 B43     -0.107100
     15 C3          1.6450   -0.1480   -2.6690 cd        1 B43     -0.060400
     16 C4          0.3290   -0.3600   -3.2310 ca        1 B43     -0.047800
     17 C15        -0.1350    0.4670   -4.2640 ca        1 B43     -0.102500
     18 C14        -1.3930    0.2650   -4.8260 ca        1 B43     -0.161500
     19 C7         -2.1920   -0.7810   -4.3520 ca        1 B43      0.106100
     20 C6         -1.7420   -1.6270   -3.3270 ca        1 B43     -0.161500
     21 C5         -0.4850   -1.4080   -2.7720 ca        1 B43     -0.102500
     22 O          -3.4970   -1.0000   -4.7800 os        1 B43     -0.249200
     23 C8         -3.7770   -0.7170   -6.1140 ca        1 B43      0.102100
     24 C13        -2.8880   -1.0040   -7.1570 ca        1 B43     -0.155500
     25 C12        -3.2970   -0.7860   -8.4710 ca        1 B43     -0.109000
     26 C11        -4.5740   -0.2930   -8.7400 ca        1 B43     -0.148000
     27 C10        -5.4520   -0.0130   -7.6920 ca        1 B43     -0.109000
     28 C9         -5.0630   -0.2170   -6.3700 ca        1 B43     -0.155500
     29 HN1        -0.5640    0.3460    0.8120 hn        1 B43      0.431300
     30 HN1A       -0.5620    0.1480   -0.8730 hn        1 B43      0.431300
     31 H23         3.8740    0.7690    1.9590 h5        1 B43      0.049100
     32 H17         5.9280    0.3160   -2.0220 h1        1 B43      0.095700
     33 H21         5.0090   -1.7080   -4.1570 hc        1 B43      0.053950
     34 H21A        6.1990   -1.8850   -2.8110 hc        1 B43      0.053950
     35 H20         6.8530   -1.3380   -5.5160 hc        1 B43      0.046200
     36 H20A        7.9380   -1.0250   -4.1130 hc        1 B43      0.046200
     37 H19         6.6800    0.9470   -5.8730 hc        1 B43      0.046200
     38 H19A        7.7630    1.2390   -4.4640 hc        1 B43      0.046200
     39 H18         4.7660    1.4270   -4.6520 hc        1 B43      0.053950
     40 H18A        5.8810    2.1860   -3.4520 hc        1 B43      0.053950
     41 H16         2.9920   -0.2890   -4.4680 h4        1 B43      0.174000
     42 H15         0.5000    1.2880   -4.6300 ha        1 B43      0.146000
     43 H14        -1.7580    0.9170   -5.6340 ha        1 B43      0.151500
     44 H6         -2.3850   -2.4450   -2.9720 ha        1 B43      0.151500
     45 H5         -0.1190   -2.0700   -1.9710 ha        1 B43      0.146000
     46 H13        -1.8840   -1.3930   -6.9340 ha        1 B43      0.149000
     47 H12        -2.6070   -1.0090   -9.2990 ha        1 B43      0.135500
     48 H11        -4.8900   -0.1260   -9.7800 ha        1 B43      0.135000
     49 H10        -6.4600    0.3730   -7.9070 ha        1 B43      0.135500
     50 H9         -5.7450   -0.0060   -5.5340 ha        1 B43      0.149000
@<TRIPOS>BOND
     1    1    2 1   
     2    1   29 1   
     3    1   30 1   
     4    2    3 ar  
     5    2    7 ar  
     6    3    4 ar  
     7    4    5 ar  
     8    4   31 1   
     9    5    6 ar  
    10    6    7 ar  
    11    6    8 1   
    12    7   15 1   
    13    8    9 1   
    14    8   14 1   
    15    9   10 1   
    16    9   13 1   
    17    9   32 1   
    18   10   11 1   
    19   10   33 1   
    20   10   34 1   
    21   11   12 1   
    22   11   35 1   
    23   11   36 1   
    24   12   13 1   
    25   12   37 1   
    26   12   38 1   
    27   13   39 1   
    28   13   40 1   
    29   14   15 2   
    30   14   41 1   
    31   15   16 1   
    32   16   17 ar  
    33   16   21 ar  
    34   17   18 ar  
    35   17   42 1   
    36   18   19 ar  
    37   18   43 1   
    38   19   20 ar  
    39   19   22 1   
    40   20   21 ar  
    41   20   44 1   
    42   21   45 1   
    43   22   23 1   
    44   23   24 ar  
    45   23   28 ar  
    46   24   25 ar  
    47   24   46 1   
    48   25   26 ar  
    49   25   47 1   
    50   26   27 ar  
    51   26   48 1   
    52   27   28 ar  
    53   27   49 1   
    54   28   50 1   
@<TRIPOS>SUBSTRUCTURE
     1 B43         1 TEMP              0 ****  ****    0 ROOT
