@<TRIPOS>MOLECULE
B43
   51    55     1     0     0
SMALL
bcc


@<TRIPOS>ATOM
      1 N1         -0.2740    0.4120   -0.3550 n4        1 B43     -0.826300
      2 C1          1.1940    0.5310   -0.2390 ca        1 B43      0.507200
      3 N4          1.7130    0.9670    0.9360 nb        1 B43     -0.693000
      4 C23         3.0740    1.0710    0.9920 ca        1 B43      0.662900
      5 N3          3.9820    0.7960    0.0260 nb        1 B43     -0.632000
      6 C22         3.4470    0.3600   -1.1460 ca        1 B43      0.467800
      7 C2          1.9900    0.1970   -1.3450 ca        1 B43     -0.279400
      8 N2          4.0700   -0.0130   -2.3420 na        1 B43     -0.136100
      9 C17         5.5030    0.0150   -2.5980 c3        1 B43      0.038000
     10 C21         6.0090   -1.2440   -3.3360 c3        1 B43     -0.097400
     11 C20         6.2010   -0.8650   -4.7960 c3        1 B43     -0.087900
     12 C19         6.1440    0.6530   -4.8930 c3        1 B43     -0.087900
     13 C18         5.9440    1.1990   -3.4880 c3        1 B43     -0.097400
     14 C16         3.0800   -0.3820   -3.2540 cc        1 B43     -0.010100
     15 C3          1.8020   -0.2740   -2.6880 cd        1 B43     -0.102400
     16 C4          0.5370   -0.5790   -3.3180 ca        1 B43     -0.121800
     17 C15         0.0460    0.2260   -4.3550 ca        1 B43     -0.105500
     18 C14        -1.1720   -0.0650   -4.9630 ca        1 B43     -0.174000
     19 C7         -1.9070   -1.1790   -4.5340 ca        1 B43      0.152100
     20 C6         -1.4180   -2.0080   -3.5040 ca        1 B43     -0.174000
     21 C5         -0.2020   -1.7040   -2.9100 ca        1 B43     -0.105500
     22 O          -3.1440   -1.5370   -5.0260 os        1 B43     -0.237200
     23 C8         -3.5670   -0.9020   -6.2020 ca        1 B43      0.060100
     24 C13        -2.8870   -1.0930   -7.4100 ca        1 B43     -0.134500
     25 C12        -3.4310   -0.5580   -8.5760 ca        1 B43     -0.112500
     26 C11        -4.6330    0.1510   -8.5320 ca        1 B43     -0.119000
     27 C10        -5.3000    0.3310   -7.3200 ca        1 B43     -0.112500
     28 C9         -4.7720   -0.1910   -6.1390 ca        1 B43     -0.134500
     29 HN1        -0.4940   -0.1040   -1.2240 hn        1 B43      0.474133
     30 HN1A       -0.6560   -0.0880    0.4560 hn        1 B43      0.474133
     31 H23         3.4820    1.4300    1.9650 h5        1 B43      0.093100
     32 H17         6.0050    0.0910   -1.5890 h1        1 B43      0.101700
     33 H21         6.9890   -1.5370   -2.8770 hc        1 B43      0.068450
     34 H21A        5.3180   -2.1160   -3.2280 hc        1 B43      0.068450
     35 H20         5.4020   -1.3270   -5.4300 hc        1 B43      0.056200
     36 H20A        7.1820   -1.2510   -5.1730 hc        1 B43      0.056200
     37 H19         5.3010    0.9700   -5.5590 hc        1 B43      0.056200
     38 H19A        7.0860    1.0600   -5.3390 hc        1 B43      0.056200
     39 H18         6.9120    1.5890   -3.0790 hc        1 B43      0.068450
     40 H18A        5.2140    2.0440   -3.4780 hc        1 B43      0.068450
     41 H16         3.3610   -0.7090   -4.2640 h4        1 B43      0.206000
     42 H15         0.6290    1.0950   -4.6970 ha        1 B43      0.145500
     43 H14        -1.5520    0.5660   -5.7820 ha        1 B43      0.169000
     44 H6         -1.9970   -2.8950   -3.2040 ha        1 B43      0.169000
     45 H5          0.2100   -2.3800   -2.1430 ha        1 B43      0.145500
     46 H13        -1.9480   -1.6640   -7.4320 ha        1 B43      0.148500
     47 H12        -2.9130   -0.7050   -9.5360 ha        1 B43      0.147500
     48 H11        -5.0580    0.5650   -9.4590 ha        1 B43      0.148000
     49 H10        -6.2520    0.8840   -7.2920 ha        1 B43      0.147500
     50 H9         -5.2940   -0.0700   -5.1800 ha        1 B43      0.148500
     51 H131       -0.6900    1.3490   -0.3940 hn        1 B43      0.474133
@<TRIPOS>BOND
     1    1    2 1   
     2    1   29 1   
     3    1   30 1   
     4    1   51 1   
     5    2    3 ar  
     6    2    7 ar  
     7    3    4 ar  
     8    4    5 ar  
     9    4   31 1   
    10    5    6 ar  
    11    6    7 ar  
    12    6    8 1   
    13    7   15 1   
    14    8    9 1   
    15    8   14 1   
    16    9   10 1   
    17    9   13 1   
    18    9   32 1   
    19   10   11 1   
    20   10   33 1   
    21   10   34 1   
    22   11   12 1   
    23   11   35 1   
    24   11   36 1   
    25   12   13 1   
    26   12   37 1   
    27   12   38 1   
    28   13   39 1   
    29   13   40 1   
    30   14   15 2   
    31   14   41 1   
    32   15   16 1   
    33   16   17 ar  
    34   16   21 ar  
    35   17   18 ar  
    36   17   42 1   
    37   18   19 ar  
    38   18   43 1   
    39   19   20 ar  
    40   19   22 1   
    41   20   21 ar  
    42   20   44 1   
    43   21   45 1   
    44   22   23 1   
    45   23   24 ar  
    46   23   28 ar  
    47   24   25 ar  
    48   24   46 1   
    49   25   26 ar  
    50   25   47 1   
    51   26   27 ar  
    52   26   48 1   
    53   27   28 ar  
    54   27   49 1   
    55   28   50 1   
@<TRIPOS>SUBSTRUCTURE
     1 B43         1 TEMP              0 ****  ****    0 ROOT
