@<TRIPOS>MOLECULE
B43
   50    54     1     0     0
SMALL
bcc


@<TRIPOS>ATOM
      1 N1         -0.0710    0.0720   -0.0050 nh        1 B43     -0.949500
      2 C1          1.3010    0.2330   -0.0520 ca        1 B43      0.728200
      3 N4          2.0040    0.4850    1.1000 nb        1 B43     -0.793000
      4 C23         3.3600    0.5640    0.9960 ca        1 B43      0.678900
      5 N3          4.1510    0.4520   -0.0910 nb        1 B43     -0.742000
      6 C22         3.4500    0.2160   -1.2460 ca        1 B43      0.474800
      7 C2          2.0020    0.0850   -1.2920 ca        1 B43     -0.362400
      8 N2          3.9340    0.0710   -2.5540 na        1 B43     -0.154100
      9 C17         5.3160    0.1110   -2.9600 c3        1 B43      0.047000
     10 C21         5.8250   -1.1960   -3.6100 c3        1 B43     -0.093900
     11 C20         6.9350   -0.7890   -4.5650 c3        1 B43     -0.080400
     12 C19         6.8230    0.7130   -4.7960 c3        1 B43     -0.080400
     13 C18         5.6420    1.2220   -3.9860 c3        1 B43     -0.093900
     14 C16         2.8390   -0.1460   -3.4000 cc        1 B43     -0.107100
     15 C3          1.6470   -0.1500   -2.6700 cd        1 B43     -0.060400
     16 C4          0.3300   -0.3580   -3.2290 ca        1 B43     -0.047800
     17 C15        -0.1340    0.4710   -4.2610 ca        1 B43     -0.102500
     18 C14        -1.3930    0.2730   -4.8210 ca        1 B43     -0.161500
     19 C7         -2.1940   -0.7720   -4.3460 ca        1 B43      0.106100
     20 C6         -1.7440   -1.6200   -3.3210 ca        1 B43     -0.161500
     21 C5         -0.4860   -1.4040   -2.7690 ca        1 B43     -0.102500
     22 O          -3.5010   -0.9880   -4.7710 os        1 B43     -0.249200
     23 C8         -3.7830   -0.7050   -6.1050 ca        1 B43      0.102100
     24 C13        -2.8950   -0.9930   -7.1490 ca        1 B43     -0.155500
     25 C12        -3.3060   -0.7740   -8.4630 ca        1 B43     -0.109000
     26 C11        -4.5830   -0.2800   -8.7300 ca        1 B43     -0.148000
     27 C10        -5.4590    0.0020   -7.6810 ca        1 B43     -0.109000
     28 C9         -5.0680   -0.2020   -6.3590 ca        1 B43     -0.155500
     29 HN1        -0.5550    0.1510   -0.8680 hn        1 B43      0.431300
     30 HN1A       -0.5530    0.3480    0.8170 hn        1 B43      0.431300
     31 H23         3.8880    0.7580    1.9540 h5        1 B43      0.049100
     32 H17         5.9320    0.3020   -2.0310 h1        1 B43      0.095700
     33 H21         5.0040   -1.7160   -4.1670 hc        1 B43      0.053950
     34 H21A        6.1970   -1.8980   -2.8240 hc        1 B43      0.053950
     35 H20         7.9350   -1.0400   -4.1290 hc        1 B43      0.046200
     36 H20A        6.8450   -1.3480   -5.5300 hc        1 B43      0.046200
     37 H19         6.6780    0.9380   -5.8820 hc        1 B43      0.046200
     38 H19A        7.7650    1.2250   -4.4750 hc        1 B43      0.046200
     39 H18         4.7680    1.4210   -4.6560 hc        1 B43      0.053950
     40 H18A        5.8870    2.1750   -3.4570 hc        1 B43      0.053950
     41 H16         2.9900   -0.2920   -4.4710 h4        1 B43      0.174000
     42 H15         0.5020    1.2910   -4.6270 ha        1 B43      0.146000
     43 H14        -1.7590    0.9250   -5.6270 ha        1 B43      0.151500
     44 H6         -2.3890   -2.4360   -2.9660 ha        1 B43      0.151500
     45 H5         -0.1200   -2.0670   -1.9690 ha        1 B43      0.146000
     46 H13        -1.8920   -1.3840   -6.9270 ha        1 B43      0.149000
     47 H12        -2.6180   -0.9990   -9.2910 ha        1 B43      0.135500
     48 H11        -4.9000   -0.1120   -9.7690 ha        1 B43      0.135000
     49 H10        -6.4660    0.3900   -7.8950 ha        1 B43      0.135500
     50 H9         -5.7480    0.0100   -5.5220 ha        1 B43      0.149000
@<TRIPOS>BOND
     1    1    2 1   
     2    1   29 1   
     3    1   30 1   
     4    2    3 ar  
     5    2    7 ar  
     6    3    4 ar  
     7    4    5 ar  
     8    4   31 1   
     9    5    6 ar  
    10    6    7 ar  
    11    6    8 1   
    12    7   15 1   
    13    8    9 1   
    14    8   14 1   
    15    9   10 1   
    16    9   13 1   
    17    9   32 1   
    18   10   11 1   
    19   10   33 1   
    20   10   34 1   
    21   11   12 1   
    22   11   35 1   
    23   11   36 1   
    24   12   13 1   
    25   12   37 1   
    26   12   38 1   
    27   13   39 1   
    28   13   40 1   
    29   14   15 2   
    30   14   41 1   
    31   15   16 1   
    32   16   17 ar  
    33   16   21 ar  
    34   17   18 ar  
    35   17   42 1   
    36   18   19 ar  
    37   18   43 1   
    38   19   20 ar  
    39   19   22 1   
    40   20   21 ar  
    41   20   44 1   
    42   21   45 1   
    43   22   23 1   
    44   23   24 ar  
    45   23   28 ar  
    46   24   25 ar  
    47   24   46 1   
    48   25   26 ar  
    49   25   47 1   
    50   26   27 ar  
    51   26   48 1   
    52   27   28 ar  
    53   27   49 1   
    54   28   50 1   
@<TRIPOS>SUBSTRUCTURE
     1 B43         1 TEMP              0 ****  ****    0 ROOT
