@<TRIPOS>MOLECULE
B43
   50    43     1     0     0
SMALL
bcc


@<TRIPOS>ATOM
      1 N1         -2.3860    0.1750    2.9510 n3        1 B43     -0.346000
      2 C1         -0.9700    0.1210    2.8470 c2        1 B43      0.204000
      3 N4         -0.9570    0.1370    4.1910 n2        1 B43     -0.266000
      4 C23         0.2340    0.1200    4.8640 c1        1 B43      0.016000
      5 N3          1.4110    0.0860    4.1720 n1        1 B43     -0.214000
      6 C22         1.4010    0.0690    2.8120 c1        1 B43      0.083000
      7 C2          0.2210    0.0860    2.1430 c1        1 B43     -0.219000
      8 N2          2.4240    0.0340    1.8760 n1        1 B43     -0.137000
      9 C17         3.6400    0.0270    2.3990 c2        1 B43      0.027000
     10 C21         4.3920   -1.3290    2.0310 c3        1 B43     -0.172500
     11 C20         5.3090   -0.9820    1.1240 c3        1 B43     -0.159000
     12 C19         5.6670    0.5800    1.4140 c3        1 B43     -0.159000
     13 C18         4.5050    1.1720    1.7770 c3        1 B43     -0.172500
     14 C16         1.8630    0.0310    0.6380 c1        1 B43     -0.078000
     15 C3          0.4980    0.0620    0.7900 c1        1 B43     -0.084000
     16 C4         -0.2420    0.0730   -0.3820 c1        1 B43     -0.039000
     17 C15        -0.5460   -1.1200   -1.0200 c1        1 B43     -0.134750
     18 C14        -1.2260   -1.1060   -2.2270 c1        1 B43     -0.134750
     19 C7         -1.6030    0.1000   -2.7970 c1        1 B43      0.064000
     20 C6         -1.2980    1.2920   -2.1590 c1        1 B43     -0.147000
     21 C5         -0.6180    1.2790   -0.9520 c1        1 B43     -0.101000
     22 O          -2.1920    0.1180   -4.0740 os        1 B43     -0.159000
     23 C8         -3.5870    0.0210   -3.9470 c2        1 B43      0.056000
     24 C13        -4.3460    1.1660   -3.7610 c2        1 B43     -0.169000
     25 C12        -5.7300    1.0850   -3.7400 c1        1 B43     -0.108000
     26 C11        -6.3550   -0.1410   -3.9060 c1        1 B43     -0.134750
     27 C10        -5.5970   -1.2860   -4.0920 c1        1 B43     -0.134750
     28 C9         -4.2140   -1.2060   -4.1130 c1        1 B43     -0.138000
     29 HN1        -2.8420   -0.5140    3.3430 hn        1 B43      0.224000
     30 HN1A       -2.8380    0.9110    2.6540 hn        1 B43      0.224000
     31 H23         0.2420    0.1320    5.8400 ha        1 B43      0.186000
     32 H17         3.5900    0.1320    3.3700 ha        1 B43      0.135000
     33 H21         3.7610   -1.9740    1.6480 hc        1 B43      0.093750
     34 H21A        4.8240   -1.7040    2.8260 hc        1 B43      0.093750
     35 H20         6.1100   -1.5360    1.2280 hc        1 B43      0.085750
     36 H20A        4.9440   -1.0820    0.2210 hc        1 B43      0.085750
     37 H19         6.0210    1.0000    0.6020 hc        1 B43      0.085750
     38 H19A        6.3210    0.6460    2.1420 hc        1 B43      0.085750
     39 H18         4.6740    1.8710    2.4430 hc        1 B43      0.093750
     40 H18A        4.0570    1.5500    0.9920 hc        1 B43      0.093750
     41 H16         2.3450   -0.0020   -0.2110 DU        1 B43      0.175000
     42 H15        -0.2810   -1.9700   -0.6180 ha        1 B43      0.143250
     43 H14        -1.4400   -1.9460   -2.6760 ha        1 B43      0.143250
     44 H6         -1.5630    2.1410   -2.5600 ha        1 B43      0.152000
     45 H5         -0.4040    2.1180   -0.5030 ha        1 B43      0.140000
     46 H13        -3.9060    2.0300   -3.6440 ha        1 B43      0.145000
     47 H12        -6.2640    1.8920   -3.6090 ha        1 B43      0.135000
     48 H11        -7.3290   -0.1970   -3.8920 ha        1 B43      0.143250
     49 H10        -6.0380   -2.1500   -4.2090 ha        1 B43      0.143250
     50 H9         -3.6800   -2.0130   -4.2450 ha        1 B43      0.151000
@<TRIPOS>BOND
     1    1    2 1   
     2    1   29 1   
     3    1   30 1   
     4    2    3 1   
     5    2    7 1   
     6    3    4 1   
     7    4   31 1   
     8    5    6 1   
     9    8   14 1   
    10    9   10 1   
    11    9   13 1   
    12    9   32 1   
    13   10   11 1   
    14   10   33 1   
    15   10   34 1   
    16   11   12 1   
    17   11   35 1   
    18   11   36 1   
    19   12   13 1   
    20   12   37 1   
    21   12   38 1   
    22   13   39 1   
    23   13   40 1   
    24   14   15 1   
    25   15   16 1   
    26   16   21 1   
    27   17   18 1   
    28   17   42 1   
    29   18   43 1   
    30   19   20 1   
    31   19   22 1   
    32   20   44 1   
    33   21   45 1   
    34   22   23 1   
    35   23   24 1   
    36   23   28 1   
    37   24   25 1   
    38   24   46 1   
    39   25   47 1   
    40   26   27 1   
    41   26   48 1   
    42   27   49 1   
    43   28   50 1   
@<TRIPOS>SUBSTRUCTURE
     1 B43         1 TEMP              0 ****  ****    0 ROOT
