@<TRIPOS>MOLECULE
B44
   59    62     1     0     0
SMALL
bcc


@<TRIPOS>ATOM
      1 O1          0.0000    0.0000    0.0000 os        1 B44     -0.489200
      2 C7          2.9860   -0.2290    5.8350 ca        1 B44      0.246800
      3 O2          1.5960    0.0000    2.4370 os        1 B44     -0.352600
      4 C6          3.6760    0.7960    7.7720 ca        1 B44      0.657900
      5 C1          1.4290    0.0000    0.0000 c3        1 B44      0.309400
      6 N1          3.6340   -0.3330    8.4570 nb        1 B44     -0.769000
      7 C5          2.5090    0.4740    3.4510 c3        1 B44      0.129800
      8 C4          3.8660    0.6130    2.7260 c3        1 B44      0.114100
      9 C3          3.4830    0.7880    1.2400 c3        1 B44      0.124100
     10 C2          1.9390    0.7340    1.2420 c3        1 B44      0.146100
     11 O13        -6.7860    2.2480   -0.8760 o         1 B44     -0.604833
     12 P3         -6.3280    0.9770   -1.7510 p5        1 B44      0.842900
     13 O7         -7.4440   -0.1790   -1.6430 o         1 B44     -0.604833
     14 O10        -6.1720    1.3820   -3.1660 o         1 B44     -0.604833
     15 O12        -4.9240    0.4210   -1.1940 os        1 B44     -0.486800
     16 P2         -3.7610   -0.5050   -1.8160 p5        1 B44      0.990800
     17 O6         -4.2530   -2.0380   -1.8460 o         1 B44     -0.675500
     18 O9         -3.4580   -0.0560   -3.1930 o         1 B44     -0.675500
     19 O11        -2.4360   -0.3840   -0.9090 os        1 B44     -0.486800
     20 P1         -0.8760   -0.6880   -1.1630 p5        1 B44      0.940800
     21 O5         -0.4730   -0.1370   -2.4760 o         1 B44     -0.694000
     22 O8         -0.6300   -2.2790   -1.1500 o         1 B44     -0.694000
     23 O3          3.9400    2.0500    0.7500 oh        1 B44     -0.559800
     24 O4          4.5720    1.7610    3.2000 oh        1 B44     -0.550800
     25 N9          2.6080   -0.4960    4.5430 na        1 B44      0.226000
     26 N3          3.3600    0.8610    6.4960 nb        1 B44     -0.682000
     27 C13         2.3410   -1.8300    4.4630 cc        1 B44      0.272700
     28 N7          2.5330   -2.3930    5.6210 nd        1 B44     -0.530100
     29 C8          2.9320   -1.4570    6.5160 ca        1 B44     -0.242200
     30 C9          3.2750   -1.4750    7.8790 ca        1 B44      0.596200
     31 N6          3.2340   -2.6530    8.6030 nu        1 B44     -0.476900
     32 C10         3.5870   -2.6520   10.0250 c3        1 B44      0.140800
     33 C11         3.4590   -4.0710   10.5840 c3        1 B44      0.071900
     34 C12         3.8210   -4.0680   12.0470 ca        1 B44     -0.309300
     35 C18         5.1310   -4.2760   12.4350 ca        1 B44     -0.111500
     36 C17         5.4640   -4.2740   13.7760 ca        1 B44     -0.120500
     37 C16         4.4860   -4.0640   14.7300 ca        1 B44     -0.352000
     38 C15         3.1750   -3.8550   14.3430 ca        1 B44     -0.120500
     39 C14         2.8440   -3.8530   13.0010 ca        1 B44     -0.111500
     40 H6          3.9840    1.7020    8.2800 h5        1 B44     -0.024900
     41 H1          1.7900    0.5010   -0.8900 h1        1 B44     -0.021800
     42 H1A         1.7900   -1.0210    0.0110 h1        1 B44     -0.021800
     43 H5          2.1840    1.4380    3.8250 h2        1 B44      0.061700
     44 H4          4.4570   -0.2850    2.8600 h1        1 B44      0.002700
     45 H3          3.8880   -0.0240    0.6480 h1        1 B44      0.013700
     46 H2          1.5300    1.7360    1.2880 h1        1 B44      0.041700
     47 HO3         4.5810    1.9110    0.0730 ho        1 B44      0.369000
     48 HO4         5.4900    1.5580    3.2740 ho        1 B44      0.369000
     49 H13         2.0160   -2.3470    3.5680 h5        1 B44      0.058800
     50 HN6         2.9820   -3.5100    8.1500 hn        1 B44      0.303800
     51 H10         4.6070   -2.3080   10.1430 h1        1 B44      0.024200
     52 H10A        2.9180   -1.9900   10.5620 h1        1 B44      0.024200
     53 H11         2.4380   -4.4150   10.4650 hc        1 B44     -0.007800
     54 H11A        4.1280   -4.7320   10.0480 hc        1 B44     -0.007800
     55 H18         5.8930   -4.4670   11.6890 ha        1 B44      0.068000
     56 H17         6.4910   -4.4380   14.0800 ha        1 B44      0.054500
     57 H16         4.7460   -4.0660   15.7820 ha        1 B44      0.067000
     58 H15         2.4090   -3.6890   15.0910 ha        1 B44      0.054500
     59 H14         1.8170   -3.6900   12.6980 ha        1 B44      0.068000
@<TRIPOS>BOND
     1    1    5 1   
     2    1   20 1   
     3    2   25 1   
     4    2   26 ar  
     5    2   29 ar  
     6    3    7 1   
     7    3   10 1   
     8    4    6 ar  
     9    4   26 ar  
    10    4   40 1   
    11    5   10 1   
    12    5   41 1   
    13    5   42 1   
    14    6   30 ar  
    15    7    8 1   
    16    7   25 1   
    17    7   43 1   
    18    8    9 1   
    19    8   24 1   
    20    8   44 1   
    21    9   10 1   
    22    9   23 1   
    23    9   45 1   
    24   10   46 1   
    25   11   12 1   
    26   12   13 1   
    27   12   14 1   
    28   12   15 1   
    29   15   16 1   
    30   16   17 1   
    31   16   18 1   
    32   16   19 1   
    33   19   20 1   
    34   20   21 1   
    35   20   22 1   
    36   23   47 1   
    37   24   48 1   
    38   25   27 1   
    39   27   28 2   
    40   27   49 1   
    41   28   29 1   
    42   29   30 ar  
    43   30   31 1   
    44   31   32 1   
    45   31   50 1   
    46   32   33 1   
    47   32   51 1   
    48   32   52 1   
    49   33   34 1   
    50   33   53 1   
    51   33   54 1   
    52   34   35 ar  
    53   34   39 ar  
    54   35   36 ar  
    55   35   55 1   
    56   36   37 ar  
    57   36   56 1   
    58   37   38 ar  
    59   37   57 1   
    60   38   39 ar  
    61   38   58 1   
    62   39   59 1   
@<TRIPOS>SUBSTRUCTURE
     1 B44         1 TEMP              0 ****  ****    0 ROOT
