@<TRIPOS>MOLECULE
B45
   63    67     1     0     0
SMALL
bcc


@<TRIPOS>ATOM
      1 C6         -2.5230   -5.2700    0.0610 ca        1 B45     -0.104000
      2 C21        -0.1490    3.8710   -1.6040 ca        1 B45     -0.086000
      3 C22        -0.1180    5.2540   -1.7300 ca        1 B45     -0.168000
      4 C1         -2.4610   -4.6540   -1.1860 ca        1 B45     -0.128000
      5 C5         -2.5590   -4.5020    1.2220 ca        1 B45     -0.128000
      6 C17         1.1680    1.1000   -0.2150 ca        1 B45     -0.133000
      7 C19        -0.0090   -1.0100   -0.1600 ca        1 B45     -0.159000
      8 C24         0.1390    5.4500    0.6890 ca        1 B45     -0.168000
      9 C20        -0.0370    3.2530   -0.3500 cp        1 B45     -0.055000
     10 C16        -0.0480    1.7860   -0.2700 cp        1 B45     -0.008000
     11 C18         1.1900   -0.2970   -0.1600 ca        1 B45     -0.037300
     12 C13        -1.2580    1.0810   -0.2670 ca        1 B45     -0.124300
     13 C14        -1.2460   -0.3340   -0.2110 ca        1 B45      0.102600
     14 C3         -2.4710   -2.4560   -0.1140 ca        1 B45      0.060600
     15 C23         0.0280    6.0490   -0.5770 ca        1 B45      0.138900
     16 C2         -2.4340   -3.2600   -1.2780 ca        1 B45      0.038900
     17 C4         -2.5350   -3.1070    1.1410 ca        1 B45      0.038900
     18 C25         0.1060    4.0570    0.7920 ca        1 B45      0.051400
     19 C10        -3.7070   -0.3670   -0.3780 c         1 B45      0.816500
     20 C12        -2.5550    1.8290   -0.3030 c3        1 B45      0.141300
     21 C29         3.3330   -0.7720   -1.3390 c3        1 B45     -0.072900
     22 C33         3.2800   -0.6680    1.1460 c3        1 B45     -0.072900
     23 C30         4.6730   -1.5010   -1.2490 c3        1 B45      0.172300
     24 C32         4.6220   -1.3980    1.1720 c3        1 B45      0.172300
     25 C28         2.4880   -1.0390   -0.1010 c3        1 B45     -0.023400
     26 C35         7.6420   -1.1860    1.0640 c3        1 B45     -0.108600
     27 C36         6.7560   -3.3310    0.1860 c3        1 B45     -0.108600
     28 N11        -3.7040    1.0140   -0.5860 n         1 B45     -0.548900
     29 N9         -2.4660   -1.0380   -0.1940 n         1 B45     -0.299200
     30 N31         5.4100   -1.1880   -0.0330 n3        1 B45     -0.733600
     31 F27         0.0600    7.3980   -0.6870 f         1 B45     -0.133900
     32 CL8        -2.3610   -2.5490   -2.8180 cl        1 B45     -0.065400
     33 CL7        -2.5860   -2.2100    2.5820 cl        1 B45     -0.065400
     34 CL26        0.2380    3.3630    2.3370 cl        1 B45     -0.071400
     35 H6         -2.5490   -6.3680    0.1290 ha        1 B45      0.145000
     36 H21        -0.2610    3.2440   -2.5030 ha        1 B45      0.152000
     37 H22        -0.2030    5.7330   -2.7160 ha        1 B45      0.156000
     38 H1         -2.4380   -5.2640   -2.1030 ha        1 B45      0.154000
     39 H5         -2.6140   -4.9930    2.2060 ha        1 B45      0.154000
     40 H17         2.1130    1.6650   -0.2140 ha        1 B45      0.147000
     41 H19         0.0150   -2.1110   -0.1190 ha        1 B45      0.146000
     42 H24         0.2530    6.0810    1.5840 ha        1 B45      0.165000
     43 H12        -2.6840    2.3590    0.6910 h1        1 B45      0.052700
     44 H12A       -2.5010    2.6270   -1.1040 h1        1 B45      0.052700
     45 H29         3.5050    0.3300   -1.4500 hc        1 B45      0.052200
     46 H29A        2.7960   -1.1300   -2.2540 hc        1 B45      0.052200
     47 H33         2.7040   -0.9510    2.0640 hc        1 B45      0.052200
     48 H33A        3.4480    0.4400    1.1730 hc        1 B45      0.052200
     49 H30         4.4790   -2.6110   -1.3460 h1        1 B45      0.030950
     50 H30A        5.3080   -1.1890   -2.1250 h1        1 B45      0.030950
     51 H32         5.2220   -1.0120    2.0430 h1        1 B45      0.030950
     52 H32A        4.4240   -2.4970    1.3530 h1        1 B45      0.030950
     53 H28         2.2740   -2.1460   -0.0590 hc        1 B45      0.053700
     54 H35         8.6900   -1.5240    0.8800 hc        1 B45      0.038533
     55 H35A        7.6110   -0.0720    1.0120 hc        1 B45      0.038533
     56 H35B        7.3430   -1.5070    2.0900 hc        1 B45      0.038533
     57 H36         7.8080   -3.6960    0.1000 hc        1 B45      0.038533
     58 H36A        6.3650   -3.6190    1.1910 hc        1 B45      0.038533
     59 H36B        6.1410   -3.8390   -0.5940 hc        1 B45      0.038533
     60 H34         7.2010   -1.5870   -1.0060 h1        1 B45      0.052700
     61 HN11       -4.5950    1.4510   -0.5200 hn        1 B45      0.332500
     62 O15        -4.7830   -1.0040   -0.3910 o         1 B45     -0.643500
     63 C34         6.7340   -1.8120    0.0030 c3        1 B45      0.184500
@<TRIPOS>BOND
     1    1    4 ar  
     2    1    5 ar  
     3    1   35 1   
     4    2    3 ar  
     5    2    9 ar  
     6    2   36 1   
     7    3   15 ar  
     8    3   37 1   
     9    4   16 ar  
    10    4   38 1   
    11    5   17 ar  
    12    5   39 1   
    13    6   10 ar  
    14    6   11 ar  
    15    6   40 1   
    16    7   11 ar  
    17    7   13 ar  
    18    7   41 1   
    19    8   15 ar  
    20    8   18 ar  
    21    8   42 1   
    22    9   10 1   
    23    9   18 ar  
    24   10   12 ar  
    25   11   25 1   
    26   12   13 ar  
    27   12   20 1   
    28   13   29 1   
    29   14   16 ar  
    30   14   17 ar  
    31   14   29 1   
    32   15   31 1   
    33   16   32 1   
    34   17   33 1   
    35   18   34 1   
    36   19   28 1   
    37   19   29 1   
    38   19   62 2   
    39   20   28 1   
    40   20   43 1   
    41   20   44 1   
    42   21   23 1   
    43   21   25 1   
    44   21   45 1   
    45   21   46 1   
    46   22   24 1   
    47   22   25 1   
    48   22   47 1   
    49   22   48 1   
    50   23   30 1   
    51   23   49 1   
    52   23   50 1   
    53   24   30 1   
    54   24   51 1   
    55   24   52 1   
    56   25   53 1   
    57   26   54 1   
    58   26   55 1   
    59   26   56 1   
    60   26   63 1   
    61   27   57 1   
    62   27   58 1   
    63   27   59 1   
    64   27   63 1   
    65   28   61 1   
    66   30   63 1   
    67   60   63 1   
@<TRIPOS>SUBSTRUCTURE
     1 B45         1 TEMP              0 ****  ****    0 ROOT
