@<TRIPOS>MOLECULE
B45
   63    56     1     0     0
SMALL
bcc


@<TRIPOS>ATOM
      1 C6         -2.5090    2.2920   -5.6080 c1        1 B45     -0.121500
      2 C21         3.0960    2.1950    2.5350 c1        1 B45     -0.121500
      3 C22         3.7530    2.1240    3.7510 c1        1 B45     -0.121500
      4 C1         -1.1190    2.2730   -5.5630 c1        1 B45     -0.128000
      5 C5         -3.2520    2.4620   -4.4220 c1        1 B45     -0.121500
      6 C17         0.7290    0.8200    1.2700 c1        1 B45     -0.133000
      7 C19        -0.3910    1.0280   -0.8790 c1        1 B45     -0.159000
      8 C24         1.6660    2.2520    4.9110 c1        1 B45     -0.168000
      9 C20         1.6980    2.2970    2.4990 c1        1 B45     -0.055000
     10 C16         1.0090    2.1880    1.2530 c1        1 B45     -0.007000
     11 C18         0.0290    0.2370    0.2050 c1        1 B45     -0.030000
     12 C13         0.5760    2.9980    0.1370 c1        1 B45     -0.117000
     13 C14        -0.1070    2.4200   -0.8980 c1        1 B45      0.110000
     14 C3         -1.1820    2.5890   -3.1720 c1        1 B45      0.068000
     15 C23         3.0290    2.1530    4.9400 c1        1 B45      0.104000
     16 C2         -0.4540    2.4230   -4.3340 c2        1 B45     -0.042000
     17 C4         -2.6060    2.6080   -3.2230 c1        1 B45     -0.037000
     18 C25         0.9860    2.3260    3.6700 c1        1 B45     -0.027000
     19 C10        -0.2720    4.6370   -2.0520 c1        1 B45      0.407000
     20 C12         0.7320    4.5070    0.1860 c3        1 B45      0.018000
     21 C29         0.9810   -2.0750   -0.1540 c3        1 B45     -0.152000
     22 C33        -1.2460   -1.8250    0.8950 c3        1 B45     -0.152000
     23 C30         0.7440   -3.5560   -0.2890 c3        1 B45     -0.070000
     24 C32        -1.4690   -3.3250    0.7600 c3        1 B45     -0.070000
     25 C28        -0.2950   -1.3000   -0.1220 c3        1 B45     -0.071000
     26 C35         0.7110   -6.3820    0.7620 c3        1 B45     -0.212000
     27 C36        -1.6780   -5.9480    1.2500 c3        1 B45     -0.212000
     28 C34        -0.5230   -5.4970    0.4290 c3        1 B45     -0.014000
     29 N11         0.4130    5.2580   -0.9590 n2        1 B45     -0.358000
     30 N9         -0.5100    3.2210   -2.0420 n2        1 B45     -0.247000
     31 N31        -0.2220   -4.0780    0.7270 n3        1 B45     -0.249000
     32 O15        -0.6510    5.3000   -2.9750 o         1 B45     -0.367000
     33 F27         3.5880    2.2100    6.1330 f         1 B45     -0.099000
     34 CL8         1.3090    2.4080   -4.2790 cl        1 B45      0.013000
     35 CL7        -3.9600    2.9990   -2.1760 cl        1 B45      0.013000
     36 CL26       -0.5550    2.1650    4.4260 cl        1 B45      0.007000
     37 H6         -2.9700    2.1880   -6.4600 ha        1 B45      0.152000
     38 H21         3.5770    2.1770    1.7530 ha        1 B45      0.152000
     39 H22         4.7810    2.0490    3.7760 ha        1 B45      0.152000
     40 H1         -0.5940    2.1520   -6.4050 ha        1 B45      0.154000
     41 H5         -4.2560    2.4760   -4.4560 ha        1 B45      0.152000
     42 H17         1.0130    0.2830    2.0050 ha        1 B45      0.147000
     43 H19        -0.8670    0.6310   -1.6010 ha        1 B45      0.146000
     44 H24         1.1590    2.2730    5.7490 ha        1 B45      0.165000
     45 H12         1.7000    4.7050    0.4230 h1        1 B45      0.092000
     46 H12A        0.1840    4.8290    0.9010 h1        1 B45      0.092000
     47 H29         1.4860   -1.9040    0.6910 hc        1 B45      0.091750
     48 H29A        1.5540   -1.7520   -0.9580 hc        1 B45      0.091750
     49 H33        -2.1090   -1.3650    0.7920 hc        1 B45      0.091750
     50 H33A       -0.9010   -1.6430    1.7590 hc        1 B45      0.091750
     51 H30         1.5720   -4.0110   -0.1910 h1        1 B45      0.071250
     52 H30A        0.3940   -3.7320   -1.1610 h1        1 B45      0.071250
     53 H32        -2.0120   -3.6390    1.5280 h1        1 B45      0.071250
     54 H32A       -1.9630   -3.4990   -0.0700 h1        1 B45      0.071250
     55 H28        -0.7030   -1.3510   -0.9730 hc        1 B45      0.094000
     56 H35         0.7340   -6.5730    1.7580 hc        1 B45      0.078833
     57 H35A        0.6460   -7.2310    0.2680 hc        1 B45      0.078833
     58 H35B        1.5210   -5.9200    0.5030 hc        1 B45      0.078833
     59 H36        -1.3700   -6.1240    2.2020 hc        1 B45      0.078833
     60 H36A       -2.3860   -5.2410    1.2550 hc        1 B45      0.078833
     61 H36B       -2.0480   -6.7830    0.8640 hc        1 B45      0.078833
     62 H34        -0.7570   -5.5920   -0.5780 h1        1 B45      0.054000
     63 HN11        0.5690    6.1920   -0.9690 hn        1 B45      0.246000
@<TRIPOS>BOND
     1    1    5 1   
     2    1   37 1   
     3    2    3 1   
     4    2   38 1   
     5    3   39 1   
     6    4   16 1   
     7    4   40 1   
     8    5   41 1   
     9    6   10 1   
    10    6   42 1   
    11    7   11 1   
    12    7   43 1   
    13    8   15 1   
    14    8   44 1   
    15    9   18 1   
    16   11   25 1   
    17   12   13 1   
    18   12   20 1   
    19   13   30 1   
    20   14   16 1   
    21   14   17 1   
    22   15   33 1   
    23   16   34 1   
    24   17   35 1   
    25   18   36 1   
    26   19   30 1   
    27   19   32 1   
    28   20   29 1   
    29   20   45 1   
    30   20   46 1   
    31   21   23 1   
    32   21   25 1   
    33   21   47 1   
    34   21   48 1   
    35   22   24 1   
    36   22   25 1   
    37   22   49 1   
    38   22   50 1   
    39   23   31 1   
    40   23   51 1   
    41   23   52 1   
    42   24   31 1   
    43   24   53 1   
    44   24   54 1   
    45   25   55 1   
    46   26   28 1   
    47   26   56 1   
    48   26   57 1   
    49   26   58 1   
    50   27   28 1   
    51   27   59 1   
    52   27   60 1   
    53   27   61 1   
    54   28   31 1   
    55   28   62 1   
    56   29   63 1   
@<TRIPOS>SUBSTRUCTURE
     1 B45         1 TEMP              0 ****  ****    0 ROOT
