@<TRIPOS>MOLECULE
B45
   63    63     1     0     0
SMALL
bcc


@<TRIPOS>ATOM
      1 C6          3.6340    3.7850    0.1840 c2        1 B45     -0.516000
      2 C21         2.3990   -4.6070    6.1640 ca        1 B45     -0.094000
      3 C22         2.5140   -5.2820    7.3760 ca        1 B45     -0.137000
      4 C1          2.5700    3.1810    0.8670 c1        1 B45     -0.028000
      5 C5          3.7620    5.1020    0.0530 c1        1 B45      0.401000
      6 C17         0.9720   -3.2540    3.7560 ca        1 B45     -0.113000
      7 C19         1.5920   -1.4640    2.2530 ca        1 B45     -0.125000
      8 C24         1.4380   -3.3790    8.4820 ca        1 B45     -0.161000
      9 C20         1.8230   -3.3300    6.0820 cp        1 B45     -0.049000
     10 C16         1.7410   -2.6770    4.7720 cq        1 B45     -0.027000
     11 C18         0.8900   -2.6450    2.5010 ca        1 B45     -0.056000
     12 C13         2.4380   -1.4880    4.5350 ca        1 B45     -0.130000
     13 C14         2.3770   -0.8770    3.2660 ca        1 B45      0.045000
     14 C3          2.3690    1.4450    2.5230 c2        1 B45      0.015000
     15 C23         2.0250   -4.6520    8.5450 ca        1 B45      0.103000
     16 C2          2.3860    1.7460    1.0310 c3        1 B45     -0.048000
     17 C4          1.6530    2.2820    3.3070 c2        1 B45     -0.107000
     18 C25         1.3410   -2.7250    7.2520 ca        1 B45     -0.030000
     19 C10         4.4840    0.4240    3.1750 c2        1 B45      0.334000
     20 C12         6.5480   -0.7970    3.6740 c1        1 B45     -0.109000
     21 C29         0.6830   -4.5050    0.8620 c3        1 B45     -0.209000
     22 C33         0.6800  -13.7420    6.9580 c1        1 B45     -0.220000
     23 C30         3.1430   -6.6410    7.5200 c3        1 B45     -0.035000
     24 C32         1.1320  -12.6560    6.7470 c1        1 B45     -0.220000
     25 C28         0.0520   -3.2570    1.4310 c3        1 B45     -0.127000
     26 C35         3.0750   -7.8880    4.0010 c3        1 B45     -0.217000
     27 C36         2.2060   -9.2730    5.8740 c3        1 B45     -0.217000
     28 N11         5.2590   -0.7640    3.4900 n         1 B45     -0.193000
     29 N9          3.0870    0.3310    3.0230 n         1 B45     -0.252000
     30 N31         3.6420   -7.3170    6.3530 n3        1 B45     -0.299000
     31 F27         2.1180   -5.2790    9.7420 f         1 B45     -0.097000
     32 CL8         3.4870    0.6820    0.1080 cl        1 B45     -0.164000
     33 CL7         1.4900    2.1330    4.9740 cl        1 B45      0.008000
     34 CL26        0.6120   -1.1910    7.2160 cl        1 B45      0.008000
     35 H6          4.4520    3.1590   -0.2590 ha        1 B45      0.204000
     36 H21         2.3880   -7.3130    8.0250 h1        1 B45      0.112000
     37 H22         2.7630   -5.0700    5.2320 ha        1 B45      0.145000
     38 H1          1.3710    1.4880    0.6050 h1        1 B45      0.155000
     39 H5          1.1170    3.1470    2.8790 h4        1 B45      0.190000
     40 H17         0.4210   -4.1880    3.9490 ha        1 B45      0.144000
     41 H19         1.5300   -0.9910    1.2590 ha        1 B45      0.150000
     42 H24         1.0610   -2.9090    9.4040 ha        1 B45      0.166000
     43 H12         3.0200   -1.0310    5.3510 ha        1 B45      0.156000
     44 H12A        7.1170    0.1520    3.5970 ha        1 B45      0.083000
     45 H29         1.6670   -4.2710    0.3900 hc        1 B45      0.078000
     46 H29A        0.8480   -5.2630    1.6650 hc        1 B45      0.078000
     47 H33         0.2800  -14.7060    7.1460 ha        1 B45      0.219000
     48 H33A       -0.9570   -3.5100    1.8580 hc        1 B45      0.091500
     49 H30         4.0180   -6.5280    8.2290 h1        1 B45      0.112000
     50 H30A        0.0150   -4.9500    0.0850 hc        1 B45      0.078000
     51 H32         4.2850   -6.7400    5.8450 hn        1 B45      0.164000
     52 H32A        1.5340  -11.6900    6.5600 ha        1 B45      0.219000
     53 H28        -0.1160   -2.5150    0.6050 hc        1 B45      0.091500
     54 H35         3.9870   -8.5210    3.8810 hc        1 B45      0.079667
     55 H35A        3.3030   -6.8590    3.6330 hc        1 B45      0.079667
     56 H35B        2.2600   -8.3170    3.3700 hc        1 B45      0.079667
     57 H36         1.6840   -7.2120    5.5050 h1        1 B45      0.064000
     58 H36A        3.0730   -9.9730    5.8020 hc        1 B45      0.079667
     59 H36B        1.8260   -9.2840    6.9240 hc        1 B45      0.079667
     60 H34         1.3950   -9.6300    5.1950 hc        1 B45      0.079667
     61 HN11        4.7450   -1.6220    3.5560 hn        1 B45      0.254000
     62 O15         5.0690    1.5170    3.0460 o         1 B45     -0.340000
     63 C34         2.6170   -7.8580    5.4590 c3        1 B45     -0.026000
@<TRIPOS>BOND
     1    1    4 1   
     2    1    5 1   
     3    1   35 1   
     4    2    3 1   
     5    2    9 1   
     6    2   37 1   
     7    3   15 1   
     8    3   23 1   
     9    4   16 1   
    10    6   10 1   
    11    6   11 1   
    12    6   40 1   
    13    7   11 1   
    14    7   13 1   
    15    7   41 1   
    16    8   15 1   
    17    8   18 1   
    18    8   42 1   
    19    9   10 1   
    20    9   18 1   
    21   10   12 1   
    22   11   25 1   
    23   12   13 1   
    24   12   43 1   
    25   13   29 1   
    26   14   16 1   
    27   14   17 1   
    28   14   29 1   
    29   15   31 1   
    30   16   32 1   
    31   16   38 1   
    32   17   33 1   
    33   17   39 1   
    34   18   34 1   
    35   19   28 1   
    36   19   29 1   
    37   19   62 1   
    38   20   28 1   
    39   20   44 1   
    40   21   25 1   
    41   21   45 1   
    42   21   46 1   
    43   21   50 1   
    44   22   24 1   
    45   22   47 1   
    46   23   30 1   
    47   23   36 1   
    48   23   49 1   
    49   24   52 1   
    50   25   48 1   
    51   25   53 1   
    52   26   54 1   
    53   26   55 1   
    54   26   56 1   
    55   26   63 1   
    56   27   58 1   
    57   27   59 1   
    58   27   60 1   
    59   27   63 1   
    60   28   61 1   
    61   30   51 1   
    62   30   63 1   
    63   57   63 1   
@<TRIPOS>SUBSTRUCTURE
     1 B45         1 TEMP              0 ****  ****    0 ROOT
