@<TRIPOS>MOLECULE
B45
   63    64     1     0     0
SMALL
bcc


@<TRIPOS>ATOM
      1 C6          0.8910    2.2700   -0.0850 c2        1 B45     -0.516000
      2 C21         3.8820   -3.7080    8.1170 c3        1 B45     -0.031000
      3 C22         3.8720   -3.3790    9.5430 cu        1 B45     -0.183000
      4 C1          0.3030    1.3060    0.7470 c1        1 B45     -0.028000
      5 C5          0.2270    3.3100   -0.5780 c1        1 B45      0.400000
      6 C17         2.4890   -3.8000    5.3930 ca        1 B45     -0.110000
      7 C19         2.1460   -2.4450    3.4170 ca        1 B45     -0.126000
      8 C24         2.5940   -2.6330    9.9610 cx        1 B45     -0.118000
      9 C20         2.7800   -2.7610    7.6120 c2        1 B45     -0.088000
     10 C16         2.5590   -2.6460    6.1840 ca        1 B45     -0.016000
     11 C18         2.2770   -3.6990    4.0150 ca        1 B45     -0.060000
     12 C13         2.4190   -1.3850    5.5910 ca        1 B45     -0.132000
     13 C14         2.2210   -1.2750    4.2000 ca        1 B45      0.042000
     14 C3          0.9210    0.2620    2.8240 c2        1 B45      0.015000
     15 C23         3.9920   -2.3880   10.4180 cu        1 B45      0.077000
     16 C2          0.9890    0.1510    1.3070 c3        1 B45     -0.047000
     17 C4         -0.2720    0.6090    3.3570 c2        1 B45     -0.107000
     18 C25         2.1250   -2.1280    8.6290 c2        1 B45     -0.085000
     19 C10         3.0860    0.9870    3.6790 c2        1 B45      0.334000
     20 C12         5.3560    1.4960    4.4440 c1        1 B45     -0.109000
     21 C29         3.5120   -5.6610    3.1190 c3        1 B45     -0.146000
     22 C33         3.5470   -7.2770    7.4440 c1        1 B45     -0.254500
     23 C30         3.3290   -6.9800    2.4200 cx        1 B45     -0.046000
     24 C32         3.4130   -7.5670    6.2900 c1        1 B45     -0.254500
     25 C28         2.1790   -4.9360    3.1900 c3        1 B45     -0.115000
     26 C35         2.2240   -9.3200    2.9710 c3        1 B45     -0.139000
     27 C36        -1.2960   -9.8260    1.3360 c3        1 B45     -0.269000
     28 N11         4.3560    0.6710    4.3090 ns        1 B45     -0.193000
     29 N9          2.0790    0.0070    3.5990 n         1 B45     -0.251000
     30 N31         4.4100   -8.0120    2.4920 ny        1 B45     -0.085000
     31 F27         4.7210   -1.7080   11.2620 f         1 B45     -0.021000
     32 Cl8         2.6340   -0.1850    0.6940 cl        1 B45     -0.167000
     33 Cl7        -0.5770    0.7810    5.0020 cl        1 B45      0.009000
     34 Cl26        0.8690   -1.0270    8.5190 cl        1 B45      0.028000
     35 H6          1.9810    2.2090   -0.3390 ha        1 B45      0.204000
     36 H21         3.6120   -4.7770    7.9070 hc        1 B45      0.126500
     37 H22         4.8650   -3.4800    7.6330 hc        1 B45      0.126500
     38 H1          0.4120   -0.7680    0.9920 h1        1 B45      0.154000
     39 H5         -1.1460    0.8110    2.7150 h4        1 B45      0.190000
     40 H17         2.5910   -4.7950    5.8580 ha        1 B45      0.157000
     41 H19         1.9830   -2.3710    2.3290 ha        1 B45      0.148000
     42 H24         1.8140   -2.9810   10.6520 hc        1 B45      0.151000
     43 H12         2.4540   -0.4830    6.2240 ha        1 B45      0.156000
     44 H12A        5.2420    2.5310    4.0620 ha        1 B45      0.082000
     45 H29         4.2600   -5.0330    2.5670 hc        1 B45      0.094500
     46 H29A        3.8990   -5.8280    4.1610 hc        1 B45      0.094500
     47 H33         3.6650   -7.0380    8.4700 ha        1 B45      0.244500
     48 H33A        1.4130   -5.6210    3.6450 hc        1 B45      0.099500
     49 H30         2.9420   -6.8560    1.3780 hx        1 B45      0.096000
     50 H30A        4.6540   -8.5020    1.6440 hn        1 B45      0.198500
     51 H32         3.2880   -7.8400    5.2500 ha        1 B45      0.244500
     52 H32A        5.2130   -7.8290    3.0720 hn        1 B45      0.198500
     53 H28         1.8320   -4.6850    2.1520 hc        1 B45      0.099500
     54 H35         1.2450   -9.0500    3.4430 hc        1 B45      0.065667
     55 H35A        2.6050  -10.2510    3.4610 hc        1 B45      0.065667
     56 H35B        2.0400   -9.5470    1.8870 hc        1 B45      0.065667
     57 H36        -0.2930   -9.6770    1.7940 hc        1 B45      0.067000
     58 H36A       -2.0390   -9.1790    1.8500 hc        1 B45      0.067000
     59 H36B       -1.5970  -10.8910    1.4420 hc        1 B45      0.067000
     60 H34        -1.2550   -9.5590    0.2580 hc        1 B45      0.067000
     61 HN11        4.4580   -0.2640    4.6530 hn        1 B45      0.254000
     62 O15         2.9020    2.1310    3.2160 o         1 B45     -0.342000
     63 C34         3.1490   -8.2160    3.2010 cu        1 B45     -0.452000
@<TRIPOS>BOND
     1    1    4 1   
     2    1    5 1   
     3    1   35 1   
     4    2    3 1   
     5    2    9 1   
     6    2   36 1   
     7    2   37 1   
     8    3    8 1   
     9    3   15 1   
    10    4   16 1   
    11    6   10 1   
    12    6   11 1   
    13    6   40 1   
    14    7   11 1   
    15    7   13 1   
    16    7   41 1   
    17    8   15 1   
    18    8   18 1   
    19    8   42 1   
    20    9   10 1   
    21    9   18 1   
    22   10   12 1   
    23   11   25 1   
    24   12   13 1   
    25   12   43 1   
    26   13   29 1   
    27   14   16 1   
    28   14   17 1   
    29   14   29 1   
    30   15   31 1   
    31   16   32 1   
    32   16   38 1   
    33   17   33 1   
    34   17   39 1   
    35   18   34 1   
    36   19   28 1   
    37   19   29 1   
    38   19   62 1   
    39   20   28 1   
    40   20   44 1   
    41   21   23 1   
    42   21   25 1   
    43   21   45 1   
    44   21   46 1   
    45   22   24 1   
    46   22   47 1   
    47   23   30 1   
    48   23   49 1   
    49   23   63 1   
    50   24   51 1   
    51   25   48 1   
    52   25   53 1   
    53   26   54 1   
    54   26   55 1   
    55   26   56 1   
    56   26   63 1   
    57   27   57 1   
    58   27   58 1   
    59   27   59 1   
    60   27   60 1   
    61   28   61 1   
    62   30   50 1   
    63   30   52 1   
    64   30   63 1   
@<TRIPOS>SUBSTRUCTURE
     1 B45         1 TEMP              0 ****  ****    0 ROOT
