@<TRIPOS>MOLECULE
B46
   52    47     1     0     0
SMALL
bcc


@<TRIPOS>ATOM
      1 O1         -4.9470    0.0340   -4.7130 o         1 B46     -0.388000
      2 C2         -3.8260    0.1040   -5.2080 c1        1 B46      0.379000
      3 N3         -2.6520    0.2120   -4.3450 n3        1 B46     -0.309000
      4 C4         -2.8160    0.4350   -2.9550 c3        1 B46      0.038000
      5 C5         -1.5430   -0.0290   -2.1960 c2        1 B46     -0.169000
      6 C6         -1.0350    0.5470   -1.0620 c1        1 B46     -0.206000
      7 C7          0.0050   -0.2420   -0.6140 c2        1 B46      0.000000
      8 N8          0.1300   -1.2830   -1.4600 n2        1 B46     -0.125000
      9 N9         -0.8330   -1.1530   -2.4470 n2        1 B46     -0.079000
     10 C11         0.8520    0.0460    0.4760 c2        1 B46     -0.364000
     11 S12         1.8970    1.1780    0.5330 ss        1 B46      0.558000
     12 C13         2.4660    1.2120    1.9570 c2        1 B46     -0.232000
     13 N14         1.8200    0.1790    2.7170 n2        1 B46     -0.126000
     14 C15         0.7930   -0.5630    1.7740 c1        1 B46      0.025000
     15 N16        -0.0890   -1.6790    2.1640 n2        1 B46     -0.200000
     16 C17        -0.9630   -1.2490    3.2510 c3        1 B46     -0.065000
     17 C18        -0.2310   -1.0590    4.5240 c3        1 B46     -0.186000
     18 C19         0.5770   -2.2280    4.8830 c3        1 B46     -0.156000
     19 C20         1.4560   -2.6600    3.7810 c3        1 B46     -0.186000
     20 C21         0.7210   -2.8430    2.5150 c3        1 B46     -0.065000
     21 C22         3.4910    2.1400    2.4550 c1        1 B46     -0.079000
     22 C23         4.8030    1.8190    2.3440 c1        1 B46     -0.117500
     23 C24         5.7560    2.7240    2.6970 c1        1 B46     -0.117500
     24 C25         5.3800    3.9770    3.1700 c1        1 B46     -0.061000
     25 N26         4.0670    4.2950    3.2800 n1        1 B46     -0.133000
     26 C27         3.1200    3.3960    2.9300 c1        1 B46     -0.061000
     27 O28        -3.6660    0.0370   -6.6220 o         1 B46     -0.279000
     28 C29        -4.8880    0.0030   -7.3440 c3        1 B46      0.104000
     29 C30        -4.5930    0.1900   -8.8750 c1        1 B46     -0.200000
     30 C31        -4.3620    0.3350  -10.0780 c1        1 B46     -0.176000
     31 HN3        -1.8210    0.0580   -4.6860 hn        1 B46      0.236000
     32 H4         -3.5730   -0.0600   -2.6410 h1        1 B46      0.121500
     33 H4A        -2.9590    1.3790   -2.7940 h1        1 B46      0.121500
     34 H6         -1.3580    1.3810   -0.6390 DU        1 B46      0.228333
     35 H17        -1.3910   -0.4020    3.0000 h1        1 B46      0.098000
     36 H17A       -1.6850   -1.9540    3.3920 h1        1 B46      0.098000
     37 H18         0.3610   -0.2780    4.4360 hc        1 B46      0.093000
     38 H18A       -0.8560   -0.8940    5.2140 hc        1 B46      0.093000
     39 H19         1.1150   -2.0100    5.6380 hc        1 B46      0.081000
     40 H19A       -0.0020   -2.9420    5.1150 hc        1 B46      0.081000
     41 H20         2.1240   -2.0130    3.6540 hc        1 B46      0.093000
     42 H20A        1.8640   -3.4790    4.0170 hc        1 B46      0.093000
     43 H21         0.1390   -3.6170    2.6000 h1        1 B46      0.098000
     44 H21A        1.3780   -3.0120    1.7850 h1        1 B46      0.098000
     45 H23         5.0600    0.9470    2.0150 ha        1 B46      0.154500
     46 H24         6.7320    2.4860    2.6150 ha        1 B46      0.154500
     47 H25         6.0430    4.6090    3.4160 ha        1 B46      0.164000
     48 H27         2.1720    3.6280    3.0090 ha        1 B46      0.162000
     49 H29        -5.3540   -0.8990   -7.1910 h1        1 B46      0.125500
     50 H29A       -5.4460    0.6960   -7.0470 h1        1 B46      0.125500
     51 H31        -4.1740    0.4500  -11.0480 DU        1 B46      0.228333
     52 HN8         0.7380   -1.9510   -1.3950 DU        1 B46      0.228333
@<TRIPOS>BOND
     1    1    2 1   
     2    2    3 1   
     3    3    4 1   
     4    3   31 1   
     5    4    5 1   
     6    4   32 1   
     7    4   33 1   
     8    5    6 1   
     9    5    9 1   
    10    6    7 1   
    11    7    8 1   
    12    7   10 1   
    13    8    9 1   
    14   10   11 1   
    15   10   14 1   
    16   11   12 1   
    17   12   13 1   
    18   12   21 1   
    19   13   14 1   
    20   15   16 1   
    21   15   20 1   
    22   16   17 1   
    23   16   35 1   
    24   16   36 1   
    25   17   18 1   
    26   17   37 1   
    27   17   38 1   
    28   18   19 1   
    29   18   39 1   
    30   18   40 1   
    31   19   20 1   
    32   19   41 1   
    33   19   42 1   
    34   20   43 1   
    35   20   44 1   
    36   21   26 1   
    37   22   23 1   
    38   22   45 1   
    39   23   46 1   
    40   24   25 1   
    41   24   47 1   
    42   26   48 1   
    43   27   28 1   
    44   28   29 1   
    45   28   49 1   
    46   28   50 1   
    47   29   30 1   
@<TRIPOS>SUBSTRUCTURE
     1 B46         1 TEMP              0 ****  ****    0 ROOT
