@<TRIPOS>MOLECULE
B46
   53    55     1     0     0
SMALL
bcc


@<TRIPOS>ATOM
      1 O1          0.8170   -1.2510   -0.4100 o         1 B46     -0.472000
      2 C2          1.3440   -0.1710   -0.1510 c         1 B46      0.738100
      3 N3          1.8630    0.1870    1.1400 n         1 B46     -0.382500
      4 C4          1.8070   -0.6580    2.1700 ce        1 B46      0.372500
      5 C5          2.3040   -0.3490    3.4560 cc        1 B46      0.095000
      6 C6          2.9460    0.8680    3.9270 cc        1 B46     -0.229300
      7 C7          3.2350    0.6310    5.2800 cd        1 B46      0.034700
      8 N8          2.7620   -0.6890    5.5460 na        1 B46      0.097400
      9 N9          2.2290   -1.2630    4.5200 nd        1 B46     -0.380800
     10 C11         3.8580    1.4620    6.2540 cd        1 B46     -0.207400
     11 S12         4.4200    3.0100    5.9140 ss        1 B46     -0.041300
     12 C13         4.9590    3.2100    7.5360 cd        1 B46      0.524900
     13 N14         4.7310    2.1560    8.3320 nc        1 B46     -0.650000
     14 C15         4.0990    1.1410    7.6130 cc        1 B46      0.582200
     15 N16         3.7220   -0.1190    8.1790 nh        1 B46     -0.741300
     16 C17         4.8830   -0.8920    8.6380 c3        1 B46      0.155800
     17 C18         4.4780   -2.2680    9.1660 c3        1 B46     -0.080400
     18 C19         3.4260   -2.1490   10.2480 c3        1 B46     -0.085400
     19 C20         2.2480   -1.3300    9.7670 c3        1 B46     -0.080400
     20 C21         2.7030    0.0250    9.2260 c3        1 B46      0.155800
     21 C22         5.5960    4.4410    7.9550 ca        1 B46     -0.292800
     22 C23         5.9540    5.4200    7.0100 ca        1 B46     -0.075000
     23 C24         6.5610    6.5930    7.4480 ca        1 B46     -0.243300
     24 C25         6.7970    6.7540    8.8290 ca        1 B46      0.433200
     25 N26         6.4630    5.8300    9.7480 nb        1 B46     -0.656000
     26 C27         5.8760    4.6990    9.3190 ca        1 B46      0.460200
     27 O28         1.4780    0.8550   -1.0270 os        1 B46     -0.406900
     28 C29         1.1580    0.5660   -2.4200 c3        1 B46      0.246500
     29 C30         2.2600   -0.0570   -3.0880 c1        1 B46     -0.234100
     30 C31         3.1570   -0.5720   -3.6900 c1        1 B46     -0.033500
     31 HN3         2.2690    1.1070    1.2230 hn        1 B46      0.373500
     32 H4          1.3350   -1.6590    1.9820 h4        1 B46      0.099800
     33 H4A         3.1270    2.9740    1.5100 ha        1 B46      0.003500
     34 H6          3.1540    1.7670    3.3530 ha        1 B46      0.186000
     35 H17         5.4460   -0.3470    9.4500 h1        1 B46      0.055700
     36 H17A        5.5760   -1.0180    7.7600 h1        1 B46      0.055700
     37 H18         5.3950   -2.7680    9.5720 hc        1 B46      0.052950
     38 H18A        4.0890   -2.9020    8.3270 hc        1 B46      0.052950
     39 H19         3.8750   -1.6640   11.1550 hc        1 B46      0.057700
     40 H19A        3.0780   -3.1710   10.5520 hc        1 B46      0.057700
     41 H20         1.6920   -1.8940    8.9740 hc        1 B46      0.052950
     42 H20A        1.5360   -1.1440   10.6130 hc        1 B46      0.052950
     43 H21         1.8220    0.5600    8.7730 h1        1 B46      0.055700
     44 H21A        3.0820    0.6470   10.0870 h1        1 B46      0.055700
     45 H23         5.7610    5.2610    5.9380 ha        1 B46      0.136000
     46 H24         6.8560    7.3790    6.7390 ha        1 B46      0.159000
     47 H25         7.2780    7.6710    9.2190 h4        1 B46      0.041100
     48 H27         5.6180    3.9630   10.1050 h4        1 B46      0.050100
     49 H29         0.2310   -0.0690   -2.4660 h1        1 B46      0.108700
     50 H29A        0.9620    1.6070   -2.8140 h1        1 B46      0.108700
     51 H31         3.9490   -1.0310   -4.2320 ha        1 B46      0.184500
     52 HN8         2.8270   -1.1500    6.4490 hn        1 B46      0.391700
     53 H32         3.0170    3.1630    0.8680 ha        1 B46      0.003500
@<TRIPOS>BOND
     1    1    2 2   
     2    2    3 1   
     3    2   27 1   
     4    3    4 2   
     5    3   31 1   
     6    4    5 1   
     7    4   32 1   
     8    5    6 1   
     9    5    9 2   
    10    6    7 2   
    11    6   34 1   
    12    7    8 1   
    13    7   10 1   
    14    8    9 1   
    15    8   52 1   
    16   10   11 1   
    17   10   14 2   
    18   11   12 1   
    19   12   13 2   
    20   12   21 1   
    21   13   14 1   
    22   14   15 1   
    23   15   16 1   
    24   15   20 1   
    25   16   17 1   
    26   16   35 1   
    27   16   36 1   
    28   17   18 1   
    29   17   37 1   
    30   17   38 1   
    31   18   19 1   
    32   18   39 1   
    33   18   40 1   
    34   19   20 1   
    35   19   41 1   
    36   19   42 1   
    37   20   43 1   
    38   20   44 1   
    39   21   22 ar  
    40   21   26 ar  
    41   22   23 ar  
    42   22   45 1   
    43   23   24 ar  
    44   23   46 1   
    45   24   25 ar  
    46   24   47 1   
    47   25   26 ar  
    48   26   48 1   
    49   27   28 1   
    50   28   29 1   
    51   28   49 1   
    52   28   50 1   
    53   29   30 3   
    54   30   51 1   
    55   33   53 1   
@<TRIPOS>SUBSTRUCTURE
     1 B46         1 TEMP              0 ****  ****    0 ROOT
