@<TRIPOS>MOLECULE
B46
   52    55     1     0     0
SMALL
bcc


@<TRIPOS>ATOM
      1 O1         -5.4790    1.4350    1.3590 o         1 B46     -0.579000
      2 C2         -5.5770    0.2840    0.9040 c         1 B46      0.724100
      3 N3         -4.9970   -0.8830    1.3820 n         1 B46     -0.501900
      4 C4         -3.8000   -0.7820    2.1800 c3        1 B46      0.060700
      5 C5         -2.5140   -0.8960    1.4310 cc        1 B46      0.251600
      6 C6         -1.3640   -0.0500    1.6170 cc        1 B46     -0.270300
      7 C7         -0.3960   -0.5500    0.7170 cd        1 B46     -0.027300
      8 N8         -1.0080   -1.6310    0.0590 na        1 B46      0.024400
      9 N9         -2.2450   -1.8430    0.4760 nd        1 B46     -0.510800
     10 C11         0.9280   -0.0810    0.4620 cd        1 B46     -0.141400
     11 S12         1.3790    1.5110    0.7380 ss        1 B46     -0.034300
     12 C13         2.9720    1.1950    0.1800 cd        1 B46      0.455900
     13 N14         3.1910   -0.0690   -0.2020 nc        1 B46     -0.649000
     14 C15         2.0190   -0.8220   -0.0480 cc        1 B46      0.539200
     15 N16         1.9090   -2.1970   -0.4060 nh        1 B46     -0.715300
     16 C17         2.7580   -2.5970   -1.5280 c3        1 B46      0.168800
     17 C18         2.5010   -4.0450   -1.9480 c3        1 B46     -0.080400
     18 C19         2.6550   -4.9870   -0.7730 c3        1 B46     -0.081400
     19 C20         1.7860   -4.5470    0.3850 c3        1 B46     -0.080400
     20 C21         2.0480   -3.0860    0.7500 c3        1 B46      0.168800
     21 C22         3.9690    2.2480    0.1580 ca        1 B46     -0.253800
     22 C23         3.5890    3.5960    0.2730 ca        1 B46     -0.085000
     23 C24         4.5740    4.5810    0.2550 ca        1 B46     -0.245300
     24 C25         5.9180    4.1860    0.1180 ca        1 B46      0.407200
     25 N26         6.3040    2.9010    0.0030 nb        1 B46     -0.666000
     26 C27         5.3480    1.9560    0.0230 ca        1 B46      0.440200
     27 O28        -6.4510    0.0480   -0.1430 os        1 B46     -0.438900
     28 C29        -7.1430    1.1860   -0.6770 c3        1 B46      0.228500
     29 C30        -6.4190    1.7810   -1.7680 c1        1 B46     -0.170100
     30 C31        -5.8340    2.2900   -2.6790 c1        1 B46     -0.120500
     31 HN3        -5.0550   -1.6730    0.7740 hn        1 B46      0.322500
     32 H4         -3.8060    0.2040    2.7300 h1        1 B46      0.081200
     33 H4A        -3.8490   -1.6190    2.9380 h1        1 B46      0.081200
     34 H6         -1.2730    0.7870    2.2990 ha        1 B46      0.171000
     35 H17         2.5280   -1.9130   -2.3910 h1        1 B46      0.048450
     36 H17A        3.8540   -2.4900   -1.2810 h1        1 B46      0.048450
     37 H18         1.4700   -4.1420   -2.3780 hc        1 B46      0.049200
     38 H18A        3.2330   -4.3090   -2.7530 hc        1 B46      0.049200
     39 H19         2.3750   -6.0280   -1.0820 hc        1 B46      0.044700
     40 H19A        3.7290   -5.0090   -0.4490 hc        1 B46      0.044700
     41 H20         0.7050   -4.6840    0.1200 hc        1 B46      0.049200
     42 H20A        1.9980   -5.1750    1.2880 hc        1 B46      0.049200
     43 H21         3.0780   -3.0070    1.2030 h1        1 B46      0.048450
     44 H21A        1.3010   -2.7570    1.5260 h1        1 B46      0.048450
     45 H23         2.5270    3.8700    0.3720 ha        1 B46      0.142000
     46 H24         4.3120    5.6430    0.3430 ha        1 B46      0.149000
     47 H25         6.7290    4.9360    0.0990 h4        1 B46      0.027100
     48 H27         5.6990    0.9110   -0.0760 h4        1 B46      0.045100
     49 H29        -8.1130    0.7390   -1.0400 h1        1 B46      0.086200
     50 H29A       -7.3360    1.9460    0.1310 h1        1 B46      0.086200
     51 H31        -5.3170    2.7450   -3.4860 ha        1 B46      0.165500
     52 HN8        -0.5890   -2.2210   -0.6260 hn        1 B46      0.344700
@<TRIPOS>BOND
     1    1    2 2   
     2    2    3 1   
     3    2   27 1   
     4    3    4 1   
     5    3   31 1   
     6    4    5 1   
     7    4   32 1   
     8    4   33 1   
     9    5    6 1   
    10    5    9 2   
    11    6    7 2   
    12    6   34 1   
    13    7    8 1   
    14    7   10 1   
    15    8    9 1   
    16    8   52 1   
    17   10   11 1   
    18   10   14 2   
    19   11   12 1   
    20   12   13 2   
    21   12   21 1   
    22   13   14 1   
    23   14   15 1   
    24   15   16 1   
    25   15   20 1   
    26   16   17 1   
    27   16   35 1   
    28   16   36 1   
    29   17   18 1   
    30   17   37 1   
    31   17   38 1   
    32   18   19 1   
    33   18   39 1   
    34   18   40 1   
    35   19   20 1   
    36   19   41 1   
    37   19   42 1   
    38   20   43 1   
    39   20   44 1   
    40   21   22 ar  
    41   21   26 ar  
    42   22   23 ar  
    43   22   45 1   
    44   23   24 ar  
    45   23   46 1   
    46   24   25 ar  
    47   24   47 1   
    48   25   26 ar  
    49   26   48 1   
    50   27   28 1   
    51   28   29 1   
    52   28   49 1   
    53   28   50 1   
    54   29   30 3   
    55   30   51 1   
@<TRIPOS>SUBSTRUCTURE
     1 B46         1 TEMP              0 ****  ****    0 ROOT
