@<TRIPOS>MOLECULE
B46
   53    55     1     0     0
SMALL
bcc


@<TRIPOS>ATOM
      1 O1          1.2040    1.2530   -0.8020 o         1 B46     -0.415000
      2 C2          1.4530    0.1340   -0.3790 c         1 B46      0.616100
      3 N3          2.2410   -0.1030    0.8680 ny        1 B46     -0.639800
      4 C4          1.7100    0.7120    2.0180 c3        1 B46      0.124500
      5 C5          2.6230    0.6480    3.1780 cc        1 B46      0.190600
      6 C6          2.9860    1.7490    4.0270 cc        1 B46     -0.249300
      7 C7          3.8140    1.1760    5.0230 cd        1 B46      0.023700
      8 N8          3.9070   -0.1930    4.7020 na        1 B46      0.043400
      9 N9          3.2040   -0.5130    3.6360 nd        1 B46     -0.511800
     10 C11         4.4520    1.8230    6.1240 cd        1 B46     -0.197400
     11 S12         4.8110    3.4650    6.1090 ss        1 B46     -0.022300
     12 C13         5.4230    3.3860    7.7130 cd        1 B46      0.504900
     13 N14         5.3800    2.1640    8.2670 nc        1 B46     -0.619000
     14 C15         4.8320    1.2590    7.3620 cc        1 B46      0.507200
     15 N16         4.6950   -0.1400    7.6840 nh        1 B46     -0.433100
     16 C17         5.5070   -1.0640    7.2620 c1        1 B46     -0.106500
     17 C18         2.7040   -1.8050   11.3210 c3        1 B46     -0.098100
     18 C19         2.2750   -2.1000    9.9060 c3        1 B46     -0.083400
     19 C20         3.3900   -1.9030    8.9000 c3        1 B46     -0.075400
     20 C21         3.6180   -0.4170    8.6410 c3        1 B46      0.209800
     21 C22         5.9400    4.5700    8.3670 ca        1 B46     -0.288800
     22 C23         5.7140    5.8460    7.8220 ca        1 B46     -0.077000
     23 C24         6.2300    6.9620    8.4750 ca        1 B46     -0.244300
     24 C25         6.9610    6.7670    9.6650 ca        1 B46      0.430200
     25 N26         7.1870    5.5550   10.2040 nb        1 B46     -0.657000
     26 C27         6.6860    4.4800    9.5680 ca        1 B46      0.459200
     27 O28         1.0550   -1.0370   -0.9120 os        1 B46     -0.403900
     28 C29         0.4310   -0.9860   -2.2380 c3        1 B46      0.254500
     29 C30         1.4150   -0.8730   -3.2680 c1        1 B46     -0.254100
     30 C31         2.1960   -0.7920   -4.1720 c1        1 B46     -0.006500
     31 HN3         2.2160   -1.1060    1.1100 hn        1 B46      0.481300
     32 H4          0.6920    0.2960    2.2810 hx        1 B46      0.122200
     33 H4A         1.5970    1.7810    1.6680 hx        1 B46      0.122200
     34 H6          2.6770    2.7850    3.9380 ha        1 B46      0.186000
     35 H17         2.9930   -0.7330   11.4380 hc        1 B46      0.039367
     36 H17A        6.3640   -0.7560    6.6290 ha        1 B46      0.001500
     37 H18         3.5800   -2.4370   11.6070 hc        1 B46      0.039367
     38 H18A        1.8680   -2.0210   12.0290 hc        1 B46      0.039367
     39 H19         1.9310   -3.1670    9.8440 hc        1 B46      0.043700
     40 H19A        1.3970   -1.4550    9.6360 hc        1 B46      0.043700
     41 H20         3.1240   -2.4150    7.9390 hc        1 B46      0.063700
     42 H20A        4.3370   -2.3740    9.2730 hc        1 B46      0.063700
     43 H21         2.6730    0.0480    8.2370 h1        1 B46      0.063200
     44 H21A        3.8810    0.0980    9.6090 h1        1 B46      0.063200
     45 H23         5.1340    5.9640    6.8940 ha        1 B46      0.136000
     46 H24         6.0740    7.9740    8.0780 ha        1 B46      0.157000
     47 H25         7.3870    7.6270   10.2160 h4        1 B46      0.039100
     48 H27         6.8920    3.5020   10.0430 h4        1 B46      0.051100
     49 H29        -0.0920   -1.9880   -2.2550 h1        1 B46      0.114700
     50 H29A       -0.3040   -0.1360   -2.2610 h1        1 B46      0.114700
     51 H31         2.8850   -0.7190   -4.9810 ha        1 B46      0.190500
     52 HN8         4.3880   -0.9120    5.2100 hn        1 B46      0.360700
     53 H32         3.2190    0.1610    0.6880 hn        1 B46      0.481300
@<TRIPOS>BOND
     1    1    2 2   
     2    2    3 1   
     3    2   27 1   
     4    3    4 1   
     5    3   31 1   
     6    3   53 1   
     7    4    5 1   
     8    4   32 1   
     9    4   33 1   
    10    5    6 1   
    11    5    9 2   
    12    6    7 2   
    13    6   34 1   
    14    7    8 1   
    15    7   10 1   
    16    8    9 1   
    17    8   52 1   
    18   10   11 1   
    19   10   14 2   
    20   11   12 1   
    21   12   13 2   
    22   12   21 1   
    23   13   14 1   
    24   14   15 1   
    25   15   16 3   
    26   15   20 1   
    27   16   36 1   
    28   17   18 1   
    29   17   35 1   
    30   17   37 1   
    31   17   38 1   
    32   18   19 1   
    33   18   39 1   
    34   18   40 1   
    35   19   20 1   
    36   19   41 1   
    37   19   42 1   
    38   20   43 1   
    39   20   44 1   
    40   21   22 ar  
    41   21   26 ar  
    42   22   23 ar  
    43   22   45 1   
    44   23   24 ar  
    45   23   46 1   
    46   24   25 ar  
    47   24   47 1   
    48   25   26 ar  
    49   26   48 1   
    50   27   28 1   
    51   28   29 1   
    52   28   49 1   
    53   28   50 1   
    54   29   30 3   
    55   30   51 1   
@<TRIPOS>SUBSTRUCTURE
     1 B46         1 TEMP              0 ****  ****    0 ROOT
