@<TRIPOS>MOLECULE
B46
   53    56     1     0     0
SMALL
bcc


@<TRIPOS>ATOM
      1 O1         -0.1150   -0.1240   -0.3350 o         1 B46     -0.424000
      2 C2          1.0690   -0.3520   -0.1300 c         1 B46      0.611100
      3 N3          1.6700   -0.3990    1.2330 n4        1 B46     -0.638800
      4 C4          1.3830    0.8680    2.0020 c3        1 B46      0.130500
      5 C5          2.0040    0.8120    3.3400 cc        1 B46      0.181600
      6 C6          2.8000    1.8420    3.9460 cc        1 B46     -0.261300
      7 C7          3.0950    1.3490    5.2420 cd        1 B46      0.034700
      8 N8          2.4820    0.0850    5.3190 na        1 B46      0.059400
      9 N9          1.8400   -0.2380    4.2180 nd        1 B46     -0.516800
     10 C11         3.8480    1.9620    6.2870 cd        1 B46     -0.181400
     11 S12         4.4770    3.5150    6.1560 ss        1 B46     -0.045300
     12 C13         5.1580    3.4110    7.7320 cd        1 B46      0.506900
     13 N14         4.9340    2.2510    8.3600 nc        1 B46     -0.649000
     14 C15         4.1790    1.4030    7.5430 cc        1 B46      0.565200
     15 N16         3.7710    0.0870    7.9300 nh        1 B46     -0.731300
     16 C17         4.9120   -0.7980    8.1870 c3        1 B46      0.158300
     17 C18         4.4680   -2.2190    8.5310 c3        1 B46     -0.079400
     18 C19         3.4920   -2.2210    9.6880 c3        1 B46     -0.084400
     19 C20         2.3310   -1.2890    9.4130 c3        1 B46     -0.079400
     20 C21         2.8230    0.1110    9.0510 c3        1 B46      0.158300
     21 C22         5.9110    4.5200    8.2840 ca        1 B46     -0.282800
     22 C23         5.8440    5.7960    7.6970 ca        1 B46     -0.078000
     23 C24         6.5850    6.8350    8.2510 ca        1 B46     -0.244300
     24 C25         7.3750    6.5670    9.3870 ca        1 B46      0.426200
     25 N26         7.4520    5.3540    9.9660 nb        1 B46     -0.658000
     26 C27         6.7330    4.3540    9.4250 ca        1 B46      0.454200
     27 O28         1.9990   -0.5930   -1.0700 os        1 B46     -0.407900
     28 C29         1.5000   -0.5880   -2.4640 c3        1 B46      0.262500
     29 C30         2.6320   -0.8900   -3.2800 c1        1 B46     -0.223100
     30 C31         3.5580   -1.1420   -3.9950 c1        1 B46     -0.004500
     31 HN3         2.6880   -0.5410    1.1620 hn        1 B46      0.481800
     32 H4          0.2580    0.9650    2.0690 hx        1 B46      0.119700
     33 H4A         1.8000    1.7360    1.4150 hx        1 B46      0.119700
     34 H6          3.0970    2.7920    3.5140 ha        1 B46      0.181000
     35 H17         5.5550   -0.4100    9.0300 h1        1 B46      0.053200
     36 H17A        5.5420   -0.8190    7.2540 h1        1 B46      0.053200
     37 H18         3.9970   -2.7000    7.6350 hc        1 B46      0.050450
     38 H18A        5.3810   -2.8140    8.7950 hc        1 B46      0.050450
     39 H19         4.0190   -1.8980   10.6240 hc        1 B46      0.054200
     40 H19A        3.1110   -3.2610    9.8590 hc        1 B46      0.054200
     41 H20         1.7030   -1.7010    8.5820 hc        1 B46      0.050450
     42 H20A        1.6810   -1.2050   10.3220 hc        1 B46      0.050450
     43 H21         1.9470    0.7450    8.7410 h1        1 B46      0.053200
     44 H21A        3.2820    0.5790    9.9700 h1        1 B46      0.053200
     45 H23         5.2100    5.9720    6.8140 ha        1 B46      0.137000
     46 H24         6.5550    7.8450    7.8200 ha        1 B46      0.156000
     47 H25         7.9780    7.3660    9.8600 h4        1 B46      0.038100
     48 H27         6.8190    3.3730    9.9290 h4        1 B46      0.048100
     49 H29         1.0830    0.4370   -2.6620 h1        1 B46      0.096700
     50 H29A        0.6950   -1.3690   -2.5330 h1        1 B46      0.096700
     51 H31         4.3730   -1.3650   -4.6440 ha        1 B46      0.190500
     52 HN8         2.5070   -0.5370    6.1080 hn        1 B46      0.371700
     53 H32         1.2630   -1.2000    1.7380 hn        1 B46      0.481800
@<TRIPOS>BOND
     1    1    2 2   
     2    2    3 1   
     3    2   27 1   
     4    3    4 1   
     5    3   31 1   
     6    3   53 1   
     7    4    5 1   
     8    4   32 1   
     9    4   33 1   
    10    5    6 1   
    11    5    9 2   
    12    6    7 2   
    13    6   34 1   
    14    7    8 1   
    15    7   10 1   
    16    8    9 1   
    17    8   52 1   
    18   10   11 1   
    19   10   14 2   
    20   11   12 1   
    21   12   13 2   
    22   12   21 1   
    23   13   14 1   
    24   14   15 1   
    25   15   16 1   
    26   15   20 1   
    27   16   17 1   
    28   16   35 1   
    29   16   36 1   
    30   17   18 1   
    31   17   37 1   
    32   17   38 1   
    33   18   19 1   
    34   18   39 1   
    35   18   40 1   
    36   19   20 1   
    37   19   41 1   
    38   19   42 1   
    39   20   43 1   
    40   20   44 1   
    41   21   22 ar  
    42   21   26 ar  
    43   22   23 ar  
    44   22   45 1   
    45   23   24 ar  
    46   23   46 1   
    47   24   25 ar  
    48   24   47 1   
    49   25   26 ar  
    50   26   48 1   
    51   27   28 1   
    52   28   29 1   
    53   28   49 1   
    54   28   50 1   
    55   29   30 3   
    56   30   51 1   
@<TRIPOS>SUBSTRUCTURE
     1 B46         1 TEMP              0 ****  ****    0 ROOT
