@<TRIPOS>MOLECULE
B47
   53    56     1     0     0
SMALL
bcc


@<TRIPOS>ATOM
      1 C1         -0.3430    0.4170    0.9410 c3        1 B47      0.130700
      2 O2          1.0790    0.4640    0.6690 os        1 B47     -0.399900
      3 C3          1.8550   -0.2990    1.4690 c         1 B47      0.604100
      4 O4          1.4530   -0.9980    2.3880 o         1 B47     -0.414000
      5 N5          3.2880   -0.1870    1.0840 n4        1 B47     -0.636800
      6 C6          4.1480    0.1760    2.2710 c3        1 B47      0.132500
      7 C7          5.5590    0.3120    1.8610 cc        1 B47      0.179600
      8 C8          6.4360    1.4010    2.1910 cc        1 B47     -0.261300
      9 C9          7.6860    1.0330    1.6330 cd        1 B47      0.035700
     10 N10         7.4770   -0.2120    1.0120 na        1 B47      0.059400
     11 N11         6.2420   -0.6440    1.1390 nd        1 B47     -0.516800
     12 C13         8.9270    1.7360    1.6670 cd        1 B47     -0.186400
     13 S14         9.1630    3.1120    2.6030 ss        1 B47     -0.041300
     14 C15        10.7920    3.2440    2.0620 cd        1 B47      0.507900
     15 N16        11.1700    2.2940    1.2000 nc        1 B47     -0.652000
     16 C17        10.1100    1.4150    0.9630 cc        1 B47      0.562200
     17 N18        10.2000    0.2840    0.0910 nh        1 B47     -0.731300
     18 C19        11.2480   -0.6580    0.4970 c3        1 B47      0.161800
     19 C20        11.2520   -1.9100   -0.3740 c3        1 B47     -0.098900
     20 C21        11.3660   -1.5480   -1.8520 c3        1 B47      0.140100
     21 O22        11.1450   -2.6930   -2.6650 oh        1 B47     -0.594800
     22 C23        10.2990   -0.5320   -2.2480 c3        1 B47     -0.098900
     23 C24        10.3290    0.6750   -1.3160 c3        1 B47      0.161800
     24 C25        11.6340    4.3300    2.5380 ca        1 B47     -0.165500
     25 C26        12.8300    4.6590    1.8860 ca        1 B47     -0.093500
     26 C27        13.6150    5.7100    2.3620 ca        1 B47     -0.129500
     27 C28        13.2150    6.4360    3.4830 ca        1 B47     -0.097000
     28 C29        12.0250    6.1100    4.1370 ca        1 B47     -0.129500
     29 C30        11.2370    5.0630    3.6700 ca        1 B47     -0.093500
     30 H1         -0.7110   -0.6280    0.8070 h1        1 B47      0.089367
     31 H1A        -0.5340    0.7840    1.9780 h1        1 B47      0.089367
     32 H1B        -0.7500    1.1130    0.1630 h1        1 B47      0.089367
     33 HN5         3.3980    0.5200    0.3440 hn        1 B47      0.482300
     34 H6          4.0140   -0.6450    3.0380 hx        1 B47      0.119700
     35 H6A         3.7690    1.1500    2.6940 hx        1 B47      0.119700
     36 H8          6.1990    2.2960    2.7550 ha        1 B47      0.181000
     37 H19        11.0490   -0.9500    1.5660 h1        1 B47      0.054950
     38 H19A       12.2710   -0.1840    0.4540 h1        1 B47      0.054950
     39 H20        12.1200   -2.5490   -0.0690 hc        1 B47      0.061200
     40 H20A       10.3180   -2.5070   -0.2130 hc        1 B47      0.061200
     41 H21        12.3900   -1.1260   -2.0610 h1        1 B47      0.043700
     42 HO22       11.8610   -3.3110   -2.4770 ho        1 B47      0.408000
     43 H23        10.4840   -0.1840   -3.2960 hc        1 B47      0.061200
     44 H23A        9.2940   -1.0270   -2.2270 hc        1 B47      0.061200
     45 H24         9.4660    1.3530   -1.5650 h1        1 B47      0.054950
     46 H24A       11.2830    1.2510   -1.4970 h1        1 B47      0.054950
     47 H26        13.1560    4.0910    1.0010 ha        1 B47      0.143000
     48 H27        14.5540    5.9640    1.8470 ha        1 B47      0.145500
     49 H28        13.8380    7.2640    3.8550 ha        1 B47      0.146000
     50 H29        11.7110    6.6800    5.0240 ha        1 B47      0.145500
     51 H30        10.3030    4.8050    4.1950 ha        1 B47      0.143000
     52 HN10        8.1630   -0.7440    0.5040 hn        1 B47      0.371700
     53 H52         3.5950   -1.0980    0.7110 hn        1 B47      0.482300
@<TRIPOS>BOND
     1    1    2 1   
     2    1   30 1   
     3    1   31 1   
     4    1   32 1   
     5    2    3 1   
     6    3    4 2   
     7    3    5 1   
     8    5    6 1   
     9    5   33 1   
    10    5   53 1   
    11    6    7 1   
    12    6   34 1   
    13    6   35 1   
    14    7    8 1   
    15    7   11 2   
    16    8    9 2   
    17    8   36 1   
    18    9   10 1   
    19    9   12 1   
    20   10   11 1   
    21   10   52 1   
    22   12   13 1   
    23   12   16 2   
    24   13   14 1   
    25   14   15 2   
    26   14   24 1   
    27   15   16 1   
    28   16   17 1   
    29   17   18 1   
    30   17   23 1   
    31   18   19 1   
    32   18   37 1   
    33   18   38 1   
    34   19   20 1   
    35   19   39 1   
    36   19   40 1   
    37   20   21 1   
    38   20   22 1   
    39   20   41 1   
    40   21   42 1   
    41   22   23 1   
    42   22   43 1   
    43   22   44 1   
    44   23   45 1   
    45   23   46 1   
    46   24   25 ar  
    47   24   29 ar  
    48   25   26 ar  
    49   25   47 1   
    50   26   27 ar  
    51   26   48 1   
    52   27   28 ar  
    53   27   49 1   
    54   28   29 ar  
    55   28   50 1   
    56   29   51 1   
@<TRIPOS>SUBSTRUCTURE
     1 B47         1 TEMP              0 ****  ****    0 ROOT
