@<TRIPOS>MOLECULE
B47
   53    56     1     0     0
SMALL
bcc


@<TRIPOS>ATOM
      1 C1         -0.3430    0.4220    0.9300 c3        1 B47      0.130700
      2 O2          1.0800    0.4660    0.6600 os        1 B47     -0.399900
      3 C3          1.8540   -0.2900    1.4700 c         1 B47      0.604100
      4 O4          1.4490   -0.9780    2.3960 o         1 B47     -0.414000
      5 N5          3.2870   -0.1820    1.0870 ny        1 B47     -0.636800
      6 C6          4.1460    0.1900    2.2730 c3        1 B47      0.132500
      7 C7          5.5570    0.3210    1.8650 cc        1 B47      0.179600
      8 C8          6.4340    1.4120    2.1870 cc        1 B47     -0.261300
      9 C9          7.6860    1.0380    1.6360 cd        1 B47      0.035700
     10 N10         7.4770   -0.2120    1.0240 na        1 B47      0.059400
     11 N11         6.2410   -0.6420    1.1520 nd        1 B47     -0.516800
     12 C13         8.9270    1.7400    1.6660 cd        1 B47     -0.186400
     13 S14         9.1650    3.1210    2.5940 ss        1 B47     -0.041300
     14 C15        10.7940    3.2480    2.0530 cd        1 B47      0.507900
     15 N16        11.1720    2.2920    1.1970 nc        1 B47     -0.652000
     16 C17        10.1100    1.4130    0.9640 cc        1 B47      0.562200
     17 N18        10.1990    0.2770    0.1000 nh        1 B47     -0.731300
     18 C19        11.2480   -0.6630    0.5110 c3        1 B47      0.161800
     19 C20        11.2510   -1.9200   -0.3530 c3        1 B47     -0.098900
     20 C21        11.3630   -1.5670   -1.8340 c3        1 B47      0.140100
     21 O22        11.1420   -2.7170   -2.6390 oh        1 B47     -0.594800
     22 C23        10.2960   -0.5540   -2.2350 c3        1 B47     -0.098900
     23 C24        10.3280    0.6590   -1.3100 c3        1 B47      0.161800
     24 C25        11.6360    4.3360    2.5240 ca        1 B47     -0.165500
     25 C26        12.8340    4.6590    1.8700 ca        1 B47     -0.093500
     26 C27        13.6190    5.7130    2.3400 ca        1 B47     -0.129500
     27 C28        13.2200    6.4450    3.4570 ca        1 B47     -0.097000
     28 C29        12.0290    6.1240    4.1120 ca        1 B47     -0.129500
     29 C30        11.2400    5.0760    3.6510 ca        1 B47     -0.093500
     30 H1         -0.7470    1.1100    0.1430 h1        1 B47      0.089367
     31 H1A        -0.5360    0.8000    1.9620 h1        1 B47      0.089367
     32 H1B        -0.7110   -0.6240    0.8050 h1        1 B47      0.089367
     33 HN5         3.5940   -1.0970    0.7230 hn        1 B47      0.482300
     34 H6          4.0090   -0.6240    3.0470 hx        1 B47      0.119700
     35 H6A         3.7670    1.1680    2.6870 hx        1 B47      0.119700
     36 H8          6.1980    2.3120    2.7430 ha        1 B47      0.181000
     37 H19        11.0500   -0.9490    1.5810 h1        1 B47      0.054950
     38 H19A       12.2710   -0.1890    0.4630 h1        1 B47      0.054950
     39 H20        12.1200   -2.5580   -0.0450 hc        1 B47      0.061200
     40 H20A       10.3160   -2.5150   -0.1880 hc        1 B47      0.061200
     41 H21        12.3870   -1.1470   -2.0460 h1        1 B47      0.043700
     42 HO22       11.8570   -3.3340   -2.4480 ho        1 B47      0.408000
     43 H23        10.4800   -0.2110   -3.2850 hc        1 B47      0.061200
     44 H23A        9.2910   -1.0480   -2.2090 hc        1 B47      0.061200
     45 H24         9.4640    1.3360   -1.5620 h1        1 B47      0.054950
     46 H24A       11.2820    1.2340   -1.4960 h1        1 B47      0.054950
     47 H26        13.1590    4.0860    0.9880 ha        1 B47      0.143000
     48 H27        14.5590    5.9630    1.8240 ha        1 B47      0.145500
     49 H28        13.8430    7.2750    3.8250 ha        1 B47      0.146000
     50 H29        11.7150    6.7000    4.9960 ha        1 B47      0.145500
     51 H30        10.3050    4.8220    4.1770 ha        1 B47      0.143000
     52 HN10        8.1630   -0.7490    0.5220 hn        1 B47      0.371700
     53 H52         3.4000    0.5190    0.3420 hn        1 B47      0.482300
@<TRIPOS>BOND
     1    1    2 1   
     2    1   30 1   
     3    1   31 1   
     4    1   32 1   
     5    2    3 1   
     6    3    4 2   
     7    3    5 1   
     8    5    6 1   
     9    5   33 1   
    10    5   53 1   
    11    6    7 1   
    12    6   34 1   
    13    6   35 1   
    14    7    8 1   
    15    7   11 2   
    16    8    9 2   
    17    8   36 1   
    18    9   10 1   
    19    9   12 1   
    20   10   11 1   
    21   10   52 1   
    22   12   13 1   
    23   12   16 2   
    24   13   14 1   
    25   14   15 2   
    26   14   24 1   
    27   15   16 1   
    28   16   17 1   
    29   17   18 1   
    30   17   23 1   
    31   18   19 1   
    32   18   37 1   
    33   18   38 1   
    34   19   20 1   
    35   19   39 1   
    36   19   40 1   
    37   20   21 1   
    38   20   22 1   
    39   20   41 1   
    40   21   42 1   
    41   22   23 1   
    42   22   43 1   
    43   22   44 1   
    44   23   45 1   
    45   23   46 1   
    46   24   25 ar  
    47   24   29 ar  
    48   25   26 ar  
    49   25   47 1   
    50   26   27 ar  
    51   26   48 1   
    52   27   28 ar  
    53   27   49 1   
    54   28   29 ar  
    55   28   50 1   
    56   29   51 1   
@<TRIPOS>SUBSTRUCTURE
     1 B47         1 TEMP              0 ****  ****    0 ROOT
