@<TRIPOS>MOLECULE
B47
   53    56     1     0     0
SMALL
bcc


@<TRIPOS>ATOM
      1 C1         -0.3410    0.4060    0.9220 c3        1 B47      0.130700
      2 O2          1.0830    0.4500    0.6550 os        1 B47     -0.400900
      3 C3          1.8570   -0.2970    1.4720 c         1 B47      0.604100
      4 O4          1.4520   -0.9800    2.4020 o         1 B47     -0.414000
      5 N5          3.2910   -0.1890    1.0900 n4        1 B47     -0.636800
      6 C6          4.1470    0.1860    2.2770 c3        1 B47      0.132500
      7 C7          5.5590    0.3170    1.8690 cc        1 B47      0.179600
      8 C8          6.4360    1.4090    2.1920 cc        1 B47     -0.261300
      9 C9          7.6870    1.0360    1.6410 cd        1 B47      0.035700
     10 N10         7.4800   -0.2150    1.0310 na        1 B47      0.059400
     11 N11         6.2440   -0.6460    1.1580 nd        1 B47     -0.516800
     12 C13         8.9290    1.7380    1.6720 cd        1 B47     -0.186400
     13 S14         9.1670    3.1150    2.6060 ss        1 B47     -0.041300
     14 C15        10.7950    3.2460    2.0620 cd        1 B47      0.507900
     15 N16        11.1720    2.2940    1.2000 nc        1 B47     -0.652000
     16 C17        10.1100    1.4150    0.9660 cc        1 B47      0.562200
     17 N18        10.1980    0.2820    0.0960 nh        1 B47     -0.731300
     18 C19        11.2520   -0.6550    0.4970 c3        1 B47      0.161800
     19 C20        11.2540   -1.9090   -0.3720 c3        1 B47     -0.098900
     20 C21        11.3560   -1.5500   -1.8520 c3        1 B47      0.141100
     21 O22        11.1330   -2.6960   -2.6610 oh        1 B47     -0.595800
     22 C23        10.2840   -0.5380   -2.2420 c3        1 B47     -0.098900
     23 C24        10.3170    0.6710   -1.3130 c3        1 B47      0.161800
     24 C25        11.6380    4.3320    2.5350 ca        1 B47     -0.165500
     25 C26        12.8330    4.6600    1.8790 ca        1 B47     -0.093500
     26 C27        13.6180    5.7120    2.3510 ca        1 B47     -0.129500
     27 C28        13.2230    6.4380    3.4740 ca        1 B47     -0.097000
     28 C29        12.0350    6.1110    4.1320 ca        1 B47     -0.129500
     29 C30        11.2450    5.0640    3.6680 ca        1 B47     -0.093500
     30 H1         -0.7060   -0.6420    0.8060 h1        1 B47      0.089367
     31 H1A        -0.5360    0.7910    1.9510 h1        1 B47      0.089367
     32 H1B        -0.7450    1.0860    0.1300 h1        1 B47      0.089367
     33 HN5         3.4040    0.5110    0.3440 hn        1 B47      0.482300
     34 H6          3.7670    1.1640    2.6880 hx        1 B47      0.119700
     35 H6A         4.0110   -0.6270    3.0520 hx        1 B47      0.119700
     36 H8          6.1980    2.3100    2.7460 ha        1 B47      0.181000
     37 H19        11.0620   -0.9460    1.5680 h1        1 B47      0.054950
     38 H19A       12.2740   -0.1780    0.4450 h1        1 B47      0.054950
     39 H20        12.1260   -2.5450   -0.0720 hc        1 B47      0.061200
     40 H20A       10.3220   -2.5080   -0.2030 hc        1 B47      0.061200
     41 H21        12.3770   -1.1250   -2.0680 h1        1 B47      0.043700
     42 HO22       11.8520   -3.3130   -2.4760 ho        1 B47      0.408000
     43 H23         9.2800   -1.0360   -2.2130 hc        1 B47      0.061200
     44 H23A       10.4600   -0.1910   -3.2920 hc        1 B47      0.061200
     45 H24        11.2680    1.2500   -1.5020 h1        1 B47      0.054950
     46 H24A        9.4490    1.3460   -1.5570 h1        1 B47      0.054950
     47 H26        13.1550    4.0930    0.9920 ha        1 B47      0.143000
     48 H27        14.5560    5.9660    1.8330 ha        1 B47      0.145500
     49 H28        13.8470    7.2660    3.8440 ha        1 B47      0.146000
     50 H29        11.7240    6.6810    5.0200 ha        1 B47      0.145500
     51 H30        10.3130    4.8060    4.1960 ha        1 B47      0.143000
     52 HN10        8.1660   -0.7520    0.5290 hn        1 B47      0.371700
     53 H52         3.5990   -1.1040    0.7280 hn        1 B47      0.482300
@<TRIPOS>BOND
     1    1    2 1   
     2    1   30 1   
     3    1   31 1   
     4    1   32 1   
     5    2    3 1   
     6    3    4 2   
     7    3    5 1   
     8    5    6 1   
     9    5   33 1   
    10    5   53 1   
    11    6    7 1   
    12    6   34 1   
    13    6   35 1   
    14    7    8 1   
    15    7   11 2   
    16    8    9 2   
    17    8   36 1   
    18    9   10 1   
    19    9   12 1   
    20   10   11 1   
    21   10   52 1   
    22   12   13 1   
    23   12   16 2   
    24   13   14 1   
    25   14   15 2   
    26   14   24 1   
    27   15   16 1   
    28   16   17 1   
    29   17   18 1   
    30   17   23 1   
    31   18   19 1   
    32   18   37 1   
    33   18   38 1   
    34   19   20 1   
    35   19   39 1   
    36   19   40 1   
    37   20   21 1   
    38   20   22 1   
    39   20   41 1   
    40   21   42 1   
    41   22   23 1   
    42   22   43 1   
    43   22   44 1   
    44   23   45 1   
    45   23   46 1   
    46   24   25 ar  
    47   24   29 ar  
    48   25   26 ar  
    49   25   47 1   
    50   26   27 ar  
    51   26   48 1   
    52   27   28 ar  
    53   27   49 1   
    54   28   29 ar  
    55   28   50 1   
    56   29   51 1   
@<TRIPOS>SUBSTRUCTURE
     1 B47         1 TEMP              0 ****  ****    0 ROOT
