@<TRIPOS>MOLECULE
B47
   52    55     1     0     0
SMALL
bcc


@<TRIPOS>ATOM
      1 C1          7.3420   -1.3170   -2.1650 c3        1 B47      0.138700
      2 O2          6.7430   -0.7230   -1.0120 os        1 B47     -0.443900
      3 C3          5.8710   -1.5390   -0.3150 c         1 B47      0.719100
      4 O4          5.6210   -2.6650   -0.7760 o         1 B47     -0.583000
      5 N5          5.4550   -0.9870    0.8890 n         1 B47     -0.500900
      6 C6          4.2580   -1.4990    1.5060 c3        1 B47      0.059700
      7 C7          2.9960   -0.7730    1.1730 cc        1 B47      0.252600
      8 C8          1.7310   -1.3940    0.8850 cc        1 B47     -0.272300
      9 C9          0.8390   -0.3170    0.6640 cd        1 B47     -0.030300
     10 N10         1.6030    0.8500    0.8280 na        1 B47      0.029400
     11 N11         2.8660    0.5920    1.1250 nd        1 B47     -0.510800
     12 C13        -0.5510   -0.3650    0.3430 cd        1 B47     -0.108400
     13 S14        -1.3860   -1.8210    0.2590 ss        1 B47     -0.044300
     14 C15        -2.8460   -1.0050   -0.1440 cd        1 B47      0.457900
     15 N16        -2.7360    0.3240   -0.2230 nc        1 B47     -0.648000
     16 C17        -1.4180    0.7100    0.0560 cc        1 B47      0.512200
     17 N18        -0.9830    2.0740    0.0550 nh        1 B47     -0.712300
     18 C19        -1.6750    2.8820    1.0620 c3        1 B47      0.164800
     19 C20        -1.1410    4.3100    1.1200 c3        1 B47     -0.098400
     20 C21        -1.2140    4.9610   -0.2580 c3        1 B47      0.140100
     21 O22        -0.5940    6.2340   -0.1370 oh        1 B47     -0.596800
     22 C23        -0.5020    4.0990   -1.2950 c3        1 B47     -0.098400
     23 C24        -1.0480    2.6740   -1.2800 c3        1 B47      0.164800
     24 C25        -4.0690   -1.7600   -0.3750 ca        1 B47     -0.138500
     25 C26        -5.1610   -1.1850   -1.0400 ca        1 B47     -0.102000
     26 C27        -6.3170   -1.9340   -1.2550 ca        1 B47     -0.131500
     27 C28        -6.3950   -3.2540   -0.8130 ca        1 B47     -0.114000
     28 C29        -5.3100   -3.8290   -0.1490 ca        1 B47     -0.131500
     29 C30        -4.1530   -3.0890    0.0710 ca        1 B47     -0.102000
     30 H1          7.9310   -2.2180   -1.8690 h1        1 B47      0.051033
     31 H1A         6.5530   -1.5990   -2.9030 h1        1 B47      0.051033
     32 H1B         8.0030   -0.5050   -2.5580 h1        1 B47      0.051033
     33 HN5         5.6180   -0.0060    0.9890 hn        1 B47      0.321500
     34 H6          4.1310   -2.5830    1.2190 h1        1 B47      0.081200
     35 H6A         4.4210   -1.4370    2.6230 h1        1 B47      0.081200
     36 H8          1.5180   -2.4550    0.8390 ha        1 B47      0.170000
     37 H19        -2.7870    2.9200    0.8750 h1        1 B47      0.050450
     38 H19A       -1.5110    2.3890    2.0610 h1        1 B47      0.050450
     39 H20        -1.7570    4.8980    1.8470 hc        1 B47      0.059450
     40 H20A       -0.0810    4.3250    1.4800 hc        1 B47      0.059450
     41 H21        -2.2910    5.1010   -0.5580 h1        1 B47      0.035700
     42 HO22       -0.5870    6.6250   -1.0180 ho        1 B47      0.401000
     43 H23        -0.6550    4.5260   -2.3190 hc        1 B47      0.059450
     44 H23A        0.5980    4.1010   -1.0840 hc        1 B47      0.059450
     45 H24        -0.4280    2.0340   -1.9690 h1        1 B47      0.050450
     46 H24A       -2.1030    2.6890   -1.6790 h1        1 B47      0.050450
     47 H26        -5.1100   -0.1430   -1.3920 ha        1 B47      0.143500
     48 H27        -7.1720   -1.4780   -1.7770 ha        1 B47      0.137000
     49 H28        -7.3090   -3.8410   -0.9850 ha        1 B47      0.136000
     50 H29        -5.3690   -4.8700    0.2030 ha        1 B47      0.137000
     51 H30        -3.3020   -3.5460    0.6010 ha        1 B47      0.143500
     52 HN10        1.2820    1.7900    0.7300 hn        1 B47      0.347700
@<TRIPOS>BOND
     1    1    2 1   
     2    1   30 1   
     3    1   31 1   
     4    1   32 1   
     5    2    3 1   
     6    3    4 2   
     7    3    5 1   
     8    5    6 1   
     9    5   33 1   
    10    6    7 1   
    11    6   34 1   
    12    6   35 1   
    13    7    8 1   
    14    7   11 2   
    15    8    9 2   
    16    8   36 1   
    17    9   10 1   
    18    9   12 1   
    19   10   11 1   
    20   10   52 1   
    21   12   13 1   
    22   12   16 2   
    23   13   14 1   
    24   14   15 2   
    25   14   24 1   
    26   15   16 1   
    27   16   17 1   
    28   17   18 1   
    29   17   23 1   
    30   18   19 1   
    31   18   37 1   
    32   18   38 1   
    33   19   20 1   
    34   19   39 1   
    35   19   40 1   
    36   20   21 1   
    37   20   22 1   
    38   20   41 1   
    39   21   42 1   
    40   22   23 1   
    41   22   43 1   
    42   22   44 1   
    43   23   45 1   
    44   23   46 1   
    45   24   25 ar  
    46   24   29 ar  
    47   25   26 ar  
    48   25   47 1   
    49   26   27 ar  
    50   26   48 1   
    51   27   28 ar  
    52   27   49 1   
    53   28   29 ar  
    54   28   50 1   
    55   29   51 1   
@<TRIPOS>SUBSTRUCTURE
     1 B47         1 TEMP              0 ****  ****    0 ROOT
