@<TRIPOS>MOLECULE
B47
   52    49     1     0     0
SMALL
bcc


@<TRIPOS>ATOM
      1 C1         -6.9560    0.2700    5.7290 c3        1 B47     -0.051000
      2 O2         -6.6890    0.0280    4.3660 os        1 B47     -0.282000
      3 C3         -5.4980   -0.6860    4.1360 c2        1 B47      0.373000
      4 O4         -4.9140   -1.2090    5.0650 o         1 B47     -0.394000
      5 N5         -4.9800   -0.7960    2.8230 n         1 B47     -0.310000
      6 C6         -3.7570   -1.4860    2.5960 c3        1 B47      0.038000
      7 C7         -2.9340   -0.7310    1.5840 c2        1 B47     -0.168000
      8 C8         -1.6190   -0.9460    1.3000 c1        1 B47     -0.208000
      9 C9         -1.2320   -0.0240    0.3730 c2        1 B47     -0.004000
     10 N10        -2.2980    0.7520    0.0890 n2        1 B47     -0.117000
     11 N11        -3.3550    0.3130    0.8410 n2        1 B47     -0.079000
     12 C13         0.0520    0.1470   -0.1170 c2        1 B47     -0.315000
     13 S14         1.2300    0.7340    0.6510 ss        1 B47      0.543000
     14 C15         2.3960    0.9010   -0.3440 c2        1 B47     -0.224000
     15 N16         1.9500    0.4460   -1.6230 n2        1 B47     -0.137000
     16 C17         0.4650   -0.0340   -1.4890 c1        1 B47     -0.009000
     17 N18        -0.3520   -0.5020   -2.5440 n2        1 B47     -0.207000
     18 C19         0.2270    0.0570   -3.9730 c3        1 B47     -0.069000
     19 C20         1.7100   -0.2060   -4.1670 c3        1 B47     -0.213500
     20 C21         2.1650   -1.2170   -3.3230 c3        1 B47      0.036000
     21 O22         2.4810   -0.4910   -1.8900 oh        1 B47     -0.329000
     22 C23         1.4550   -2.3720   -3.0110 c3        1 B47     -0.213500
     23 C24        -0.0250   -2.0860   -2.8310 c3        1 B47     -0.069000
     24 C25         3.6110    1.5110   -0.0770 c1        1 B47     -0.034000
     25 C26         4.5430    0.8730    0.7240 c1        1 B47     -0.123750
     26 C27         5.7270    1.5160    1.0580 c1        1 B47     -0.123750
     27 C28         5.9760    2.7970    0.5890 c1        1 B47     -0.123750
     28 C29         5.0440    3.4350   -0.2120 c1        1 B47     -0.123750
     29 C30         3.8600    2.7920   -0.5460 c1        1 B47     -0.083000
     30 H1         -6.2770    0.8760    6.0930 h1        1 B47      0.090667
     31 H1A        -6.9360   -0.5790    6.2240 h1        1 B47      0.090667
     32 H1B        -7.8430    0.6810    5.8210 h1        1 B47      0.090667
     33 HN5        -5.4080   -0.3860    2.1280 hn        1 B47      0.234000
     34 H6         -3.2590   -1.5530    3.4370 h1        1 B47      0.121000
     35 H6A        -3.9460   -2.3810    2.2590 h1        1 B47      0.121000
     36 H8         -1.0540   -1.6380    1.6900 DU        1 B47      0.233000
     37 H19         0.0720    1.0200   -4.0180 h1        1 B47      0.094250
     38 H19A       -0.2650   -0.3730   -4.7000 h1        1 B47      0.094250
     39 H20         2.2080    0.6160   -3.9780 hc        1 B47      0.101250
     40 H20A        1.8690   -0.4700   -5.0970 hc        1 B47      0.101250
     41 H21         3.0270   -1.5140   -3.6900 h1        1 B47      0.112000
     42 HO22        3.3280   -0.6460   -1.6580 ho        1 B47      0.210000
     43 H23         1.5680   -3.0210   -3.7340 hc        1 B47      0.101250
     44 H23A        1.8110   -2.7520   -2.1820 hc        1 B47      0.101250
     45 H24        -0.3560   -2.6150   -2.0780 h1        1 B47      0.094250
     46 H24A       -0.4980   -2.3610   -3.6400 h1        1 B47      0.094250
     47 H26         4.3680   -0.0310    1.0550 ha        1 B47      0.137000
     48 H27         6.3850    1.0670    1.6230 ha        1 B47      0.137000
     49 H28         6.8070    3.2490    0.8230 ha        1 B47      0.137000
     50 H29         5.2200    4.3360   -0.5420 ha        1 B47      0.137000
     51 H30         3.2050    3.2400   -1.1100 ha        1 B47      0.153000
     52 HN10       -2.3120    1.4470   -0.5010 DU        1 B47      0.233000
@<TRIPOS>BOND
     1    1    2 1   
     2    1   30 1   
     3    1   31 1   
     4    1   32 1   
     5    2    3 1   
     6    3    4 1   
     7    3    5 1   
     8    5    6 1   
     9    5   33 1   
    10    6    7 1   
    11    6   34 1   
    12    6   35 1   
    13    7    8 1   
    14    7   11 1   
    15    8    9 1   
    16    9   10 1   
    17    9   12 1   
    18   10   11 1   
    19   12   13 1   
    20   12   16 1   
    21   13   14 1   
    22   14   15 1   
    23   14   24 1   
    24   15   16 1   
    25   17   18 1   
    26   17   23 1   
    27   18   19 1   
    28   18   37 1   
    29   18   38 1   
    30   19   20 1   
    31   19   39 1   
    32   19   40 1   
    33   20   21 1   
    34   20   22 1   
    35   20   41 1   
    36   21   42 1   
    37   22   23 1   
    38   22   43 1   
    39   22   44 1   
    40   23   45 1   
    41   23   46 1   
    42   24   29 1   
    43   25   26 1   
    44   25   47 1   
    45   26   48 1   
    46   27   28 1   
    47   27   49 1   
    48   28   50 1   
    49   29   51 1   
@<TRIPOS>SUBSTRUCTURE
     1 B47         1 TEMP              0 ****  ****    0 ROOT
