@<TRIPOS>MOLECULE
B48
   29    31     1     0     0
SMALL
bcc


@<TRIPOS>ATOM
      1 C1          0.2460   -0.0670   -0.0490 c3        1 B48     -0.065000
      2 S2          1.9870    0.0300    0.0910 ss        1 B48     -0.213400
      3 C3          2.2970    0.0260    1.7370 cc        1 B48      0.364600
      4 C4          3.6350    0.0960    2.2860 cc        1 B48     -0.262300
      5 C5          3.4590    0.0660    3.6840 cd        1 B48     -0.017300
      6 N6          2.0720   -0.0220    3.8950 na        1 B48     -0.001600
      7 N8          1.3860   -0.0400    2.7580 nd        1 B48     -0.518800
      8 C9          4.4360    0.0890    4.7270 cd        1 B48     -0.149400
      9 S10         5.9520   -0.6160    4.5450 ss        1 B48     -0.054300
     10 C11         6.3920   -0.1530    6.1400 cd        1 B48      0.486900
     11 N12         5.4410    0.5220    6.8040 nc        1 B48     -0.623000
     12 C13         4.3190    0.6670    6.0000 cc        1 B48      0.366600
     13 C14         3.1210    1.3890    6.4920 c3        1 B48     -0.135400
     14 C15         7.6900   -0.4640    6.6670 cd        1 B48     -0.180600
     15 C16         8.3600    0.2560    7.6440 cc        1 B48     -0.097000
     16 C17         9.6330   -0.3190    7.9400 cc        1 B48     -0.163000
     17 C18         9.8720   -1.4460    7.1830 cd        1 B48     -0.153100
     18 S19         8.6000   -1.7930    6.1640 ss        1 B48      0.027200
     19 H1         -0.1650   -0.9990    0.3990 h1        1 B48      0.071700
     20 H1A         0.0370   -0.0660   -1.1450 h1        1 B48      0.071700
     21 H1B        -0.2670    0.8010    0.4210 h1        1 B48      0.071700
     22 H4          4.5630    0.1650    1.7300 ha        1 B48      0.175000
     23 H14         2.3460    0.6520    6.8240 hc        1 B48      0.056367
     24 H14A        2.6960    2.0250    5.6760 hc        1 B48      0.056367
     25 H14B        3.3660    2.0480    7.3610 hc        1 B48      0.056367
     26 H16         7.9680    1.1510    8.1330 ha        1 B48      0.171000
     27 H17        10.3190    0.1000    8.6800 ha        1 B48      0.159000
     28 H18        10.7720   -2.0570    7.2270 h4        1 B48      0.175000
     29 HN6         1.6070   -0.0380    4.7730 hn        1 B48      0.324700
@<TRIPOS>BOND
     1    1    2 1   
     2    1   19 1   
     3    1   20 1   
     4    1   21 1   
     5    2    3 1   
     6    3    4 1   
     7    3    7 2   
     8    4    5 2   
     9    4   22 1   
    10    5    6 1   
    11    5    8 1   
    12    6    7 1   
    13    6   29 1   
    14    8    9 1   
    15    8   12 2   
    16    9   10 1   
    17   10   11 2   
    18   10   14 1   
    19   11   12 1   
    20   12   13 1   
    21   13   23 1   
    22   13   24 1   
    23   13   25 1   
    24   14   15 2   
    25   14   18 1   
    26   15   16 1   
    27   15   26 1   
    28   16   17 2   
    29   16   27 1   
    30   17   18 1   
    31   17   28 1   
@<TRIPOS>SUBSTRUCTURE
     1 B48         1 TEMP              0 ****  ****    0 ROOT
