@<TRIPOS>MOLECULE
B48
   29    31     1     0     0
SMALL
bcc


@<TRIPOS>ATOM
      1 C1          6.5100   -0.6060   -0.1590 c3        1 B48     -0.065000
      2 S2          5.0780   -1.3950    0.4640 ss        1 B48     -0.213400
      3 C3          3.8090   -0.3690    0.0840 cc        1 B48      0.364600
      4 C4          2.4330   -0.6570    0.4290 cc        1 B48     -0.262300
      5 C5          1.6950    0.4380   -0.0630 cd        1 B48     -0.017300
      6 N6          2.6340    1.2960   -0.6620 na        1 B48     -0.001600
      7 N8          3.8750    0.8310   -0.5740 nd        1 B48     -0.518800
      8 C9          0.2870    0.6810   -0.0220 cd        1 B48     -0.149400
      9 S10        -0.8370   -0.5690   -0.1000 ss        1 B48     -0.054300
     10 C11        -2.1350    0.5530   -0.0020 cd        1 B48      0.486900
     11 N12        -1.7530    1.8360    0.0950 nc        1 B48     -0.623000
     12 C13        -0.3670    1.9170    0.0880 cc        1 B48      0.366600
     13 C14         0.3170    3.2270    0.1950 c3        1 B48     -0.135400
     14 C15        -3.4980    0.1050   -0.0060 cd        1 B48     -0.180600
     15 C16        -4.5680    0.7670    0.5770 cc        1 B48     -0.097000
     16 C17        -5.7900    0.0510    0.3980 cc        1 B48     -0.163000
     17 C18        -5.5970   -1.1140   -0.3140 cd        1 B48     -0.153100
     18 S19        -4.0030   -1.3230   -0.7500 ss        1 B48      0.027200
     19 H1          6.4700   -0.4640   -1.2620 h1        1 B48      0.071700
     20 H1A         6.6870    0.3860    0.3130 h1        1 B48      0.071700
     21 H1B         7.3560   -1.2880    0.0920 h1        1 B48      0.071700
     22 H4          2.0650   -1.5270    0.9610 ha        1 B48      0.175000
     23 H14         0.6490    3.5650   -0.8190 hc        1 B48      0.056367
     24 H14A       -0.3610    4.0120    0.6150 hc        1 B48      0.056367
     25 H14B        1.2100    3.1390    0.8630 hc        1 B48      0.056367
     26 H16        -4.4930    1.7190    1.1090 ha        1 B48      0.171000
     27 H17        -6.7490    0.4020    0.7850 ha        1 B48      0.159000
     28 H18        -6.3760   -1.8290   -0.5770 h4        1 B48      0.175000
     29 HN6         2.4450    2.1740   -1.0860 hn        1 B48      0.324700
@<TRIPOS>BOND
     1    1    2 1   
     2    1   19 1   
     3    1   20 1   
     4    1   21 1   
     5    2    3 1   
     6    3    4 1   
     7    3    7 2   
     8    4    5 2   
     9    4   22 1   
    10    5    6 1   
    11    5    8 1   
    12    6    7 1   
    13    6   29 1   
    14    8    9 1   
    15    8   12 2   
    16    9   10 1   
    17   10   11 2   
    18   10   14 1   
    19   11   12 1   
    20   12   13 1   
    21   13   23 1   
    22   13   24 1   
    23   13   25 1   
    24   14   15 2   
    25   14   18 1   
    26   15   16 1   
    27   15   26 1   
    28   16   17 2   
    29   16   27 1   
    30   17   18 1   
    31   17   28 1   
@<TRIPOS>SUBSTRUCTURE
     1 B48         1 TEMP              0 ****  ****    0 ROOT
