@<TRIPOS>MOLECULE
B48
   29    25     1     0     0
SMALL
bcc


@<TRIPOS>ATOM
      1 C1         -4.8010    0.2260   -4.1200 c3        1 B48     -0.365000
      2 S2         -3.1620   -0.4390   -4.0110 ss        1 B48      0.296000
      3 C3         -2.5900   -0.3300   -2.3370 c2        1 B48     -0.291000
      4 C4         -1.2960   -0.4560   -1.9210 c1        1 B48     -0.199000
      5 C5         -1.2770   -0.3320   -0.5620 c2        1 B48      0.009000
      6 N6         -2.5440   -0.1330   -0.1440 n2        1 B48     -0.147000
      7 N8         -3.3600   -0.1310   -1.2470 n2        1 B48     -0.087000
      8 C9         -0.1500   -0.3580    0.2410 c2        1 B48     -0.368000
      9 S10         0.7190    0.8400    0.6050 ss        1 B48      0.566000
     10 C11         1.9190    0.3140    1.4210 c2        1 B48     -0.204000
     11 N12         1.7810   -1.1030    1.5390 n2        1 B48     -0.120000
     12 C13         0.4710   -1.5380    0.7930 c1        1 B48     -0.050000
     13 C14        -0.0500   -2.9530    0.6710 c2        1 B48     -0.159000
     14 C15         2.9840    1.0700    1.8820 c2        1 B48     -0.356000
     15 C16         3.0830    1.6980    3.1860 c1        1 B48     -0.145000
     16 C17         4.5080    2.3990    3.2970 c1        1 B48     -0.155000
     17 C18         5.2250    2.1720    2.0570 c1        1 B48     -0.464000
     18 S19         4.3110    1.3360    1.1220 ss        1 B48      0.684000
     19 H1         -5.4040   -0.2950   -3.5500 h1        1 B48      0.111000
     20 H1A        -5.1110    0.1820   -5.0490 h1        1 B48      0.111000
     21 H1B        -4.7950    1.1600   -3.8220 h1        1 B48      0.111000
     22 H4         -0.5210   -0.6080   -2.4950 DU        1 B48      0.187200
     23 H14        -0.0660   -3.2150   -0.2740 ha        1 B48      0.095333
     24 H14A        0.5360   -3.5620    1.1680 ha        1 B48      0.095333
     25 H14B       -0.9570   -3.0010    1.0390 ha        1 B48      0.095333
     26 H16         2.3930    1.6920    3.8770 DU        1 B48      0.187200
     27 H17         4.8420    2.8960    4.0680 DU        1 B48      0.187200
     28 H18         6.1240    2.4890    1.8470 DU        1 B48      0.187200
     29 HN6        -2.8110   -0.0180    0.7210 DU        1 B48      0.187200
@<TRIPOS>BOND
     1    1    2 1   
     2    1   19 1   
     3    1   20 1   
     4    1   21 1   
     5    2    3 1   
     6    3    4 1   
     7    3    7 1   
     8    4    5 1   
     9    5    6 1   
    10    5    8 1   
    11    6    7 1   
    12    8    9 1   
    13    8   12 1   
    14    9   10 1   
    15   10   11 1   
    16   10   14 1   
    17   11   12 1   
    18   13   23 1   
    19   13   24 1   
    20   13   25 1   
    21   14   15 1   
    22   14   18 1   
    23   15   16 1   
    24   16   17 1   
    25   17   18 1   
@<TRIPOS>SUBSTRUCTURE
     1 B48         1 TEMP              0 ****  ****    0 ROOT
