@<TRIPOS>MOLECULE
B49
   56    58     1     0     0
SMALL
bcc


@<TRIPOS>ATOM
      1 C4          1.2690    3.5010    0.3940 c3        1 B49     -0.063800
      2 C5         -7.3480   -1.3480    0.3070 ca        1 B49     -0.134000
      3 C6         -7.1250   -0.0470    0.7670 ca        1 B49     -0.139000
      4 C7         -4.9760   -1.6070   -0.2780 ca        1 B49     -0.119000
      5 C13         0.1760    0.0770   -0.6470 cc        1 B49     -0.047300
      6 C15        -6.2930   -2.1190   -0.2070 ca        1 B49      0.095900
      7 C17        -4.7480   -0.3250    0.1730 ca        1 B49     -0.073800
      8 C20        -3.5240    0.4890    0.2380 cc        1 B49     -0.175400
      9 C21        -3.9590    1.7970    0.8340 c         1 B49      0.725700
     10 C22         2.6450    0.9140   -0.7940 c         1 B49      0.702700
     11 C3          0.3090   -1.2710   -1.2050 c3        1 B49     -0.045800
     12 C12        -2.3170    0.0570   -0.1740 cf        1 B49      0.057800
     13 C14         0.6190    2.2210    0.0530 cd        1 B49      0.003400
     14 C16        -5.8330    0.4640    0.7010 ca        1 B49      0.042600
     15 C18        -1.0330    0.6810   -0.1930 cd        1 B49     -0.156100
     16 C19         1.2150    1.0430   -0.4800 cc        1 B49     -0.243600
     17 N23        -0.7270    1.9830    0.2270 na        1 B49     -0.135100
     18 N24        -5.3440    1.7210    1.0910 n         1 B49     -0.471100
     19 N25         3.2120   -0.3430   -0.6470 n         1 B49     -0.564900
     20 O27        -3.3050    2.8200    1.0960 o         1 B49     -0.647500
     21 O28         3.3310    1.8780   -1.1980 o         1 B49     -0.620100
     22 H4          0.6870    4.3690   -0.0070 hc        1 B49      0.071033
     23 H4A         1.3510    3.6120    1.5050 hc        1 B49      0.071033
     24 H4B         2.2980    3.5250   -0.0510 hc        1 B49      0.071033
     25 H5         -8.3600   -1.7770    0.3480 ha        1 B49      0.152000
     26 H6         -7.9580    0.5470    1.1670 ha        1 B49      0.146000
     27 H7         -4.1700   -2.2330   -0.6870 ha        1 B49      0.150000
     28 H3         -0.6580   -1.6320   -1.6370 hc        1 B49      0.051367
     29 H3A         1.0720   -1.2880   -2.0240 hc        1 B49      0.051367
     30 H3B         0.6240   -1.9950   -0.4100 hc        1 B49      0.051367
     31 H12        -2.2850   -0.9800   -0.5760 ha        1 B49      0.143000
     32 HN23       -1.3850    2.6370    0.5850 hn        1 B49      0.338700
     33 HN24       -5.8910    2.4450    1.4750 hn        1 B49      0.345500
     34 HN25        2.6910   -1.0370   -0.1660 hn        1 B49      0.304500
     35 C37         4.6220   -0.5670   -0.7930 c3        1 B49      0.084000
     36 C38         5.3940   -0.5430    0.5510 c3        1 B49      0.146800
     37 N4          6.7980   -0.8860    0.3750 n3        1 B49     -0.742600
     38 C39         7.5930    0.2400   -0.1020 c3        1 B49      0.171800
     39 C40         7.3760   -1.5280    1.5480 c3        1 B49      0.171800
     40 C41         6.9470   -2.9750    1.7350 c3        1 B49     -0.093100
     41 C42         8.8490   -0.1720   -0.8540 c3        1 B49     -0.093100
     42 H14         4.7630   -1.5750   -1.2790 h1        1 B49      0.068700
     43 H15         5.0410    0.2210   -1.4820 h1        1 B49      0.068700
     44 H16         5.2690    0.4760    1.0210 h1        1 B49      0.034200
     45 H17         4.9230   -1.2940    1.2460 h1        1 B49      0.034200
     46 H18         6.9530    0.8500   -0.8030 h1        1 B49      0.031700
     47 H19         7.8910    0.9200    0.7510 h1        1 B49      0.031700
     48 H20         8.4980   -1.5120    1.4340 h1        1 B49      0.031700
     49 H21         7.1310   -0.9550    2.4920 h1        1 B49      0.031700
     50 H22         7.5180   -3.4090    2.5910 hc        1 B49      0.037367
     51 H23         5.8570   -3.0540    1.9630 hc        1 B49      0.037367
     52 H24         7.1600   -3.5770    0.8200 hc        1 B49      0.037367
     53 H25         8.6040   -0.8600   -1.6980 hc        1 B49      0.037367
     54 H26         9.3320    0.7460   -1.2690 hc        1 B49      0.037367
     55 H27         9.5800   -0.6830   -0.1840 hc        1 B49      0.037367
     56 F29        -6.5350   -3.3790   -0.6460 f         1 B49     -0.140900
@<TRIPOS>BOND
     1    1   13 1   
     2    1   22 1   
     3    1   23 1   
     4    1   24 1   
     5    2    3 ar  
     6    2    6 ar  
     7    2   25 1   
     8    3   14 ar  
     9    3   26 1   
    10    4    6 ar  
    11    4    7 ar  
    12    4   27 1   
    13    5   11 1   
    14    5   15 2   
    15    5   16 1   
    16    6   56 1   
    17    7    8 1   
    18    7   14 ar  
    19    8    9 1   
    20    8   12 2   
    21    9   18 1   
    22    9   20 2   
    23   10   16 1   
    24   10   19 1   
    25   10   21 2   
    26   11   28 1   
    27   11   29 1   
    28   11   30 1   
    29   12   15 1   
    30   12   31 1   
    31   13   16 2   
    32   13   17 1   
    33   14   18 1   
    34   15   17 1   
    35   17   32 1   
    36   18   33 1   
    37   19   34 1   
    38   19   35 1   
    39   35   36 1   
    40   35   42 1   
    41   35   43 1   
    42   36   37 1   
    43   36   44 1   
    44   36   45 1   
    45   37   38 1   
    46   37   39 1   
    47   38   41 1   
    48   38   46 1   
    49   38   47 1   
    50   39   40 1   
    51   39   48 1   
    52   39   49 1   
    53   40   50 1   
    54   40   51 1   
    55   40   52 1   
    56   41   53 1   
    57   41   54 1   
    58   41   55 1   
@<TRIPOS>SUBSTRUCTURE
     1 B49         1 TEMP              0 ****  ****    0 ROOT
