@<TRIPOS>MOLECULE
B49
   56    53     1     0     0
SMALL
bcc


@<TRIPOS>ATOM
      1 C4         -0.1950    0.4320   -0.0490 c3        1 B49     -0.219000
      2 C5          7.9020   -1.7830   -4.1950 c2        1 B49     -0.319000
      3 C6          6.6120   -1.6870   -4.7390 c1        1 B49     -0.089000
      4 C7          7.1240   -1.1850   -1.9170 c2        1 B49     -0.250000
      5 C13         3.1870   -0.0350    1.4590 c2        1 B49      0.092000
      6 C15         8.1590   -1.6040   -2.8390 c2        1 B49      0.234000
      7 C17         5.8550   -1.0920   -2.3810 c2        1 B49      0.062000
      8 C20         4.6790   -0.4150   -1.8560 c2        1 B49     -0.155000
      9 C21         3.7560   -0.2620   -3.0460 c2        1 B49      0.315000
     10 C22         1.0540   -0.7720    2.6110 c2        1 B49      0.366000
     11 C3          4.2010   -0.5050    2.3970 c3        1 B49     -0.207000
     12 C12         4.5130    0.0000   -0.6200 c1        1 B49     -0.332000
     13 C14         1.2420    0.4630    0.3010 c2        1 B49      0.137000
     14 C16         5.5070   -1.6350   -3.7610 c3        1 B49     -0.042000
     15 C18         3.5900    0.7080    0.1850 c3        1 B49      0.092000
     16 C19         1.8180   -0.1500    1.5110 c2        1 B49     -0.251000
     17 N23         2.2110    1.0230   -0.4160 n3        1 B49     -0.192000
     18 N24         4.2380   -1.0200   -4.1220 n         1 B49     -0.329000
     19 N25        -0.0030   -1.5820    2.3110 n         1 B49     -0.438000
     20 O27         2.7020    0.4040   -3.1110 o         1 B49     -0.425000
     21 O28         1.3760   -0.5710    3.8080 o         1 B49     -0.409000
     22 H4         -0.8140    0.6270    0.8640 hc        1 B49      0.122333
     23 H4A        -0.4570   -0.5790   -0.4570 hc        1 B49      0.122333
     24 H4B        -0.4530    1.1950   -0.8260 hc        1 B49      0.122333
     25 H5          8.7410   -1.9760   -4.8810 ha        1 B49      0.158000
     26 H6          5.3020   -2.7600   -3.6220 h1        1 B49      0.161000
     27 H7          7.4030   -0.8760   -0.9000 ha        1 B49      0.167000
     28 H3          4.7490    0.3680    2.8370 hc        1 B49      0.124000
     29 H3A         4.9490   -1.1320    1.8400 hc        1 B49      0.124000
     30 H3B         3.7410   -1.0960    3.2320 hc        1 B49      0.124000
     31 H12         4.0270    1.7220    0.4470 h1        1 B49      0.164000
     32 HN23        2.1120    1.3380   -1.3650 hn        1 B49      0.287000
     33 HN24        4.0760   -0.7690   -5.0660 hn        1 B49      0.245000
     34 HN25       -0.1930   -1.8350    1.3760 hn        1 B49      0.248500
     35 C37         1.2440   -2.9660    9.1840 c1        1 B49      0.185000
     36 C38         0.9330   -2.5800    7.9500 c2        1 B49     -0.375000
     37 N4         -0.2340   -2.7440    7.1640 n3        1 B49     -0.085000
     38 C39         0.0060   -2.7510    5.7120 c3        1 B49     -0.155000
     39 C40        -1.1060   -3.6990    7.6010 c1        1 B49     -0.124000
     40 C41        -1.9350   -4.4680    8.0020 c1        1 B49     -0.217000
     41 C42        -1.1310   -2.6080    4.8330 c1        1 B49     -0.085000
     42 H14        -0.4920   -2.0520    3.0640 hn        1 B49      0.248500
     43 H15         2.2480   -2.8380    3.8430 ha        1 B49      0.003250
     44 H16         1.6970   -1.9120    7.4710 h4        1 B49      0.196000
     45 H17         2.6930   -3.3480    3.8820 ha        1 B49      0.003250
     46 H18         0.5570   -3.6860    5.3710 h1        1 B49      0.172500
     47 H19         0.7050   -1.8770    5.4720 h1        1 B49      0.172500
     48 H20         3.2570   -4.0240    6.1250 ha        1 B49      0.003250
     49 H21         2.7150   -3.6480    6.2800 ha        1 B49      0.003250
     50 H22        -2.6710   -5.1390    8.3610 ha        1 B49      0.237000
     51 H23         2.8690   -0.8040    5.6870 ha        1 B49      0.003250
     52 H24         2.9460   -1.4660    5.5610 ha        1 B49      0.003250
     53 H25        -2.1520   -2.6200    5.2330 ha        1 B49      0.083000
     54 H26        -1.5810   -0.3440    4.9550 ha        1 B49      0.003250
     55 H27        -0.9560   -0.3110    4.6860 ha        1 B49      0.003250
     56 F29         9.4060   -1.7290   -2.3480 f         1 B49     -0.092000
@<TRIPOS>BOND
     1    1   13 1   
     2    1   22 1   
     3    1   23 1   
     4    1   24 1   
     5    2    3 1   
     6    2    6 1   
     7    2   25 1   
     8    3   14 1   
     9    4    6 1   
    10    4    7 1   
    11    4   27 1   
    12    5   11 1   
    13    5   15 1   
    14    5   16 1   
    15    6   56 1   
    16    7    8 1   
    17    7   14 1   
    18    8    9 1   
    19    8   12 1   
    20    9   18 1   
    21    9   20 1   
    22   10   16 1   
    23   10   19 1   
    24   10   21 1   
    25   11   28 1   
    26   11   29 1   
    27   11   30 1   
    28   12   15 1   
    29   13   16 1   
    30   13   17 1   
    31   14   18 1   
    32   14   26 1   
    33   15   17 1   
    34   15   31 1   
    35   17   32 1   
    36   18   33 1   
    37   19   34 1   
    38   19   42 1   
    39   35   36 1   
    40   36   37 1   
    41   36   44 1   
    42   37   38 1   
    43   37   39 1   
    44   38   41 1   
    45   38   46 1   
    46   38   47 1   
    47   39   40 1   
    48   40   50 1   
    49   41   53 1   
    50   43   45 1   
    51   48   49 1   
    52   51   52 1   
    53   54   55 1   
@<TRIPOS>SUBSTRUCTURE
     1 B49         1 TEMP              0 ****  ****    0 ROOT
