@<TRIPOS>MOLECULE
B49
   56    51     1     0     0
SMALL
bcc


@<TRIPOS>ATOM
      1 C4         -1.6950    0.3610   -1.8450 c3        1 B49     -0.177000
      2 C5          7.2030    1.0200   -5.7590 c1        1 B49     -0.137000
      3 C6          6.4150    2.1190   -5.4060 c1        1 B49     -0.137000
      4 C7          5.7210   -0.4460   -4.5320 c1        1 B49     -0.118000
      5 C13         1.7660    0.0670   -0.4450 c1        1 B49     -0.009000
      6 C15         6.8530   -0.2650   -5.3190 c1        1 B49      0.062000
      7 C17         4.9290    0.6570   -4.1760 c1        1 B49     -0.061000
      8 C20         3.6850    0.7750   -3.3560 c2        1 B49     -0.169000
      9 C21         3.3030    2.1740   -3.3270 c2        1 B49      0.364000
     10 C22        -0.0670    0.1690    1.4000 c1        1 B49      0.378000
     11 C3          2.9620   -0.2730    0.4380 c2        1 B49     -0.181000
     12 C12         3.0460   -0.2550   -2.6990 c1        1 B49      0.050000
     13 C14        -0.3180    0.2550   -1.2030 c2        1 B49     -0.008000
     14 C16         5.2800    1.9390   -4.6160 c1        1 B49      0.048000
     15 C18         1.8020    0.0370   -1.8330 c1        1 B49     -0.126000
     16 C19         0.4600    0.2010   -0.0600 c1        1 B49     -0.212000
     17 N23         0.5170    0.1530   -2.2910 n2        1 B49     -0.128000
     18 N24         4.2610    2.9080   -4.0880 n         1 B49     -0.325000
     19 N25        -1.4930    0.3250    1.6660 n3        1 B49     -0.385000
     20 O27         2.3760    2.6450   -2.7050 o         1 B49     -0.376000
     21 O28         0.7130    0.0680    2.3240 o         1 B49     -0.370000
     22 F29         7.4780   -1.3800   -5.6870 f         1 B49     -0.106000
     23 H4         -2.2560   -0.3710   -1.5330 hc        1 B49      0.099333
     24 H4A        -1.6060    0.3120   -2.8180 hc        1 B49      0.099333
     25 H4B        -2.1080    1.2200   -1.5960 hc        1 B49      0.099333
     26 H5          7.9930    1.1460   -6.3090 ha        1 B49      0.149000
     27 H6          6.6600    3.0140   -5.7130 ha        1 B49      0.149000
     28 H7          5.4780   -1.3410   -4.2260 ha        1 B49      0.152000
     29 H3          3.0250    0.3810    1.1700 ha        1 B49      0.099333
     30 H3A         3.7740   -0.2440   -0.0920 ha        1 B49      0.099333
     31 H3B         2.8470   -1.1760    0.8140 ha        1 B49      0.099333
     32 H12         3.3600   -1.1770   -2.8100 ha        1 B49      0.147000
     33 HN23        0.2570    0.1620   -3.1740 DU        1 B49      0.288000
     34 HN24        4.2560    3.8020   -4.2290 hn        1 B49      0.258000
     35 HN25       -1.9890    0.9240    1.1750 hn        1 B49      0.217000
     36 C37        -2.1180   -0.4220    2.7540 c3        1 B49     -0.031000
     37 C38        -3.4710    0.2430    3.1320 c3        1 B49     -0.072000
     38 N4         -4.3200   -0.7340    3.8340 n3        1 B49     -0.289000
     39 C39        -5.1430   -0.0450    4.8160 c3        1 B49     -0.049500
     40 C40        -5.1780   -1.4120    2.8740 c3        1 B49     -0.049500
     41 C41        -5.4290   -2.8480    3.3410 c3        1 B49     -0.214000
     42 C42        -5.0320   -0.7530    6.1590 c3        1 B49     -0.214000
     43 H14        -1.5240   -0.4200    3.5340 h1        1 B49      0.108000
     44 H15        -2.2770   -1.3500    2.4650 h1        1 B49      0.108000
     45 H16        -3.9240    0.5450    2.3220 h1        1 B49      0.070000
     46 H17        -3.3050    1.0070    3.7160 h1        1 B49      0.070000
     47 H18        -6.0740   -0.0510    4.5220 h1        1 B49      0.065750
     48 H19        -4.8350    0.8790    4.9090 h1        1 B49      0.065750
     49 H20        -6.0340   -0.9350    2.8050 h1        1 B49      0.065750
     50 H21        -4.7450   -1.4250    2.0060 h1        1 B49      0.065750
     51 H22        -5.7960   -3.3730    2.6000 hc        1 B49      0.078167
     52 H23        -6.0720   -2.8420    4.0900 hc        1 B49      0.078167
     53 H24        -4.5850   -3.2470    3.6380 hc        1 B49      0.078167
     54 H25        -4.3130   -0.3490    6.6820 hc        1 B49      0.078167
     55 H26        -4.8350   -1.7070    6.0130 hc        1 B49      0.078167
     56 H27        -5.8770   -0.6660    6.6450 hc        1 B49      0.078167
@<TRIPOS>BOND
     1    1   13 1   
     2    1   23 1   
     3    1   24 1   
     4    1   25 1   
     5    2    3 1   
     6    2   26 1   
     7    3   27 1   
     8    4    6 1   
     9    4   28 1   
    10    5   15 1   
    11    5   16 1   
    12    6   22 1   
    13    7    8 1   
    14    7   14 1   
    15    8    9 1   
    16    8   12 1   
    17    9   18 1   
    18    9   20 1   
    19   10   19 1   
    20   10   21 1   
    21   11   29 1   
    22   11   30 1   
    23   11   31 1   
    24   12   32 1   
    25   13   16 1   
    26   13   17 1   
    27   14   18 1   
    28   15   17 1   
    29   18   34 1   
    30   19   35 1   
    31   19   36 1   
    32   36   37 1   
    33   36   43 1   
    34   36   44 1   
    35   37   38 1   
    36   37   45 1   
    37   37   46 1   
    38   38   39 1   
    39   38   40 1   
    40   39   42 1   
    41   39   47 1   
    42   39   48 1   
    43   40   41 1   
    44   40   49 1   
    45   40   50 1   
    46   41   51 1   
    47   41   52 1   
    48   41   53 1   
    49   42   54 1   
    50   42   55 1   
    51   42   56 1   
@<TRIPOS>SUBSTRUCTURE
     1 B49         1 TEMP              0 ****  ****    0 ROOT
