@<TRIPOS>MOLECULE
B4C
   97    88     1     0     0
SMALL
bcc


@<TRIPOS>ATOM
      1 C10        -7.4670    2.1840   -5.1360 c1        1 B4C     -0.119417
      2 C12        -8.8410    3.5480   -3.6580 c1        1 B4C     -0.119417
      3 C21        -1.5300   -3.3800   -5.5330 c1        1 B4C     -0.119417
      4 C28         5.5950   -5.2470    1.4050 c3        1 B4C     -0.161000
      5 C27         4.6360   -4.1670    1.8230 c3        1 B4C     -0.158000
      6 C26         3.7390   -3.7980    0.6440 c3        1 B4C     -0.167000
      7 C25         3.1690   -2.4030    0.8590 c3        1 B4C      0.039000
      8 C24         0.9220   -1.2630    1.1510 c1        1 B4C      0.276000
      9 C23        -1.1100   -3.7670   -3.1870 c1        1 B4C     -0.126000
     10 C13        -7.7140    3.7770   -2.8270 c1        1 B4C     -0.119417
     11 C14        -2.2160    0.4060    1.5510 c1        1 B4C      0.270000
     12 C19        -1.8750   -1.6050   -3.9400 c1        1 B4C     -0.119417
     13 C18        -1.4780   -2.4590   -2.9030 c1        1 B4C     -0.075000
     14 C17        -1.6730   -2.0430   -1.4320 c3        1 B4C     -0.121000
     15 C16        -0.4270   -1.2520   -0.9530 c3        1 B4C     -0.161000
     16 C15        -0.4810   -1.0700    0.5680 c2        1 B4C      0.010000
     17 C8         -6.4870    3.2170   -3.1490 c1        1 B4C     -0.092000
     18 C7         -5.2770    3.4680   -2.2630 c3        1 B4C      0.041000
     19 C5         -2.8630    1.7730    1.6100 c2        1 B4C      0.024000
     20 C4         -3.2240    2.0980    3.0510 c3        1 B4C     -0.159000
     21 C3         -3.4500    3.6960    3.2050 c3        1 B4C     -0.160000
     22 C30         3.6980   -1.4850   -0.1910 c3        1 B4C      0.083000
     23 C31         5.0130   -0.8630    0.2820 c2        1 B4C      0.001000
     24 C2         -3.6300    4.0500    4.6720 c3        1 B4C     -0.162000
     25 C9         -6.3570    2.4120   -4.3150 c1        1 B4C     -0.117000
     26 C11        -8.7120    2.7510   -4.8100 c1        1 B4C     -0.119417
     27 O2         -5.3670    2.6560   -1.0870 os        1 B4C     -0.274000
     28 C6         -4.1820    2.6780   -0.2750 c2        1 B4C      0.396000
     29 O1         -3.3150    3.4830   -0.4960 o         1 B4C     -0.413000
     30 N2         -4.0510    1.7700    0.8100 n         1 B4C     -0.349000
     31 C1         -3.5030    5.5470    4.8500 c3        1 B4C     -0.077000
     32 N1         -3.6270    5.8660    6.2190 n3        1 B4C     -0.349000
     33 O3         -2.7640   -0.5550    2.0850 o         1 B4C     -0.368000
     34 N3         -0.9470    0.2300    0.8700 n3        1 B4C     -0.353000
     35 C20        -1.8990   -2.0690   -5.2500 c1        1 B4C     -0.119417
     36 C22        -1.1370   -4.2270   -4.5090 c1        1 B4C     -0.119417
     37 O4          1.3720   -0.4460    1.9700 o         1 B4C     -0.369000
     38 N4          1.7190   -2.4460    0.7720 n3        1 B4C     -0.369000
     39 C29         6.9670   -4.9500    1.9700 c3        1 B4C     -0.079000
     40 O5          3.9190   -2.2090   -1.3800 oh        1 B4C     -0.313000
     41 O6          5.1040    0.3090    0.9620 os        1 B4C     -0.123000
     42 C37         6.3790    0.7910    0.8060 c1        1 B4C     -0.011000
     43 C36         7.0300    1.8800    1.3610 c1        1 B4C     -0.119417
     44 C35         8.3530    2.0700    1.1310 c1        1 B4C     -0.119417
     45 C34         9.0470    1.1830    0.3480 c1        1 B4C     -0.119417
     46 C33         8.4050    0.1050   -0.2020 c1        1 B4C     -0.119417
     47 C32         7.0660   -0.0870    0.0310 c1        1 B4C     -0.083000
     48 N6          6.2230   -1.1110   -0.2950 n1        1 B4C     -0.130000
     49 N5          7.9330   -5.8130    1.3560 n3        1 B4C     -0.348000
     50 H10        -7.3740    1.6210   -5.9490 ha        1 B4C      0.137917
     51 H12        -9.7110    3.9450   -3.4290 ha        1 B4C      0.137917
     52 H21        -1.5490   -3.7070   -6.4660 ha        1 B4C      0.137917
     53 H28         5.2760   -6.1220    1.7520 hc        1 B4C      0.086500
     54 H28A        5.6480   -5.2830    0.4060 hc        1 B4C      0.086500
     55 H27         5.1380   -3.3810    2.1100 hc        1 B4C      0.087000
     56 H27A        4.0890   -4.4890    2.5570 hc        1 B4C      0.087000
     57 H26         4.2690   -3.8120   -0.1900 hc        1 B4C      0.099000
     58 H26A        3.0100   -4.4410    0.5770 hc        1 B4C      0.099000
     59 H25         3.4280   -2.0830    1.7300 h1        1 B4C      0.146000
     60 H23        -0.8320   -4.3670   -2.4660 ha        1 B4C      0.131000
     61 H13        -7.8010    4.3180   -2.0430 ha        1 B4C      0.137917
     62 H19        -2.1320   -0.6910   -3.7450 ha        1 B4C      0.137917
     63 H17        -2.4680   -1.4810   -1.3550 hc        1 B4C      0.095000
     64 H17A       -1.7850   -2.8460   -0.8760 hc        1 B4C      0.095000
     65 H16        -0.4110   -0.3900   -1.3780 hc        1 B4C      0.101000
     66 H16A        0.3940   -1.7550   -1.1950 hc        1 B4C      0.101000
     67 H15        -1.0710   -1.7150    0.9440 h4        1 B4C      0.135000
     68 H7         -4.4700    3.2400   -2.7500 h1        1 B4C      0.104000
     69 H7A        -5.2490    4.4290   -2.0030 h1        1 B4C      0.104000
     70 H5         -2.2620    2.4210    1.2810 h4        1 B4C      0.134000
     71 H4         -2.5100    1.8150    3.6300 hc        1 B4C      0.108500
     72 H4A        -4.0340    1.6350    3.2890 hc        1 B4C      0.108500
     73 H3         -4.2440    3.9580    2.7130 hc        1 B4C      0.085500
     74 H3A        -2.6610    4.1770    2.8430 hc        1 B4C      0.085500
     75 H30         3.0290   -0.7620   -0.3610 h1        1 B4C      0.111000
     76 H2         -2.9200    3.5860    5.2230 hc        1 B4C      0.089000
     77 H2A        -4.5340    3.7540    4.9790 hc        1 B4C      0.089000
     78 H9         -5.4780    2.0110   -4.5440 ha        1 B4C      0.134000
     79 H11        -9.5060    2.5880   -5.3970 ha        1 B4C      0.137917
     80 HN2        -4.7150    1.1640    0.9800 hn        1 B4C      0.251000
     81 H1         -2.6250    5.8420    4.5230 h1        1 B4C      0.064500
     82 H1A        -4.2030    5.9950    4.3500 h1        1 B4C      0.064500
     83 HN1        -4.3780    6.4400    6.3460 hn        1 B4C      0.144500
     84 HN1A       -2.8390    6.3040    6.5190 hn        1 B4C      0.144500
     85 HN3        -0.4390    0.9770    0.6290 hn        1 B4C      0.260000
     86 H20        -2.1700   -1.4880   -5.9590 ha        1 B4C      0.137917
     87 H22        -0.8900   -5.1040   -4.7030 ha        1 B4C      0.137917
     88 HN4         1.3110   -3.1650    0.4060 hn        1 B4C      0.236000
     89 H29         7.1970   -4.0310    1.7880 h1        1 B4C      0.065500
     90 H29A        6.9630   -5.1000    2.9400 h1        1 B4C      0.065500
     91 HO5         3.6980   -1.7010   -2.0800 ho        1 B4C      0.223000
     92 H36         6.5490    2.4940    1.9030 ha        1 B4C      0.137917
     93 H35         8.8060    2.8300    1.5190 ha        1 B4C      0.137917
     94 H34        10.0000    1.3190    0.1840 ha        1 B4C      0.137917
     95 H33         8.8940   -0.5210   -0.7530 ha        1 B4C      0.137917
     96 HN5         8.2670   -6.3560    1.9630 hn        1 B4C      0.142500
     97 HN5A        8.6110   -5.3040    0.9910 hn        1 B4C      0.142500
@<TRIPOS>BOND
     1    1   26 1   
     2    1   50 1   
     3    2   10 1   
     4    2   51 1   
     5    3   36 1   
     6    3   52 1   
     7    4    5 1   
     8    4   39 1   
     9    4   53 1   
    10    4   54 1   
    11    5    6 1   
    12    5   55 1   
    13    5   56 1   
    14    6    7 1   
    15    6   57 1   
    16    6   58 1   
    17    7   22 1   
    18    7   38 1   
    19    7   59 1   
    20    8   37 1   
    21    8   38 1   
    22    9   13 1   
    23    9   60 1   
    24   10   61 1   
    25   11   33 1   
    26   11   34 1   
    27   12   35 1   
    28   12   62 1   
    29   13   14 1   
    30   14   15 1   
    31   14   63 1   
    32   14   64 1   
    33   15   16 1   
    34   15   65 1   
    35   15   66 1   
    36   16   34 1   
    37   16   67 1   
    38   17   18 1   
    39   17   25 1   
    40   18   27 1   
    41   18   68 1   
    42   18   69 1   
    43   19   20 1   
    44   19   30 1   
    45   19   70 1   
    46   20   21 1   
    47   20   71 1   
    48   20   72 1   
    49   21   24 1   
    50   21   73 1   
    51   21   74 1   
    52   22   23 1   
    53   22   40 1   
    54   22   75 1   
    55   23   41 1   
    56   23   48 1   
    57   24   31 1   
    58   24   76 1   
    59   24   77 1   
    60   25   78 1   
    61   26   79 1   
    62   27   28 1   
    63   28   29 1   
    64   28   30 1   
    65   30   80 1   
    66   31   32 1   
    67   31   81 1   
    68   31   82 1   
    69   32   83 1   
    70   32   84 1   
    71   34   85 1   
    72   35   86 1   
    73   36   87 1   
    74   38   88 1   
    75   39   49 1   
    76   39   89 1   
    77   39   90 1   
    78   40   91 1   
    79   41   42 1   
    80   42   47 1   
    81   43   44 1   
    82   43   92 1   
    83   44   93 1   
    84   45   46 1   
    85   45   94 1   
    86   46   95 1   
    87   49   96 1   
    88   49   97 1   
@<TRIPOS>SUBSTRUCTURE
     1 B4C         1 TEMP              0 ****  ****    0 ROOT
