@<TRIPOS>MOLECULE
B4C
   97   100     1     0     0
SMALL
bcc


@<TRIPOS>ATOM
      1 C10        10.2800   -1.7660   -1.7560 ca        1 B4C     -0.131500
      2 C12         9.6910    0.4600   -2.4850 ca        1 B4C     -0.131500
      3 C21         0.2140   -7.5330    1.1740 ca        1 B4C     -0.130000
      4 C28        -3.4540    3.4870   -2.6920 c3        1 B4C     -0.083400
      5 C26        -3.8950    1.1690   -1.8930 c3        1 B4C     -0.099400
      6 C25        -3.6350    0.1250   -0.7960 c3        1 B4C      0.075700
      7 C24        -1.4130   -0.3970    0.1670 c         1 B4C      0.636100
      8 C23         0.3840   -5.8160   -0.5190 ca        1 B4C     -0.126000
      9 C13         8.6710    0.5030   -1.5350 ca        1 B4C     -0.111500
     10 C14         1.9590    0.3020   -0.0340 c         1 B4C      0.625100
     11 C19         0.7350   -5.2600    1.8060 ca        1 B4C     -0.126000
     12 C18         0.6750   -4.8640    0.4650 ca        1 B4C     -0.084300
     13 C16        -0.2580   -2.5680    0.4330 c3        1 B4C     -0.082400
     14 C15        -0.0560   -1.1210   -0.0480 c3        1 B4C      0.032700
     15 C8          8.4510   -0.5910   -0.6930 ca        1 B4C     -0.097300
     16 C7          7.3950   -0.5620    0.3580 c3        1 B4C      0.196700
     17 C5          2.9310    1.1510    0.8290 c3        1 B4C      0.031700
     18 C4          2.2850    2.5400    0.9660 c3        1 B4C     -0.081400
     19 C3          3.0160    3.4030    1.9710 c3        1 B4C     -0.079400
     20 C30        -4.7120   -1.0030   -0.8690 c3        1 B4C      0.117800
     21 C31        -6.0480   -0.4660   -0.4520 cc        1 B4C      0.498600
     22 C2          2.3000    4.7240    2.1600 c3        1 B4C     -0.083400
     23 C9          9.2570   -1.7300   -0.8100 ca        1 B4C     -0.111500
     24 C11        10.4980   -0.6720   -2.5950 ca        1 B4C     -0.124000
     25 O2          6.2940    0.2190   -0.1520 os        1 B4C     -0.434900
     26 C6          5.2240    0.3350    0.7090 c         1 B4C      0.727100
     27 O1          5.2560   -0.2650    1.7970 o         1 B4C     -0.585000
     28 N2          4.2520    1.2100    0.2420 n         1 B4C     -0.500900
     29 C1          3.0480    5.5830    3.1800 c3        1 B4C      0.159800
     30 N1          2.4040    6.8490    3.4400 n3        1 B4C     -0.916800
     31 N3          1.0080   -0.4350    0.6410 n         1 B4C     -0.540900
     32 C20         0.5040   -6.5890    2.1580 ca        1 B4C     -0.127500
     33 C22         0.1550   -7.1450   -0.1640 ca        1 B4C     -0.127500
     34 N4         -2.3110   -0.4430   -0.8740 n         1 B4C     -0.559900
     35 C29        -2.6250    4.7500   -2.4590 c3        1 B4C      0.158800
     36 O5         -4.7490   -1.6180   -2.1350 oh        1 B4C     -0.577800
     37 O6         -6.1980   -0.3100    0.9550 os        1 B4C     -0.302700
     38 C37        -7.5020    0.1610    1.1070 ca        1 B4C      0.036100
     39 C36        -8.1770    0.4870    2.2740 ca        1 B4C     -0.111000
     40 C35        -9.4890    0.9360    2.1150 ca        1 B4C     -0.108000
     41 C34       -10.0840    1.0500    0.8500 ca        1 B4C     -0.146000
     42 C33        -9.4040    0.7230   -0.3230 ca        1 B4C     -0.065000
     43 C32        -8.0880    0.2700   -0.2020 ca        1 B4C      0.054400
     44 N6         -7.1240   -0.1380   -1.1550 nd        1 B4C     -0.553100
     45 N5         -2.8890    5.7920   -3.4220 n3        1 B4C     -0.915800
     46 H10        10.9140   -2.6610   -1.8430 ha        1 B4C      0.133000
     47 H12         9.8580    1.3210   -3.1480 ha        1 B4C      0.133000
     48 H28        -3.2690    3.0960   -3.7270 hc        1 B4C      0.047700
     49 H28A       -4.5470    3.7250   -2.6140 hc        1 B4C      0.047700
     50 H27        -1.9920    2.2010   -1.7450 hc        1 B4C      0.049700
     51 H27A       -3.2770    2.8210   -0.6370 hc        1 B4C      0.049700
     52 H26        -4.9880    1.4210   -1.8850 hc        1 B4C      0.054200
     53 H26A       -3.6560    0.7410   -2.9030 hc        1 B4C      0.054200
     54 H25        -3.7480    0.6240    0.2160 h1        1 B4C      0.108700
     55 H23         0.3400   -5.5160   -1.5760 ha        1 B4C      0.131500
     56 H13         8.0280    1.3920   -1.4480 ha        1 B4C      0.139000
     57 H19         0.9670   -4.5170    2.5830 ha        1 B4C      0.131500
     58 H16        -1.1770   -2.9710   -0.0680 hc        1 B4C      0.060200
     59 H16A       -0.4400   -2.5860    1.5400 hc        1 B4C      0.060200
     60 H15         0.2050   -1.1380   -1.1510 h1        1 B4C      0.102700
     61 H7          7.0190   -1.5910    0.6040 h1        1 B4C      0.065200
     62 H7A         7.7730   -0.0730    1.2970 h1        1 B4C      0.065200
     63 H5          3.0340    0.6940    1.8610 h1        1 B4C      0.105700
     64 H4          2.2570    3.0500   -0.0320 hc        1 B4C      0.060200
     65 H4A         1.2240    2.3910    1.3010 hc        1 B4C      0.060200
     66 H3          3.0830    2.8660    2.9540 hc        1 B4C      0.051700
     67 H3A         4.0660    3.5900    1.6230 hc        1 B4C      0.051700
     68 H30        -4.4430   -1.8420   -0.1580 h1        1 B4C      0.111700
     69 H2          2.2360    5.2620    1.1780 hc        1 B4C      0.048200
     70 H2A         1.2510    4.5420    2.5130 hc        1 B4C      0.048200
     71 H9          9.0830   -2.5970   -0.1550 ha        1 B4C      0.139000
     72 H11        11.3030   -0.7050   -3.3430 ha        1 B4C      0.132000
     73 HN2         4.2810    1.4270   -0.7340 hn        1 B4C      0.331500
     74 H1          3.0960    5.0240    4.1580 h1        1 B4C      0.025700
     75 H1A         4.1130    5.7050    2.8180 h1        1 B4C      0.025700
     76 HN1         2.9750    7.4120    4.0380 hn        1 B4C      0.348800
     77 HN1A        2.2280    7.3450    2.5900 hn        1 B4C      0.348800
     78 HN3         0.8560   -0.2580    1.6090 hn        1 B4C      0.327500
     79 H20         0.5540   -6.8920    3.2140 ha        1 B4C      0.132000
     80 H22        -0.0720   -7.8880   -0.9430 ha        1 B4C      0.132000
     81 HN4        -2.0850   -0.9370   -1.7040 hn        1 B4C      0.322500
     82 H29        -2.8020    5.0900   -1.3940 h1        1 B4C      0.025700
     83 H29A       -1.5320    4.4870   -2.5420 h1        1 B4C      0.025700
     84 HO5        -5.0810   -0.9750   -2.7770 ho        1 B4C      0.421000
     85 H36        -7.7050    0.3960    3.2600 ha        1 B4C      0.156000
     86 H35       -10.0720    1.2080    3.0080 ha        1 B4C      0.140000
     87 H34       -11.1220    1.4080    0.7810 ha        1 B4C      0.139000
     88 H33        -9.8830    0.8160   -1.3070 ha        1 B4C      0.154000
     89 HN5        -3.8690    5.9780   -3.4940 hn        1 B4C      0.348300
     90 HN5A       -2.4130    6.6330   -3.1620 hn        1 B4C      0.348300
     91 O3          2.0590    0.2750   -1.2770 o         1 B4C     -0.610100
     92 O4         -1.6690    0.1880    1.2390 o         1 B4C     -0.614100
     93 C17         0.9310   -3.4450    0.0920 c3        1 B4C     -0.036100
     94 H21         0.0330   -8.5820    1.4520 ha        1 B4C      0.131000
     95 C27        -3.0880    2.4300   -1.6720 c3        1 B4C     -0.077400
     96 H17         1.8420   -3.0790    0.6370 hc        1 B4C      0.057700
     97 H17A        1.1490   -3.3690   -1.0070 hc        1 B4C      0.057700
@<TRIPOS>BOND
     1    1   23 ar  
     2    1   24 ar  
     3    1   46 1   
     4    2    9 ar  
     5    2   24 ar  
     6    2   47 1   
     7    3   32 ar  
     8    3   33 ar  
     9    3   94 1   
    10    4   35 1   
    11    4   48 1   
    12    4   49 1   
    13    4   95 1   
    14    5    6 1   
    15    5   52 1   
    16    5   53 1   
    17    5   95 1   
    18    6   20 1   
    19    6   34 1   
    20    6   54 1   
    21    7   14 1   
    22    7   34 1   
    23    7   92 2   
    24    8   12 ar  
    25    8   33 ar  
    26    8   55 1   
    27    9   15 ar  
    28    9   56 1   
    29   10   17 1   
    30   10   31 1   
    31   10   91 2   
    32   11   12 ar  
    33   11   32 ar  
    34   11   57 1   
    35   12   93 1   
    36   13   14 1   
    37   13   58 1   
    38   13   59 1   
    39   13   93 1   
    40   14   31 1   
    41   14   60 1   
    42   15   16 1   
    43   15   23 ar  
    44   16   25 1   
    45   16   61 1   
    46   16   62 1   
    47   17   18 1   
    48   17   28 1   
    49   17   63 1   
    50   18   19 1   
    51   18   64 1   
    52   18   65 1   
    53   19   22 1   
    54   19   66 1   
    55   19   67 1   
    56   20   21 1   
    57   20   36 1   
    58   20   68 1   
    59   21   37 1   
    60   21   44 2   
    61   22   29 1   
    62   22   69 1   
    63   22   70 1   
    64   23   71 1   
    65   24   72 1   
    66   25   26 1   
    67   26   27 2   
    68   26   28 1   
    69   28   73 1   
    70   29   30 1   
    71   29   74 1   
    72   29   75 1   
    73   30   76 1   
    74   30   77 1   
    75   31   78 1   
    76   32   79 1   
    77   33   80 1   
    78   34   81 1   
    79   35   45 1   
    80   35   82 1   
    81   35   83 1   
    82   36   84 1   
    83   37   38 1   
    84   38   39 ar  
    85   38   43 ar  
    86   39   40 ar  
    87   39   85 1   
    88   40   41 ar  
    89   40   86 1   
    90   41   42 ar  
    91   41   87 1   
    92   42   43 ar  
    93   42   88 1   
    94   43   44 1   
    95   45   89 1   
    96   45   90 1   
    97   50   95 1   
    98   51   95 1   
    99   93   96 1   
   100   93   97 1   
@<TRIPOS>SUBSTRUCTURE
     1 B4C         1 TEMP              0 ****  ****    0 ROOT
