@<TRIPOS>MOLECULE
B4D
   37    38     1     0     0
SMALL
bcc


@<TRIPOS>ATOM
      1 C01        -0.0280   -0.5610   -0.1920 c2        1 B4D     -0.159000
      2 C02         1.2620   -0.3830    0.0940 c2        1 B4D     -0.195200
      3 C03         1.7840   -0.2510    1.4660 c3        1 B4D      0.053900
      4 S04         2.6370   -1.7800    1.8130 ss        1 B4D     -0.325200
      5 C05         3.4420   -1.4400    3.3490 c3        1 B4D     -0.070300
      6 C06         4.7250   -2.3070    3.4080 c3        1 B4D      0.526700
      7 N07         5.5730   -2.0580    2.2190 nh        1 B4D     -0.720600
      8 C08         6.7400   -1.3860    2.2400 ca        1 B4D      0.382600
      9 C09         7.5160   -1.2430    1.0340 ca        1 B4D     -0.225000
     10 C10         8.7290   -0.6110    1.0590 ca        1 B4D      0.197400
     11 CL11        9.6390   -0.5510   -0.3740 cl        1 B4D     -0.045400
     12 C12         9.2780   -0.0290    2.2450 ca        1 B4D     -0.650500
     13 S13        10.5880    0.8630    2.3330 sy        1 B4D      1.505200
     14 N14        11.8830   -0.5200    1.9920 n4        1 B4D     -0.783500
     15 O15        10.8740    1.7070    1.2850 o         1 B4D     -0.570300
     16 O16        10.9480    1.2150    3.6200 o         1 B4D     -0.570300
     17 C17         8.5030   -0.2080    3.4200 ca        1 B4D      0.175000
     18 C18         7.2790   -0.8350    3.4530 ca        1 B4D     -0.453500
     19 S19         6.4120   -0.8760    4.9350 sy        1 B4D      1.530200
     20 O20         7.3200   -1.1610    5.9590 o         1 B4D     -0.624800
     21 O21         5.6830    0.3090    5.0190 o         1 B4D     -0.624800
     22 N22         5.4500   -2.1470    4.6460 n3        1 B4D     -0.917100
     23 H01        -0.8070   -0.6330    0.5800 ha        1 B4D      0.127000
     24 H01A       -0.3880   -0.6430   -1.2270 ha        1 B4D      0.127000
     25 H02         2.0180   -0.3110   -0.7060 ha        1 B4D      0.132000
     26 H03         2.4920    0.6100    1.5450 h1        1 B4D      0.076200
     27 H03A        0.9670   -0.1020    2.2150 h1        1 B4D      0.076200
     28 H05         2.7820   -1.7380    4.2030 h1        1 B4D      0.104200
     29 H05A        3.6700   -0.3510    3.4650 h1        1 B4D      0.104200
     30 H06         4.4020   -3.3980    3.3140 h2        1 B4D      0.108700
     31 HN07        5.1320   -2.2850    1.3450 hn        1 B4D      0.493800
     32 H09         7.1250   -1.6600    0.0890 ha        1 B4D      0.183000
     33 HN14       11.4480   -1.4210    1.8250 hn        1 B4D      0.453467
     34 HN1A       12.4440   -0.2850    1.1750 hn        1 B4D      0.453467
     35 H17         8.9100    0.1960    4.3770 ha        1 B4D      0.189000
     36 HN22        5.3730   -2.9250    5.2610 hn        1 B4D      0.482800
     37 H143       12.5120   -0.6150    2.7870 hn        1 B4D      0.453467
@<TRIPOS>BOND
     1    1    2 2   
     2    1   23 1   
     3    1   24 1   
     4    2    3 1   
     5    2   25 1   
     6    3    4 1   
     7    3   26 1   
     8    3   27 1   
     9    4    5 1   
    10    5    6 1   
    11    5   28 1   
    12    5   29 1   
    13    6    7 1   
    14    6   22 1   
    15    6   30 1   
    16    7    8 1   
    17    7   31 1   
    18    8    9 ar  
    19    8   18 ar  
    20    9   10 ar  
    21    9   32 1   
    22   10   11 1   
    23   10   12 ar  
    24   12   13 1   
    25   12   17 ar  
    26   13   14 1   
    27   13   15 2   
    28   13   16 2   
    29   14   33 1   
    30   14   34 1   
    31   14   37 1   
    32   17   18 ar  
    33   17   35 1   
    34   18   19 1   
    35   19   20 2   
    36   19   21 2   
    37   19   22 1   
    38   22   36 1   
@<TRIPOS>SUBSTRUCTURE
     1 B4D         1 TEMP              0 ****  ****    0 ROOT
