@<TRIPOS>MOLECULE
B4D
   37    38     1     0     0
SMALL
bcc


@<TRIPOS>ATOM
      1 C01        -0.0330   -0.5670   -0.1760 c2        1 B4D     -0.159000
      2 C02         1.2600   -0.3950    0.1030 c2        1 B4D     -0.195200
      3 C03         1.7870   -0.2550    1.4720 c3        1 B4D      0.053900
      4 S04         2.6350   -1.7840    1.8280 ss        1 B4D     -0.325200
      5 C05         3.4440   -1.4370    3.3610 c3        1 B4D     -0.070300
      6 C06         4.7270   -2.3030    3.4200 c3        1 B4D      0.526700
      7 N07         5.5720   -2.0610    2.2280 nu        1 B4D     -0.720600
      8 C08         6.7390   -1.3880    2.2420 ca        1 B4D      0.382600
      9 C09         7.5120   -1.2510    1.0320 ca        1 B4D     -0.225000
     10 C10         8.7230   -0.6180    1.0510 ca        1 B4D      0.197400
     11 Cl11        9.6300   -0.5650   -0.3850 cl        1 B4D     -0.045400
     12 C12         9.2750   -0.0280    2.2320 ca        1 B4D     -0.650500
     13 S13        10.5850    0.8660    2.3110 sy        1 B4D      1.505200
     14 N14        11.8800   -0.5180    1.9740 nz        1 B4D     -0.783500
     15 O15        10.8670    1.7030    1.2570 o         1 B4D     -0.570300
     16 O16        10.9470    1.2250    3.5950 o         1 B4D     -0.570300
     17 C17         8.5040   -0.2020    3.4100 ca        1 B4D      0.175000
     18 C18         7.2800   -0.8300    3.4500 ca        1 B4D     -0.453500
     19 S19         6.4180   -0.8640    4.9350 sy        1 B4D      1.530200
     20 O20         7.3290   -1.1430    5.9580 o         1 B4D     -0.624800
     21 O21         5.6880    0.3220    5.0140 o         1 B4D     -0.624800
     22 N22         5.4560   -2.1370    4.6560 n7        1 B4D     -0.917100
     23 H01        -0.8100   -0.6270    0.5990 ha        1 B4D      0.127000
     24 H01A       -0.3970   -0.6560   -1.2090 ha        1 B4D      0.127000
     25 H02         2.0130   -0.3360   -0.7000 ha        1 B4D      0.132000
     26 H03         2.5000    0.6040    1.5420 h1        1 B4D      0.076200
     27 H03A        0.9750   -0.0960    2.2230 h1        1 B4D      0.076200
     28 H05         2.7860   -1.7310    4.2170 h1        1 B4D      0.104200
     29 H05A        3.6720   -0.3480    3.4700 h1        1 B4D      0.104200
     30 H06         4.4050   -3.3950    3.3340 h2        1 B4D      0.108700
     31 HN07        5.1280   -2.2930    1.3560 hn        1 B4D      0.493800
     32 H09         7.1180   -1.6740    0.0910 ha        1 B4D      0.183000
     33 HN14       12.4380   -0.2870    1.1540 hn        1 B4D      0.453467
     34 HN1A       11.4460   -1.4210    1.8130 hn        1 B4D      0.453467
     35 H17         8.9130    0.2080    4.3640 ha        1 B4D      0.189000
     36 HN22        5.3810   -2.9110    5.2750 hn        1 B4D      0.482800
     37 H143       12.5120   -0.6080    2.7680 hn        1 B4D      0.453467
@<TRIPOS>BOND
     1    1    2 2   
     2    1   23 1   
     3    1   24 1   
     4    2    3 1   
     5    2   25 1   
     6    3    4 1   
     7    3   26 1   
     8    3   27 1   
     9    4    5 1   
    10    5    6 1   
    11    5   28 1   
    12    5   29 1   
    13    6    7 1   
    14    6   22 1   
    15    6   30 1   
    16    7    8 1   
    17    7   31 1   
    18    8    9 ar  
    19    8   18 ar  
    20    9   10 ar  
    21    9   32 1   
    22   10   11 1   
    23   10   12 ar  
    24   12   13 1   
    25   12   17 ar  
    26   13   14 1   
    27   13   15 2   
    28   13   16 2   
    29   14   33 1   
    30   14   34 1   
    31   14   37 1   
    32   17   18 ar  
    33   17   35 1   
    34   18   19 1   
    35   19   20 2   
    36   19   21 2   
    37   19   22 1   
    38   22   36 1   
@<TRIPOS>SUBSTRUCTURE
     1 B4D         1 TEMP              0 ****  ****    0 ROOT
