@<TRIPOS>MOLECULE
B4D
   36    31     1     0     0
SMALL
bcc


@<TRIPOS>ATOM
      1 C01        -6.8150   -1.6830    1.7640 c1        1 B4D     -0.182000
      2 C02        -5.8250   -1.8020    0.8150 c1        1 B4D     -0.182000
      3 C03        -4.6290   -0.8520    0.8370 c2        1 B4D     -0.249000
      4 S04        -3.3170   -1.5080   -0.2080 ss        1 B4D      0.079000
      5 C05        -1.8090   -0.6340    0.1240 c3        1 B4D     -0.333000
      6 C06        -0.6150   -1.6480    0.1630 c3        1 B4D      0.176000
      7 N07         0.1470   -1.4790   -1.0550 n3        1 B4D     -0.344000
      8 C08         1.2610   -0.3300   -1.1000 c2        1 B4D      0.271000
      9 C09         1.9180   -0.0020   -2.2710 c2        1 B4D     -0.254000
     10 C10         2.9130    1.0170   -2.2660 c1        1 B4D      0.136000
     11 CL11        3.7730    1.3600   -3.6790 cl        1 B4D      0.008000
     12 C12         3.2320    1.7020   -1.0470 c2        1 B4D     -0.885000
     13 S13         4.4940    3.0240   -1.0390 s4        1 B4D      2.087800
     14 N14         5.9820    2.3820   -0.8700 n2        1 B4D     -0.953000
     15 O15         4.4080    3.8370   -2.2190 o         1 B4D     -0.539900
     16 O16         4.2260    3.9890   -0.0150 o         1 B4D     -0.539900
     17 C17         2.5610    1.3650    0.1470 c1        1 B4D      0.137000
     18 C18         1.5880    0.3690    0.1430 c1        1 B4D     -0.928000
     19 S19         0.8320   -0.1670    1.5930 s4        1 B4D      2.092800
     20 O20         1.8860   -0.3500    2.6410 o         1 B4D     -0.538400
     21 O21        -0.1120    0.8460    2.0310 o         1 B4D     -0.538400
     22 N22         0.0660   -1.4630    1.3850 n2        1 B4D     -0.885000
     23 H01        -6.7510   -0.9870    2.4550 DU        1 B4D      0.112000
     24 H01A       -7.5830   -2.2920    1.7500 ha        1 B4D      0.122000
     25 H02        -5.8880   -2.5090    0.1120 ha        1 B4D      0.122000
     26 H03        -4.8980    0.0170    0.5050 h4        1 B4D      0.134000
     27 H03A       -4.3110   -0.7650    1.7310 h4        1 B4D      0.134000
     28 H05        -1.6500    0.0320   -0.5830 h1        1 B4D      0.132000
     29 H05A       -1.8800   -0.1880    0.9720 h1        1 B4D      0.132000
     30 H06        -1.0120   -2.6190    0.1590 h2        1 B4D      0.125000
     31 HN07        0.5460   -2.3320   -1.3080 hn        1 B4D      0.249000
     32 H09         1.7650   -0.5550   -3.1070 ha        1 B4D      0.157000
     33 HN14        6.5170    2.3070   -1.5770 hn        1 B4D      0.246000
     34 HN1A        6.2450    2.0950   -0.0930 hn        1 B4D      0.246000
     35 H17         2.7930    1.8630    1.0340 ha        1 B4D      0.185000
     36 HN22       -0.0560   -2.0420    2.0750 hn        1 B4D      0.266000
@<TRIPOS>BOND
     1    1    2 1   
     2    1   24 1   
     3    2   25 1   
     4    3    4 1   
     5    3   26 1   
     6    3   27 1   
     7    4    5 1   
     8    5    6 1   
     9    5   28 1   
    10    5   29 1   
    11    6    7 1   
    12    6   22 1   
    13    6   30 1   
    14    7    8 1   
    15    7   31 1   
    16    8    9 1   
    17    8   18 1   
    18    9   10 1   
    19    9   32 1   
    20   10   12 1   
    21   12   13 1   
    22   12   17 1   
    23   13   15 1   
    24   13   16 1   
    25   14   33 1   
    26   14   34 1   
    27   17   35 1   
    28   18   19 1   
    29   19   20 1   
    30   19   21 1   
    31   22   36 1   
@<TRIPOS>SUBSTRUCTURE
     1 B4D         1 TEMP              0 ****  ****    0 ROOT
