@<TRIPOS>MOLECULE
B4D
   37    38     1     0     0
SMALL
bcc


@<TRIPOS>ATOM
      1 C01        -0.0220   -0.5780   -0.2000 c2        1 B4D     -0.159000
      2 C02         1.2690   -0.4060    0.0830 c2        1 B4D     -0.195200
      3 C03         1.7920   -0.2520    1.4520 c3        1 B4D      0.053900
      4 S04         2.6340   -1.7810    1.8270 ss        1 B4D     -0.325200
      5 C05         3.4390   -1.4190    3.3590 c3        1 B4D     -0.070300
      6 C06         4.7190   -2.2880    3.4320 c3        1 B4D      0.526700
      7 N07         5.5690   -2.0610    2.2400 nh        1 B4D     -0.720600
      8 C08         6.7370   -1.3910    2.2510 ca        1 B4D      0.382600
      9 C09         7.5150   -1.2700    1.0430 ca        1 B4D     -0.225000
     10 C10         8.7290   -0.6390    1.0580 ca        1 B4D      0.197400
     11 CL11        9.6400   -0.6050   -0.3750 cl        1 B4D     -0.045400
     12 C12         9.2780   -0.0380    2.2350 ca        1 B4D     -0.650500
     13 S13        10.5890    0.8530    2.3090 sy        1 B4D      1.505200
     14 N14        11.8830   -0.5380    1.9910 n4        1 B4D     -0.783500
     15 O15        10.8770    1.6780    1.2470 o         1 B4D     -0.570300
     16 O16        10.9490    1.2250    3.5910 o         1 B4D     -0.570300
     17 C17         8.5020   -0.1970    3.4120 ca        1 B4D      0.175000
     18 C18         7.2770   -0.8210    3.4540 ca        1 B4D     -0.453500
     19 S19         6.4090   -0.8370    4.9370 sy        1 B4D      1.530200
     20 O20         7.3160   -1.1070    5.9660 o         1 B4D     -0.624800
     21 O21         5.6820    0.3510    5.0010 o         1 B4D     -0.624800
     22 N22         5.4450   -2.1110    4.6680 n3        1 B4D     -0.917100
     23 H01        -0.8030   -0.6280    0.5730 ha        1 B4D      0.127000
     24 H01A       -0.3830   -0.6760   -1.2330 ha        1 B4D      0.127000
     25 H02         2.0260   -0.3560   -0.7180 ha        1 B4D      0.132000
     26 H03         2.5060    0.6050    1.5150 h1        1 B4D      0.076200
     27 H03A        0.9770   -0.0840    2.1980 h1        1 B4D      0.076200
     28 H05         2.7770   -1.7020    4.2160 h1        1 B4D      0.104200
     29 H05A        3.6700   -0.3290    3.4580 h1        1 B4D      0.104200
     30 H06         4.3940   -3.3800    3.3560 h2        1 B4D      0.108700
     31 HN07        5.1280   -2.3010    1.3690 hn        1 B4D      0.493800
     32 H09         7.1230   -1.7010    0.1040 ha        1 B4D      0.183000
     33 HN14       12.5110   -0.6210    2.7880 hn        1 B4D      0.453467
     34 HN1A       11.4460   -1.4410    1.8390 hn        1 B4D      0.453467
     35 H17         8.9090    0.2220    4.3630 ha        1 B4D      0.189000
     36 HN22        5.3660   -2.8780    5.2950 hn        1 B4D      0.482800
     37 H143       12.4440   -0.3170    1.1710 hn        1 B4D      0.453467
@<TRIPOS>BOND
     1    1    2 2   
     2    1   23 1   
     3    1   24 1   
     4    2    3 1   
     5    2   25 1   
     6    3    4 1   
     7    3   26 1   
     8    3   27 1   
     9    4    5 1   
    10    5    6 1   
    11    5   28 1   
    12    5   29 1   
    13    6    7 1   
    14    6   22 1   
    15    6   30 1   
    16    7    8 1   
    17    7   31 1   
    18    8    9 ar  
    19    8   18 ar  
    20    9   10 ar  
    21    9   32 1   
    22   10   11 1   
    23   10   12 ar  
    24   12   13 1   
    25   12   17 ar  
    26   13   14 1   
    27   13   15 2   
    28   13   16 2   
    29   14   33 1   
    30   14   34 1   
    31   14   37 1   
    32   17   18 ar  
    33   17   35 1   
    34   18   19 1   
    35   19   20 2   
    36   19   21 2   
    37   19   22 1   
    38   22   36 1   
@<TRIPOS>SUBSTRUCTURE
     1 B4D         1 TEMP              0 ****  ****    0 ROOT
