@<TRIPOS>MOLECULE
B4D
   36    37     1     0     0
SMALL
bcc


@<TRIPOS>ATOM
      1 C01        -6.1300    3.0760    1.1590 c2        1 B4D     -0.185000
      2 C02        -4.9620    2.6440    0.6870 c2        1 B4D     -0.173200
      3 C03        -4.3900    1.3220    1.0030 c3        1 B4D      0.035900
      4 S04        -4.4010    0.3910   -0.5160 ss        1 B4D     -0.313200
      5 C05        -3.5150   -1.0710   -0.0720 c3        1 B4D     -0.075300
      6 C06        -2.4280   -1.3740   -1.1410 c3        1 B4D      0.528700
      7 N07        -1.5680   -0.2090   -1.3890 nh        1 B4D     -0.773600
      8 C08        -0.3160   -0.0710   -0.8420 ca        1 B4D      0.343600
      9 C09         0.4160    1.1310   -1.0740 ca        1 B4D     -0.248000
     10 C10         1.7120    1.2510   -0.6090 ca        1 B4D      0.211400
     11 CL11        2.5420    2.6980   -0.9450 cl        1 B4D     -0.071400
     12 C12         2.3530    0.2240    0.1130 ca        1 B4D     -0.439500
     13 S13         3.9220    0.3240    0.7660 sy        1 B4D      1.532200
     14 N14         4.8450    0.5520   -0.5170 n3        1 B4D     -1.026700
     15 O15         4.0000    1.4420    1.6170 o         1 B4D     -0.652300
     16 O16         4.2120   -0.9330    1.3410 o         1 B4D     -0.652300
     17 C17         1.6160   -0.9390    0.3360 ca        1 B4D      0.135000
     18 C18         0.3010   -1.1170   -0.1000 ca        1 B4D     -0.485500
     19 S19        -0.4940   -2.5430    0.3140 sy        1 B4D      1.536200
     20 O20         0.3430   -3.6530    0.1240 o         1 B4D     -0.647300
     21 O21        -1.0520   -2.3960    1.5930 o         1 B4D     -0.647300
     22 N22        -1.6750   -2.5620   -0.8100 n3        1 B4D     -0.910100
     23 H01        -6.7690    2.4730    1.8190 ha        1 B4D      0.119000
     24 H01A       -6.5240    4.0710    0.9130 ha        1 B4D      0.119000
     25 H02        -4.3450    3.2760    0.0260 ha        1 B4D      0.131000
     26 H03        -3.3440    1.4260    1.3850 h1        1 B4D      0.074200
     27 H03A       -4.9860    0.7810    1.7790 h1        1 B4D      0.074200
     28 H05        -3.0660   -0.9840    0.9490 h1        1 B4D      0.099700
     29 H05A       -4.2290   -1.9310   -0.0540 h1        1 B4D      0.099700
     30 H06        -2.9740   -1.5510   -2.1260 h2        1 B4D      0.084700
     31 HN07       -2.0670    0.6160   -1.6560 hn        1 B4D      0.465800
     32 H09        -0.0510    1.9580   -1.6320 ha        1 B4D      0.159000
     33 HN14        5.1040    1.4440   -0.8560 hn        1 B4D      0.450800
     34 HN1A        5.2350   -0.1870   -1.0470 hn        1 B4D      0.450800
     35 H17         2.1020   -1.7730    0.8920 ha        1 B4D      0.186000
     36 HN22       -1.8340   -3.3290   -1.4160 hn        1 B4D      0.465800
@<TRIPOS>BOND
     1    1    2 2   
     2    1   23 1   
     3    1   24 1   
     4    2    3 1   
     5    2   25 1   
     6    3    4 1   
     7    3   26 1   
     8    3   27 1   
     9    4    5 1   
    10    5    6 1   
    11    5   28 1   
    12    5   29 1   
    13    6    7 1   
    14    6   22 1   
    15    6   30 1   
    16    7    8 1   
    17    7   31 1   
    18    8    9 ar  
    19    8   18 ar  
    20    9   10 ar  
    21    9   32 1   
    22   10   11 1   
    23   10   12 ar  
    24   12   13 1   
    25   12   17 ar  
    26   13   14 1   
    27   13   15 2   
    28   13   16 2   
    29   14   33 1   
    30   14   34 1   
    31   17   18 ar  
    32   17   35 1   
    33   18   19 1   
    34   19   20 2   
    35   19   21 2   
    36   19   22 1   
    37   22   36 1   
@<TRIPOS>SUBSTRUCTURE
     1 B4D         1 TEMP              0 ****  ****    0 ROOT
