@<TRIPOS>MOLECULE
B4F
   77    82     1     0     0
SMALL
bcc


@<TRIPOS>ATOM
      1 O1        -11.3100   -3.8810   -0.2360 o         1 B4F     -0.613500
      2 C1        -11.5680   -2.6670   -0.2940 c         1 B4F      0.748500
      3 N1        -12.6390   -2.0310    0.4090 n         1 B4F     -0.512900
      4 N2        -10.9170   -1.7390   -1.1600 n         1 B4F     -0.516900
      5 C2        -11.3760   -0.3910   -0.8520 c3        1 B4F      0.060700
      6 C3        -12.5210   -0.5860    0.2390 c3        1 B4F      0.055700
      7 C4        -12.1880    0.2140    1.4930 c3        1 B4F     -0.046300
      8 S1        -10.4910    0.6960    1.4380 ss        1 B4F     -0.286200
      9 C5        -10.3500    0.6220   -0.3410 c3        1 B4F     -0.009600
     10 C6         -8.9160    0.3520   -0.7320 c3        1 B4F     -0.072400
     11 C7         -8.0380    1.5560   -0.4480 c3        1 B4F     -0.082400
     12 C8         -6.5940    1.2700   -0.8060 c3        1 B4F     -0.075400
     13 C9         -5.7330    2.4900   -0.5610 c3        1 B4F     -0.156400
     14 C10        -4.3080    2.2720   -1.0400 c         1 B4F      0.651100
     15 O2         -3.8700    2.8830   -2.0350 o         1 B4F     -0.610100
     16 N3         -3.5420    1.3490   -0.3560 n         1 B4F     -0.558900
     17 C11        -2.1440    1.1520   -0.6160 c3        1 B4F      0.055000
     18 C12        -1.2220    1.8580    0.4150 c3        1 B4F      0.071000
     19 N4          0.1590    1.5190    0.2700 n         1 B4F     -0.578900
     20 C13         0.7710    0.5410    1.0430 c         1 B4F      0.679700
     21 O3          0.1300   -0.0470    1.9370 o         1 B4F     -0.610100
     22 C14         2.2090    0.2790    0.7630 ca        1 B4F     -0.145600
     23 C15         3.1110    0.2150    1.8220 ca        1 B4F     -0.065000
     24 C16         2.6590    0.0910   -0.5520 ca        1 B4F     -0.146000
     25 C17         4.0040   -0.1480   -0.7860 ca        1 B4F     -0.128000
     26 C18         4.9260   -0.2020    0.2800 ca        1 B4F     -0.063000
     27 C19         4.4780   -0.0180    1.5920 ca        1 B4F     -0.086600
     28 C20         5.3890   -0.0480    2.8240 c         1 B4F      0.910200
     29 O4          5.9850    1.0130    3.1320 o         1 B4F     -0.802800
     30 O5          5.4440   -1.1400    3.4540 o         1 B4F     -0.802800
     31 C21         6.3300   -0.4450   -0.0800 cc        1 B4F      0.158000
     32 C22         6.9760   -1.6880    0.2750 ca        1 B4F     -0.219300
     33 C23         6.4000   -2.6350    1.1460 ca        1 B4F      0.013000
     34 C24         7.0540   -3.8220    1.4350 ca        1 B4F     -0.242000
     35 C25         8.3160   -4.0830    0.8680 ca        1 B4F      0.165100
     36 O6          9.0010   -5.2510    1.1130 oh        1 B4F     -0.503100
     37 C26         8.9370   -3.1610    0.0210 ca        1 B4F     -0.273300
     38 C27         8.2560   -1.9640   -0.2520 ca        1 B4F      0.390000
     39 O7          8.9410   -1.0950   -1.0810 os        1 B4F     -0.394800
     40 C28         8.3530    0.1340   -1.3510 cd        1 B4F      0.341700
     41 C29         7.0290    0.4540   -0.8480 cd        1 B4F     -0.230100
     42 C30         9.0790    0.9730   -2.1400 cc        1 B4F     -0.328200
     43 C31         8.5500    2.2800   -2.5160 c         1 B4F      0.580500
     44 O8          9.1790    3.0620   -3.2540 o         1 B4F     -0.593100
     45 C32         7.2260    2.6180   -1.9760 cc        1 B4F     -0.264200
     46 C33         6.5260    1.7640   -1.2040 cd        1 B4F     -0.024200
     47 H1        -12.8140   -2.3720    1.3270 hn        1 B4F      0.310500
     48 H2         -9.9450   -1.8830   -1.3110 hn        1 B4F      0.318500
     49 H3        -11.8410    0.0160   -1.7960 h1        1 B4F      0.086700
     50 H4        -13.4980   -0.2230   -0.1890 h1        1 B4F      0.086700
     51 H5        -12.8400    1.1200    1.5400 h1        1 B4F      0.081700
     52 H6        -12.3520   -0.3640    2.4350 h1        1 B4F      0.081700
     53 H7        -10.6460    1.6270   -0.7450 h1        1 B4F      0.082700
     54 H8         -8.5180   -0.5350   -0.1700 hc        1 B4F      0.058200
     55 H9         -8.8680    0.1130   -1.8290 hc        1 B4F      0.058200
     56 H10        -8.4030    2.4370   -1.0380 hc        1 B4F      0.051200
     57 H11        -8.1140    1.8260    0.6390 hc        1 B4F      0.051200
     58 H12        -6.2200    0.4050   -0.1960 hc        1 B4F      0.052200
     59 H13        -6.5240    0.9720   -1.8850 hc        1 B4F      0.052200
     60 H14        -6.1450    3.3690   -1.1250 hc        1 B4F      0.068200
     61 H15        -5.7340    2.7540    0.5290 hc        1 B4F      0.068200
     62 H16        -3.8900    0.9880    0.5010 hn        1 B4F      0.307500
     63 H17        -1.9440    0.0430   -0.5900 h1        1 B4F      0.067700
     64 H18        -1.9090    1.5350   -1.6490 h1        1 B4F      0.067700
     65 H19        -1.3330    2.9730    0.2920 h1        1 B4F      0.058700
     66 H20        -1.5500    1.5790    1.4580 h1        1 B4F      0.058700
     67 H21         0.6640    1.9310   -0.4760 hn        1 B4F      0.315500
     68 H22         2.7600    0.3410    2.8590 ha        1 B4F      0.162000
     69 H23         1.9540    0.1160   -1.3940 ha        1 B4F      0.119000
     70 H24         4.3620   -0.2960   -1.8160 ha        1 B4F      0.129000
     71 H26         5.4410   -2.3970    1.6490 ha        1 B4F      0.204000
     72 H27         6.6010   -4.5430    2.1300 ha        1 B4F      0.142000
     73 H28         8.5080   -5.7450    1.7840 ho        1 B4F      0.420000
     74 H29         9.9280   -3.3550   -0.4060 ha        1 B4F      0.161000
     75 H30        10.0750    0.6970   -2.5110 ha        1 B4F      0.154000
     76 H31         6.8400    3.6160   -2.2280 ha        1 B4F      0.140000
     77 H32         5.5390    2.0390   -0.7930 ha        1 B4F      0.148000
@<TRIPOS>BOND
     1    1    2 2   
     2    2    3 1   
     3    2    4 1   
     4    3    6 1   
     5    3   47 1   
     6    4    5 1   
     7    4   48 1   
     8    5    6 1   
     9    5    9 1   
    10    5   49 1   
    11    6    7 1   
    12    6   50 1   
    13    7    8 1   
    14    7   51 1   
    15    7   52 1   
    16    8    9 1   
    17    9   10 1   
    18    9   53 1   
    19   10   11 1   
    20   10   54 1   
    21   10   55 1   
    22   11   12 1   
    23   11   56 1   
    24   11   57 1   
    25   12   13 1   
    26   12   58 1   
    27   12   59 1   
    28   13   14 1   
    29   13   60 1   
    30   13   61 1   
    31   14   15 2   
    32   14   16 1   
    33   16   17 1   
    34   16   62 1   
    35   17   18 1   
    36   17   63 1   
    37   17   64 1   
    38   18   19 1   
    39   18   65 1   
    40   18   66 1   
    41   19   20 1   
    42   19   67 1   
    43   20   21 2   
    44   20   22 1   
    45   22   23 ar  
    46   22   24 ar  
    47   23   27 ar  
    48   23   68 1   
    49   24   25 ar  
    50   24   69 1   
    51   25   26 ar  
    52   25   70 1   
    53   26   27 ar  
    54   26   31 1   
    55   27   28 1   
    56   28   29 1   
    57   28   30 1   
    58   31   32 1   
    59   31   41 2   
    60   32   33 ar  
    61   32   38 ar  
    62   33   34 ar  
    63   33   71 1   
    64   34   35 ar  
    65   34   72 1   
    66   35   36 1   
    67   35   37 ar  
    68   36   73 1   
    69   37   38 ar  
    70   37   74 1   
    71   38   39 1   
    72   39   40 1   
    73   40   41 1   
    74   40   42 2   
    75   41   46 1   
    76   42   43 1   
    77   42   75 1   
    78   43   44 2   
    79   43   45 1   
    80   45   46 2   
    81   45   76 1   
    82   46   77 1   
@<TRIPOS>SUBSTRUCTURE
     1 B4F         1 TEMP              0 ****  ****    0 ROOT
