@<TRIPOS>MOLECULE
B4F
   79    84     1     0     0
SMALL
bcc


@<TRIPOS>ATOM
      1 O1          2.9760    0.7400   -4.3080 o         1 B4F     -0.611500
      2 C1          3.6480   -0.1310   -3.7310 c         1 B4F      0.758500
      3 N1          3.5360   -0.4750   -2.3530 n         1 B4F     -0.519900
      4 N2          4.7140   -0.8610   -4.3300 n         1 B4F     -0.530900
      5 C2          5.1300   -1.9360   -3.4430 c3        1 B4F      0.068700
      6 C3          4.3250   -1.6730   -2.0910 c3        1 B4F      0.065700
      7 C4          3.5420   -2.9190   -1.6950 c3        1 B4F     -0.028300
      8 S1          3.4400   -4.0040   -3.0880 ss        1 B4F     -0.346200
      9 C5          4.9010   -3.3770   -3.9090 c3        1 B4F     -0.000600
     10 C6          4.7640   -3.5650   -5.4010 c3        1 B4F     -0.071400
     11 C7          4.6970   -5.0370   -5.7600 c3        1 B4F     -0.086400
     12 C8          4.4580   -5.2260   -7.2420 c3        1 B4F     -0.082400
     13 C9          4.1240   -6.6620   -7.5940 c3        1 B4F     -0.150400
     14 C10         2.6500   -6.9390   -7.3790 c         1 B4F      0.688100
     15 O2          1.8070   -6.6870   -8.2790 o         1 B4F     -0.706100
     16 N3          2.2370   -7.5200   -6.1980 n         1 B4F     -0.566900
     17 C11         0.8690   -7.6220   -5.7870 c3        1 B4F      0.078000
     18 C12         0.0040   -8.6030   -6.6130 c3        1 B4F      0.090800
     19 N4         -0.7070   -7.9400   -7.7440 n4        1 B4F     -0.689800
     20 C13        -1.2880   -8.9520   -8.7170 c         1 B4F      0.577700
     21 O3         -2.3100   -9.5090   -8.3410 o         1 B4F     -0.421100
     22 C14        -0.5890   -9.0870   -9.9950 ca        1 B4F     -0.206600
     23 C15         0.7870   -8.8700  -10.1180 ca        1 B4F     -0.065000
     24 C16        -1.3400   -9.4480  -11.1280 ca        1 B4F     -0.027000
     25 C17        -0.7160   -9.5380  -12.3660 ca        1 B4F     -0.126000
     26 C18         0.6590   -9.2770  -12.5090 ca        1 B4F      0.094000
     27 C19         1.4110   -8.9520  -11.3660 ca        1 B4F     -0.155600
     28 C20         2.8760   -8.7120  -11.3950 c         1 B4F      0.633700
     29 O4          3.7430   -9.4270  -11.8850 o         1 B4F     -0.428000
     30 O5          3.3610   -7.6120  -10.7440 oh        1 B4F     -0.583100
     31 C21         1.2560   -9.3440  -13.8500 cc        1 B4F      0.015000
     32 C22         1.6000  -10.6360  -14.3950 ca        1 B4F     -0.222300
     33 C23         1.4170  -11.8480  -13.6990 ca        1 B4F     -0.047000
     34 C24         1.7710  -13.0580  -14.2610 ca        1 B4F     -0.173000
     35 C25         2.3330  -13.0830  -15.5600 ca        1 B4F      0.193100
     36 O6          2.6580  -14.3170  -16.0490 oh        1 B4F     -0.477100
     37 C26         2.5340  -11.9050  -16.2840 ca        1 B4F     -0.307300
     38 C27         2.1640  -10.6900  -15.6860 ca        1 B4F      0.413000
     39 O7          2.3930   -9.5720  -16.4630 os        1 B4F     -0.376800
     40 C28         2.0490   -8.3320  -15.9350 cd        1 B4F      0.304700
     41 C29         1.4630   -8.2240  -14.6020 cd        1 B4F     -0.141100
     42 C30         2.2930   -7.2610  -16.7300 cc        1 B4F     -0.268200
     43 C31         1.9680   -5.9060  -16.2800 c         1 B4F      0.559500
     44 O8          2.1840   -4.9030  -16.9710 o         1 B4F     -0.503100
     45 C32         1.3570   -5.8010  -14.9370 cc        1 B4F     -0.185200
     46 C33         1.1290   -6.8790  -14.1690 cd        1 B4F     -0.100200
     47 H1          2.6360   -0.3990   -1.9400 hn        1 B4F      0.320500
     48 H2          4.6680   -1.0240   -5.3070 hn        1 B4F      0.319500
     49 H3          6.2310   -1.7960   -3.2440 h1        1 B4F      0.094700
     50 H4          5.0590   -1.4180   -1.2740 h1        1 B4F      0.097700
     51 H5          4.0630   -3.4370   -0.8540 h1        1 B4F      0.087700
     52 H6          2.5020   -2.6900   -1.3570 h1        1 B4F      0.087700
     53 H7          5.7730   -3.9890   -3.5490 h1        1 B4F      0.086700
     54 H8          5.6430   -3.0950   -5.9190 hc        1 B4F      0.062200
     55 H9          3.8340   -3.0560   -5.7750 hc        1 B4F      0.062200
     56 H10         3.8700   -5.5170   -5.1690 hc        1 B4F      0.046700
     57 H11         5.6530   -5.5440   -5.4630 hc        1 B4F      0.046700
     58 H12         5.3860   -4.9320   -7.8050 hc        1 B4F      0.069700
     59 H13         3.6340   -4.5500   -7.5930 hc        1 B4F      0.069700
     60 H14         4.3320   -6.8420   -8.6880 hc        1 B4F      0.094200
     61 H15         4.7650   -7.3680   -7.0030 hc        1 B4F      0.094200
     62 H16         2.9240   -7.6820   -5.4920 hn        1 B4F      0.344500
     63 H17         0.3880   -6.6000   -5.7890 h1        1 B4F      0.087200
     64 H18         0.8530   -8.0070   -4.7240 h1        1 B4F      0.087200
     65 H19        -0.7790   -9.0570   -5.9390 hx        1 B4F      0.114200
     66 H20         0.6360   -9.4350   -7.0360 hx        1 B4F      0.114200
     67 H21        -0.0480   -7.3090   -8.2410 hn        1 B4F      0.475800
     68 H22         1.4160   -8.6430   -9.2390 ha        1 B4F      0.156000
     69 H23        -2.4210   -9.6550  -11.0310 ha        1 B4F      0.175000
     70 H24        -1.3070   -9.8160  -13.2580 ha        1 B4F      0.184000
     71 H26         0.9860  -11.8240  -12.6860 ha        1 B4F      0.132000
     72 H27         1.6310  -14.0070  -13.7230 ha        1 B4F      0.166000
     73 H28         3.0460  -14.2100  -16.9330 ho        1 B4F      0.438000
     74 H29         2.9730  -11.9090  -17.2920 ha        1 B4F      0.171000
     75 H30         2.7410   -7.3700  -17.7300 ha        1 B4F      0.181000
     76 H31         1.0990   -4.7820  -14.6060 ha        1 B4F      0.160000
     77 H32         0.6690   -6.7800  -13.1730 ha        1 B4F      0.120000
     78 H321        2.6390   -7.0430  -10.4340 ho        1 B4F      0.441000
     79 H42        -1.4720   -7.3710   -7.3650 hn        1 B4F      0.475800
@<TRIPOS>BOND
     1    1    2 2   
     2    2    3 1   
     3    2    4 1   
     4    3    6 1   
     5    3   47 1   
     6    4    5 1   
     7    4   48 1   
     8    5    6 1   
     9    5    9 1   
    10    5   49 1   
    11    6    7 1   
    12    6   50 1   
    13    7    8 1   
    14    7   51 1   
    15    7   52 1   
    16    8    9 1   
    17    9   10 1   
    18    9   53 1   
    19   10   11 1   
    20   10   54 1   
    21   10   55 1   
    22   11   12 1   
    23   11   56 1   
    24   11   57 1   
    25   12   13 1   
    26   12   58 1   
    27   12   59 1   
    28   13   14 1   
    29   13   60 1   
    30   13   61 1   
    31   14   15 2   
    32   14   16 1   
    33   16   17 1   
    34   16   62 1   
    35   17   18 1   
    36   17   63 1   
    37   17   64 1   
    38   18   19 1   
    39   18   65 1   
    40   18   66 1   
    41   19   20 1   
    42   19   67 1   
    43   19   79 1   
    44   20   21 2   
    45   20   22 1   
    46   22   23 ar  
    47   22   24 ar  
    48   23   27 ar  
    49   23   68 1   
    50   24   25 ar  
    51   24   69 1   
    52   25   26 ar  
    53   25   70 1   
    54   26   27 ar  
    55   26   31 1   
    56   27   28 1   
    57   28   29 2   
    58   28   30 1   
    59   30   78 1   
    60   31   32 1   
    61   31   41 2   
    62   32   33 ar  
    63   32   38 ar  
    64   33   34 ar  
    65   33   71 1   
    66   34   35 ar  
    67   34   72 1   
    68   35   36 1   
    69   35   37 ar  
    70   36   73 1   
    71   37   38 ar  
    72   37   74 1   
    73   38   39 1   
    74   39   40 1   
    75   40   41 1   
    76   40   42 2   
    77   41   46 1   
    78   42   43 1   
    79   42   75 1   
    80   43   44 2   
    81   43   45 1   
    82   45   46 2   
    83   45   76 1   
    84   46   77 1   
@<TRIPOS>SUBSTRUCTURE
     1 B4F         1 TEMP              0 ****  ****    0 ROOT
