@<TRIPOS>MOLECULE
B4F
   77    72     1     0     0
SMALL
bcc


@<TRIPOS>ATOM
      1 O1         -2.0310    8.9570    8.8090 o         1 B4F     -0.339000
      2 C1         -0.8940    8.7670    8.4680 c1        1 B4F      0.339000
      3 N1          0.3910    9.1980    9.2700 n2        1 B4F     -0.322000
      4 N2         -0.4180    7.7160    7.4070 n3        1 B4F     -0.326000
      5 C2          0.9140    7.7270    7.4480 c3        1 B4F     -0.015000
      6 C3          1.3430    8.3410    8.9270 c3        1 B4F     -0.022000
      7 C4          1.3430    7.2120    9.8730 c3        1 B4F     -0.307000
      8 S1          1.6370    5.8630    8.9550 ss        1 B4F      0.076000
      9 C5          1.4930    6.3840    7.3480 c3        1 B4F     -0.231000
     10 C6          0.5390    5.4350    6.5520 c3        1 B4F     -0.151000
     11 C7          1.2830    4.1380    6.1960 c3        1 B4F     -0.161000
     12 C8          0.4870    3.3630    5.0770 c3        1 B4F     -0.153000
     13 C9          1.4060    2.3430    4.4150 c3        1 B4F     -0.181000
     14 C10         0.6650    1.6480    3.2580 c2        1 B4F      0.298000
     15 O2         -0.5230    1.7840    3.1360 o         1 B4F     -0.365000
     16 N3          1.4120    0.8880    2.2800 n         1 B4F     -0.377000
     17 C11         0.7800    0.4630    1.0590 c3        1 B4F     -0.055000
     18 C12         1.7190   -0.5300    0.3070 c3        1 B4F     -0.041000
     19 N4          1.0120   -1.1140   -0.7920 n         1 B4F     -0.387000
     20 C13         1.6110   -2.1570   -1.5550 c2        1 B4F      0.357000
     21 O3          2.6970   -2.5870   -1.2440 o         1 B4F     -0.383000
     22 C14         0.8440   -2.7880   -2.7190 c2        1 B4F     -0.125000
     23 C15         1.1600   -2.4410   -4.0310 c2        1 B4F     -0.095000
     24 C16        -0.1250   -3.7730   -2.4680 c1        1 B4F     -0.113000
     25 C17        -0.7680   -4.4000   -3.5280 c1        1 B4F     -0.133000
     26 C18        -0.4490   -4.0500   -4.8480 c1        1 B4F     -0.058000
     27 C19         0.5120   -3.0730   -5.0970 c1        1 B4F     -0.069000
     28 C20         0.8120   -2.6370   -6.5420 c2        1 B4F      0.357000
     29 O4          0.4810   -1.4810   -6.9320 o         1 B4F     -0.539500
     30 O5          1.5170   -3.3800   -7.2940 o         1 B4F     -0.539500
     31 C21        -1.1590   -4.7120   -5.9930 c2        1 B4F      0.155000
     32 C22        -0.6570   -6.0590   -6.5290 c1        1 B4F     -0.153000
     33 C23         0.5470   -6.5930   -6.0630 c1        1 B4F     -0.127500
     34 C24         0.9870   -7.8340   -6.5310 c1        1 B4F     -0.127500
     35 C25         0.2190   -8.5440   -7.4690 c1        1 B4F      0.120000
     36 O6          0.6210   -9.7970   -8.0050 oh        1 B4F     -0.257000
     37 C26        -0.9880   -8.0110   -7.9370 c1        1 B4F     -0.208000
     38 C27        -1.4290   -6.7760   -7.4740 c1        1 B4F      0.130000
     39 O7         -2.6680   -6.1460   -8.0760 os        1 B4F     -0.136000
     40 C28        -3.2050   -4.8840   -7.5180 c1        1 B4F      0.146000
     41 C29        -2.4480   -4.1570   -6.4880 c1        1 B4F     -0.151000
     42 C30        -4.5560   -4.3330   -8.0130 c1        1 B4F     -0.308000
     43 C31        -5.0550   -2.9910   -7.5140 c1        1 B4F      0.303000
     44 O8         -6.0670   -2.4980   -7.9900 o         1 B4F     -0.353000
     45 C32        -4.3100   -2.2730   -6.4310 c1        1 B4F     -0.127500
     46 C33        -2.9930   -2.8330   -5.9170 c1        1 B4F     -0.127500
     47 H1          0.4140    9.7880   10.0050 hn        1 B4F      0.223000
     48 H2         -0.9260    7.3490    6.7580 hn        1 B4F      0.234000
     49 H3          1.2630    8.2920    6.7400 h1        1 B4F      0.126000
     50 H4          2.2100    8.7720    8.8920 h1        1 B4F      0.126000
     51 H5          0.4530    7.1370   10.3200 h1        1 B4F      0.120500
     52 H6          2.0720    7.3320   10.5610 h1        1 B4F      0.120500
     53 H7          2.3440    6.4220    6.9350 h1        1 B4F      0.121000
     54 H8         -0.2660    5.2170    7.1180 hc        1 B4F      0.098500
     55 H9          0.2550    5.8700    5.7480 hc        1 B4F      0.098500
     56 H10         2.2000    4.3600    5.8590 hc        1 B4F      0.086000
     57 H11         1.3570    3.5740    6.9940 hc        1 B4F      0.086000
     58 H12        -0.2700    2.9050    5.4770 hc        1 B4F      0.102500
     59 H13         0.1650    4.0020    4.4030 hc        1 B4F      0.102500
     60 H14         2.1740    2.7850    4.0770 hc        1 B4F      0.100000
     61 H15         1.6770    1.6790    5.0690 hc        1 B4F      0.100000
     62 H16         2.2580    0.6210    2.4660 hn        1 B4F      0.216000
     63 H17        -0.0970    0.0020    1.2740 h1        1 B4F      0.107500
     64 H18         0.6050    1.2550    0.4820 h1        1 B4F      0.107500
     65 H19         2.5190   -0.0400   -0.0340 h1        1 B4F      0.094500
     66 H20         2.0050   -1.2290    0.9150 h1        1 B4F      0.094500
     67 H21         0.2030   -0.7790   -1.0390 hn        1 B4F      0.234000
     68 H22         1.8420   -1.7480   -4.2080 ha        1 B4F      0.145000
     69 H23        -0.3100   -4.0510   -1.5540 ha        1 B4F      0.142000
     70 H24        -1.4530   -5.0960   -3.3490 ha        1 B4F      0.131000
     71 H26         1.0840   -6.0960   -5.4050 ha        1 B4F      0.158000
     72 H27         1.8740   -8.1650   -6.2750 ha        1 B4F      0.158000
     73 H28         0.3990  -10.4460   -7.4390 ho        1 B4F      0.219000
     74 H29        -1.5130   -8.5000   -8.5790 ha        1 B4F      0.161000
     75 H30        -5.0400   -4.8000   -8.7210 ha        1 B4F      0.154000
     76 H31        -4.6530   -1.3910   -6.0850 ha        1 B4F      0.158000
     77 H32        -2.5350   -2.3970   -5.1900 ha        1 B4F      0.158000
@<TRIPOS>BOND
     1    1    2 1   
     2    2    4 1   
     3    3    6 1   
     4    3   47 1   
     5    4    5 1   
     6    4   48 1   
     7    5    6 1   
     8    5    9 1   
     9    5   49 1   
    10    6    7 1   
    11    6   50 1   
    12    7    8 1   
    13    7   51 1   
    14    7   52 1   
    15    8    9 1   
    16    9   10 1   
    17    9   53 1   
    18   10   11 1   
    19   10   54 1   
    20   10   55 1   
    21   11   12 1   
    22   11   56 1   
    23   11   57 1   
    24   12   13 1   
    25   12   58 1   
    26   12   59 1   
    27   13   14 1   
    28   13   60 1   
    29   13   61 1   
    30   14   15 1   
    31   14   16 1   
    32   16   17 1   
    33   16   62 1   
    34   17   18 1   
    35   17   63 1   
    36   17   64 1   
    37   18   19 1   
    38   18   65 1   
    39   18   66 1   
    40   19   20 1   
    41   19   67 1   
    42   20   21 1   
    43   20   22 1   
    44   22   23 1   
    45   22   24 1   
    46   23   27 1   
    47   23   68 1   
    48   24   69 1   
    49   25   26 1   
    50   25   70 1   
    51   26   31 1   
    52   27   28 1   
    53   28   29 1   
    54   28   30 1   
    55   31   32 1   
    56   31   41 1   
    57   32   38 1   
    58   33   34 1   
    59   33   71 1   
    60   34   72 1   
    61   35   36 1   
    62   35   37 1   
    63   36   73 1   
    64   37   74 1   
    65   38   39 1   
    66   39   40 1   
    67   40   42 1   
    68   42   75 1   
    69   43   44 1   
    70   45   46 1   
    71   45   76 1   
    72   46   77 1   
@<TRIPOS>SUBSTRUCTURE
     1 B4F         1 TEMP              0 ****  ****    0 ROOT
