@<TRIPOS>MOLECULE
B4F
   79    84     1     0     0
SMALL
bcc


@<TRIPOS>ATOM
      1 O1          3.0430    0.6110   -4.0080 o         1 B4F     -0.611500
      2 C1          3.6420   -0.3150   -3.4370 c         1 B4F      0.756500
      3 N1          3.4620   -0.6900   -2.0740 n         1 B4F     -0.518900
      4 N2          4.6860   -1.0890   -4.0240 n         1 B4F     -0.526900
      5 C2          5.0110   -2.2070   -3.1520 c3        1 B4F      0.065700
      6 C3          4.1720   -1.9390   -1.8230 c3        1 B4F      0.064700
      7 C4          3.3060   -3.1500   -1.4960 c3        1 B4F     -0.033300
      8 S1          3.2020   -4.1880   -2.9230 ss        1 B4F     -0.331200
      9 C5          4.7280   -3.6220   -3.6650 c3        1 B4F     -0.003600
     10 C6          4.6500   -3.7650   -5.1660 c3        1 B4F     -0.070400
     11 C7          4.5440   -5.2230   -5.5710 c3        1 B4F     -0.085400
     12 C8          4.4170   -5.3620   -7.0730 c3        1 B4F     -0.079400
     13 C9          4.0560   -6.7760   -7.4800 c3        1 B4F     -0.146400
     14 C10         2.5910   -7.0490   -7.2160 c         1 B4F      0.693100
     15 O2          1.6870   -6.2950   -7.6540 o         1 B4F     -0.685100
     16 N3          2.2330   -8.1910   -6.5210 n         1 B4F     -0.579900
     17 C11         0.9090   -8.4340   -6.0390 c3        1 B4F      0.082000
     18 C12        -0.1170   -8.8510   -7.1200 c3        1 B4F      0.087800
     19 N4         -0.7880   -7.6870   -7.7680 n4        1 B4F     -0.685800
     20 C13        -1.5120   -8.0890   -9.0310 c         1 B4F      0.571700
     21 O3         -2.7270   -8.1990   -8.9080 o         1 B4F     -0.431100
     22 C14        -0.7190   -8.3080  -10.2420 ca        1 B4F     -0.203600
     23 C15         0.6260   -7.9490  -10.3630 ca        1 B4F     -0.040000
     24 C16        -1.3780   -8.9020  -11.3360 ca        1 B4F     -0.026000
     25 C17        -0.6840   -9.1460  -12.5140 ca        1 B4F     -0.126000
     26 C18         0.6740   -8.8020  -12.6390 ca        1 B4F      0.069000
     27 C19         1.3240   -8.1910  -11.5540 ca        1 B4F     -0.167600
     28 C20         2.7600   -7.8090  -11.5340 c         1 B4F      0.652700
     29 O4          3.4900   -7.9510  -10.5480 o         1 B4F     -0.507000
     30 O5          3.3590   -7.2070  -12.5880 oh        1 B4F     -0.537100
     31 C21         1.3540   -9.1170  -13.9040 cc        1 B4F     -0.005000
     32 C22         2.0550  -10.3730  -14.0240 ca        1 B4F     -0.234300
     33 C23         2.1530  -11.3130  -12.9780 ca        1 B4F     -0.050000
     34 C24         2.8330  -12.5020  -13.1430 ca        1 B4F     -0.173000
     35 C25         3.4450  -12.7850  -14.3890 ca        1 B4F      0.197100
     36 O6          4.1000  -13.9810  -14.4750 oh        1 B4F     -0.474100
     37 C26         3.3710  -11.8840  -15.4530 ca        1 B4F     -0.307300
     38 C27         2.6710  -10.6820  -15.2550 ca        1 B4F      0.414000
     39 O7          2.6410   -9.8460  -16.3520 os        1 B4F     -0.375800
     40 C28         1.9570   -8.6390  -16.2310 cd        1 B4F      0.292700
     41 C29         1.3040   -8.2750  -14.9780 cd        1 B4F     -0.150100
     42 C30         1.9440   -7.8520  -17.3340 cc        1 B4F     -0.258200
     43 C31         1.2540   -6.5590  -17.3210 c         1 B4F      0.553500
     44 O8          1.2200   -5.8130  -18.3070 o         1 B4F     -0.490100
     45 C32         0.5920   -6.1910  -16.0490 cc        1 B4F     -0.171200
     46 C33         0.6220   -6.9920  -14.9710 cd        1 B4F     -0.120200
     47 H1          2.5500   -0.5810   -1.6950 hn        1 B4F      0.319500
     48 H2          4.6440   -1.2360   -5.0050 hn        1 B4F      0.318500
     49 H3          6.1100   -2.1280   -2.9100 h1        1 B4F      0.092700
     50 H4          4.8870   -1.7510   -0.9720 h1        1 B4F      0.096700
     51 H5          2.2670   -2.8730   -1.1930 h1        1 B4F      0.086200
     52 H6          3.7630   -3.7180   -0.6490 h1        1 B4F      0.086200
     53 H7          5.5500   -4.2870   -3.2840 h1        1 B4F      0.084700
     54 H8          3.7570   -3.2130   -5.5650 hc        1 B4F      0.061200
     55 H9          5.5680   -3.3160   -5.6320 hc        1 B4F      0.061200
     56 H10         3.6470   -5.6790   -5.0690 hc        1 B4F      0.047700
     57 H11         5.4470   -5.7840   -5.2130 hc        1 B4F      0.047700
     58 H12         5.3920   -5.0900   -7.5590 hc        1 B4F      0.070200
     59 H13         3.6380   -4.6520   -7.4620 hc        1 B4F      0.070200
     60 H14         4.7200   -7.5080   -6.9510 hc        1 B4F      0.094200
     61 H15         4.2110   -6.9080   -8.5890 hc        1 B4F      0.094200
     62 H16         2.9520   -8.7960   -6.1940 hn        1 B4F      0.339500
     63 H17         0.9490   -9.2890   -5.3010 h1        1 B4F      0.087700
     64 H18         0.5250   -7.5210   -5.4940 h1        1 B4F      0.087700
     65 H19        -0.9170   -9.4810   -6.6360 hx        1 B4F      0.110200
     66 H20         0.3840   -9.4590   -7.9280 hx        1 B4F      0.110200
     67 H21        -0.0830   -6.9540   -7.9820 hn        1 B4F      0.479800
     68 H22         1.1900   -7.4640   -9.5420 ha        1 B4F      0.175000
     69 H23        -2.4470   -9.1720  -11.2530 ha        1 B4F      0.179000
     70 H24        -1.2020   -9.6190  -13.3670 ha        1 B4F      0.183000
     71 H26         1.6770  -11.0890  -12.0110 ha        1 B4F      0.132000
     72 H27         2.9140  -13.2390  -12.3310 ha        1 B4F      0.166000
     73 H28         4.4800  -14.0670  -15.3650 ho        1 B4F      0.440000
     74 H29         3.8400  -12.0910  -16.4250 ha        1 B4F      0.174000
     75 H30         2.4440   -8.1510  -18.2680 ha        1 B4F      0.184000
     76 H31         0.0700   -5.2200  -16.0420 ha        1 B4F      0.167000
     77 H32         0.1150   -6.7050  -14.0350 ha        1 B4F      0.131000
     78 H321        2.7470   -7.1370  -13.3400 ho        1 B4F      0.447000
     79 H42        -1.4690   -7.2860   -7.1100 hn        1 B4F      0.479800
@<TRIPOS>BOND
     1    1    2 2   
     2    2    3 1   
     3    2    4 1   
     4    3    6 1   
     5    3   47 1   
     6    4    5 1   
     7    4   48 1   
     8    5    6 1   
     9    5    9 1   
    10    5   49 1   
    11    6    7 1   
    12    6   50 1   
    13    7    8 1   
    14    7   51 1   
    15    7   52 1   
    16    8    9 1   
    17    9   10 1   
    18    9   53 1   
    19   10   11 1   
    20   10   54 1   
    21   10   55 1   
    22   11   12 1   
    23   11   56 1   
    24   11   57 1   
    25   12   13 1   
    26   12   58 1   
    27   12   59 1   
    28   13   14 1   
    29   13   60 1   
    30   13   61 1   
    31   14   15 2   
    32   14   16 1   
    33   16   17 1   
    34   16   62 1   
    35   17   18 1   
    36   17   63 1   
    37   17   64 1   
    38   18   19 1   
    39   18   65 1   
    40   18   66 1   
    41   19   20 1   
    42   19   67 1   
    43   19   79 1   
    44   20   21 2   
    45   20   22 1   
    46   22   23 ar  
    47   22   24 ar  
    48   23   27 ar  
    49   23   68 1   
    50   24   25 ar  
    51   24   69 1   
    52   25   26 ar  
    53   25   70 1   
    54   26   27 ar  
    55   26   31 1   
    56   27   28 1   
    57   28   29 2   
    58   28   30 1   
    59   30   78 1   
    60   31   32 1   
    61   31   41 2   
    62   32   33 ar  
    63   32   38 ar  
    64   33   34 ar  
    65   33   71 1   
    66   34   35 ar  
    67   34   72 1   
    68   35   36 1   
    69   35   37 ar  
    70   36   73 1   
    71   37   38 ar  
    72   37   74 1   
    73   38   39 1   
    74   39   40 1   
    75   40   41 1   
    76   40   42 2   
    77   41   46 1   
    78   42   43 1   
    79   42   75 1   
    80   43   44 2   
    81   43   45 1   
    82   45   46 2   
    83   45   76 1   
    84   46   77 1   
@<TRIPOS>SUBSTRUCTURE
     1 B4F         1 TEMP              0 ****  ****    0 ROOT
