@<TRIPOS>MOLECULE
B4F
   79    84     1     0     0
SMALL
bcc


@<TRIPOS>ATOM
      1 O1          2.0940   -6.5520   -2.9760 o         1 B4F     -0.641500
      2 C1          2.9600   -5.6610   -2.8790 c         1 B4F      0.754500
      3 N1          4.3350   -5.8860   -2.6430 ns        1 B4F     -0.529900
      4 N2          2.6910   -4.2670   -3.0450 ns        1 B4F     -0.526900
      5 C2          3.9520   -3.5260   -2.9580 c3        1 B4F      0.049700
      6 C3          5.0790   -4.6490   -2.8590 c3        1 B4F      0.065700
      7 C4          5.9420   -4.6150   -4.1170 c3        1 B4F     -0.037300
      8 S1          5.0890   -3.6870   -5.3620 ss        1 B4F     -0.330200
      9 C5          4.2430   -2.6420   -4.1740 c3        1 B4F      0.024400
     10 C6          3.0400   -1.9650   -4.7840 c3        1 B4F     -0.066400
     11 C7          3.4020   -1.1310   -6.0010 c3        1 B4F     -0.094400
     12 C8          2.5560   -1.4490   -7.2170 c3        1 B4F     -0.074400
     13 C9          2.9240   -2.7640   -7.8840 c3        1 B4F     -0.148400
     14 C10         1.8990   -3.8380   -7.5870 c         1 B4F      0.663100
     15 O2          0.7950   -3.8750   -8.1810 o         1 B4F     -0.678100
     16 N3          2.2160   -4.8450   -6.6860 ns        1 B4F     -0.576900
     17 C11         1.1910   -5.6480   -6.0850 c3        1 B4F      0.056000
     18 C12         0.7510   -6.8690   -6.9190 c3        1 B4F      0.094800
     19 N4          0.1110   -6.4770   -8.2090 ny        1 B4F     -0.669800
     20 C13        -0.6350   -7.6220   -8.8460 c         1 B4F      0.571700
     21 O3         -1.7080   -7.9050   -8.3280 o         1 B4F     -0.424100
     22 C14        -0.0270   -8.2360  -10.0280 ca        1 B4F     -0.209600
     23 C15         1.3550   -8.2790  -10.2360 ca        1 B4F     -0.044000
     24 C16        -0.8930   -8.8240  -10.9680 ca        1 B4F     -0.026000
     25 C17        -0.3720   -9.4140  -12.1120 ca        1 B4F     -0.128000
     26 C18         1.0140   -9.4470  -12.3440 ca        1 B4F      0.086000
     27 C19         1.8780   -8.8890  -11.3820 ca        1 B4F     -0.107600
     28 C20         3.3460   -8.9320  -11.5280 c         1 B4F      0.639700
     29 O4          4.0630   -9.7910  -12.0390 o         1 B4F     -0.482000
     30 O5          3.9770   -7.8540  -10.9680 oh        1 B4F     -0.623100
     31 C21         1.5000  -10.0560  -13.5900 cc        1 B4F      0.021000
     32 C22         1.5790  -11.4950  -13.6760 ca        1 B4F     -0.219300
     33 C23         1.2380  -12.3580  -12.6150 ca        1 B4F     -0.049000
     34 C24         1.3400  -13.7290  -12.7450 ca        1 B4F     -0.174000
     35 C25         1.8000  -14.2790  -13.9650 ca        1 B4F      0.191100
     36 O6          1.8750  -15.6430  -14.0170 oh        1 B4F     -0.477100
     37 C26         2.1490  -13.4610  -15.0410 ca        1 B4F     -0.307300
     38 C27         2.0340  -12.0700  -14.8800 ca        1 B4F      0.413000
     39 O7          2.3960  -11.3300  -15.9870 os        1 B4F     -0.377800
     40 C28         2.3050   -9.9440  -15.9010 cd        1 B4F      0.305700
     41 C29         1.8420   -9.3010  -14.6750 cd        1 B4F     -0.142100
     42 C30         2.6710   -9.2560  -17.0110 cc        1 B4F     -0.270200
     43 C31         2.6130   -7.7930  -17.0350 c         1 B4F      0.559500
     44 O8          2.9490   -7.1290  -18.0240 o         1 B4F     -0.507100
     45 C32         2.1260   -7.1440  -15.7990 cc        1 B4F     -0.189200
     46 C33         1.7730   -7.8520  -14.7130 cd        1 B4F     -0.097200
     47 H1          4.7380   -6.7500   -2.9170 hn        1 B4F      0.330500
     48 H2          1.9260   -3.9040   -2.5220 hn        1 B4F      0.319500
     49 H3          3.9810   -2.8880   -2.0300 h1        1 B4F      0.083700
     50 H4          5.7210   -4.4690   -1.9510 h1        1 B4F      0.101700
     51 H5          6.9190   -4.1230   -3.8860 h1        1 B4F      0.093200
     52 H6          6.1660   -5.6300   -4.5240 h1        1 B4F      0.093200
     53 H7          4.9740   -1.8520   -3.8490 h1        1 B4F      0.092700
     54 H8          2.5780   -1.3050   -3.9990 hc        1 B4F      0.057200
     55 H9          2.2590   -2.7200   -5.0630 hc        1 B4F      0.057200
     56 H10         4.4880   -1.2660   -6.2590 hc        1 B4F      0.063200
     57 H11         3.2630   -0.0440   -5.7520 hc        1 B4F      0.063200
     58 H12         1.4680   -1.4430   -6.9430 hc        1 B4F      0.064700
     59 H13         2.7040   -0.6260   -7.9690 hc        1 B4F      0.064700
     60 H14         3.9550   -3.0860   -7.5710 hc        1 B4F      0.085200
     61 H15         2.9320   -2.6280   -9.0000 hc        1 B4F      0.085200
     62 H16         3.0710   -4.7410   -6.1620 hn        1 B4F      0.352500
     63 H17         1.5660   -6.0640   -5.0990 h1        1 B4F      0.101700
     64 H18         0.2770   -5.0180   -5.8690 h1        1 B4F      0.101700
     65 H19        -0.0060   -7.4490   -6.3150 hx        1 B4F      0.109200
     66 H20         1.6280   -7.5340   -7.1510 hx        1 B4F      0.109200
     67 H21        -0.5420   -5.6940   -8.0220 hn        1 B4F      0.477300
     68 H22         2.0670   -7.8580   -9.5050 ha        1 B4F      0.154000
     69 H23        -1.9840   -8.8140  -10.7930 ha        1 B4F      0.176000
     70 H24        -1.0530   -9.8660  -12.8550 ha        1 B4F      0.183000
     71 H26         0.8860  -11.9260  -11.6660 ha        1 B4F      0.132000
     72 H27         1.0760  -14.4070  -11.9200 ha        1 B4F      0.165000
     73 H28         2.2090  -15.9030  -14.8910 ho        1 B4F      0.437000
     74 H29         2.5090  -13.8740  -15.9940 ha        1 B4F      0.170000
     75 H30         3.0210   -9.7660  -17.9210 ha        1 B4F      0.180000
     76 H31         2.0690   -6.0440  -15.8240 ha        1 B4F      0.160000
     77 H32         1.4110   -7.3490  -13.8010 ha        1 B4F      0.125000
     78 H321        4.9360   -7.9290  -11.1190 ho        1 B4F      0.465000
     79 H42         0.8250   -6.1040   -8.8500 hn        1 B4F      0.477300
@<TRIPOS>BOND
     1    1    2 2   
     2    2    3 1   
     3    2    4 1   
     4    3    6 1   
     5    3   47 1   
     6    4    5 1   
     7    4   48 1   
     8    5    6 1   
     9    5    9 1   
    10    5   49 1   
    11    6    7 1   
    12    6   50 1   
    13    7    8 1   
    14    7   51 1   
    15    7   52 1   
    16    8    9 1   
    17    9   10 1   
    18    9   53 1   
    19   10   11 1   
    20   10   54 1   
    21   10   55 1   
    22   11   12 1   
    23   11   56 1   
    24   11   57 1   
    25   12   13 1   
    26   12   58 1   
    27   12   59 1   
    28   13   14 1   
    29   13   60 1   
    30   13   61 1   
    31   14   15 2   
    32   14   16 1   
    33   16   17 1   
    34   16   62 1   
    35   17   18 1   
    36   17   63 1   
    37   17   64 1   
    38   18   19 1   
    39   18   65 1   
    40   18   66 1   
    41   19   20 1   
    42   19   67 1   
    43   19   79 1   
    44   20   21 2   
    45   20   22 1   
    46   22   23 ar  
    47   22   24 ar  
    48   23   27 ar  
    49   23   68 1   
    50   24   25 ar  
    51   24   69 1   
    52   25   26 ar  
    53   25   70 1   
    54   26   27 ar  
    55   26   31 1   
    56   27   28 1   
    57   28   29 2   
    58   28   30 1   
    59   30   78 1   
    60   31   32 1   
    61   31   41 2   
    62   32   33 ar  
    63   32   38 ar  
    64   33   34 ar  
    65   33   71 1   
    66   34   35 ar  
    67   34   72 1   
    68   35   36 1   
    69   35   37 ar  
    70   36   73 1   
    71   37   38 ar  
    72   37   74 1   
    73   38   39 1   
    74   39   40 1   
    75   40   41 1   
    76   40   42 2   
    77   41   46 1   
    78   42   43 1   
    79   42   75 1   
    80   43   44 2   
    81   43   45 1   
    82   45   46 2   
    83   45   76 1   
    84   46   77 1   
@<TRIPOS>SUBSTRUCTURE
     1 B4F         1 TEMP              0 ****  ****    0 ROOT
