@<TRIPOS>MOLECULE
B4M
    5     4     1     0     0
SMALL
bcc


@<TRIPOS>ATOM
      1 C1         -0.0620   -0.1530   -0.0880 c3        1 B4M      0.055500
      2 BR2         1.8490   -0.1530   -0.0880 br        1 B4M     -0.062400
      3 BR1        -0.7000   -0.1530    1.7140 br        1 B4M     -0.062400
      4 BR3        -0.7000    1.4080   -0.9890 br        1 B4M     -0.062400
      5 H1         -0.3880   -0.9500   -0.5480 h3        1 B4M      0.132700
@<TRIPOS>BOND
     1    1    2 1   
     2    1    3 1   
     3    1    4 1   
     4    1    5 1   
@<TRIPOS>SUBSTRUCTURE
     1 B4M         1 TEMP              0 ****  ****    0 ROOT
