@<TRIPOS>MOLECULE
B4M
    5     4     1     0     0
SMALL
bcc


@<TRIPOS>ATOM
      1 C1         -0.0000    0.0000    0.5560 c3        1 B4M      0.055500
      2 BR2         0.9120    1.5770   -0.0050 br        1 B4M     -0.062400
      3 BR1        -1.8220    0.0020   -0.0050 br        1 B4M     -0.062400
      4 BR3         0.9090   -1.5790   -0.0050 br        1 B4M     -0.062400
      5 H1         -0.0000    0.0000    1.6690 h3        1 B4M      0.132700
@<TRIPOS>BOND
     1    1    2 1   
     2    1    3 1   
     3    1    4 1   
     4    1    5 1   
@<TRIPOS>SUBSTRUCTURE
     1 B4M         1 TEMP              0 ****  ****    0 ROOT
