@<TRIPOS>MOLECULE
B4M
    5     4     1     0     0
SMALL
bcc


@<TRIPOS>ATOM
      1 C1          0.0210    0.0500    0.0300 c3        1 B4M      0.055500
      2 Br2         1.9260   -0.0190   -0.0070 br        1 B4M     -0.062400
      3 Br1        -0.6530   -0.0080    1.8130 br        1 B4M     -0.062400
      4 Br3        -0.6490    1.5560   -0.9290 br        1 B4M     -0.062400
      5 H1         -0.3500   -0.8610   -0.4900 h3        1 B4M      0.132700
@<TRIPOS>BOND
     1    1    2 1   
     2    1    3 1   
     3    1    4 1   
     4    1    5 1   
@<TRIPOS>SUBSTRUCTURE
     1 B4M         1 TEMP              0 ****  ****    0 ROOT
