@<TRIPOS>MOLECULE
B4N
   31    32     1     0     0
SMALL
bcc


@<TRIPOS>ATOM
      1 CAG         0.2180   -0.1810    0.0030 ca        1 B4N     -0.198250
      2 CAK         1.4970    0.3410   -0.0860 ca        1 B4N     -0.046000
      3 CAS         2.2320    0.5910    1.0880 ca        1 B4N     -0.238200
      4 NAU         3.5890    1.1590    0.9950 no        1 B4N      0.321200
      5 OAD         4.0580    1.4070   -0.0880 o         1 B4N     -0.241000
      6 OAA         4.2150    1.3730    2.0040 o         1 B4N     -0.241000
      7 CAL         1.6800    0.3020    2.3510 ca        1 B4N     -0.046000
      8 CAH         0.4010   -0.2200    2.4380 ca        1 B4N     -0.198250
      9 CAQ        -0.3510   -0.4730    1.2660 ca        1 B4N      0.277100
     10 OAO        -1.6290   -0.8640    1.3550 os        1 B4N     -0.472500
     11 PAW        -2.0940   -2.4800    1.3630 p5        1 B4N      1.457800
     12 OAF        -1.8730   -2.9930    0.0120 o         1 B4N     -0.787500
     13 OAC        -1.6810   -3.0360    2.6520 o         1 B4N     -0.787500
     14 OAP        -3.7320   -2.1210    1.4880 os        1 B4N     -0.472500
     15 CAR        -4.6840   -3.0620    1.5400 ca        1 B4N      0.277100
     16 CAI        -5.1500   -3.5360    2.7900 ca        1 B4N     -0.198250
     17 CAM        -6.2170   -4.4160    2.8520 ca        1 B4N     -0.046000
     18 CAT        -6.8470   -4.8350    1.6650 ca        1 B4N     -0.238200
     19 NAV        -7.9920   -5.7610    1.7310 no        1 B4N      0.321200
     20 OAE        -8.3800   -6.1510    2.8040 o         1 B4N     -0.241000
     21 OAB        -8.5300   -6.1150    0.7120 o         1 B4N     -0.241000
     22 CAN        -6.3920   -4.3740    0.4140 ca        1 B4N     -0.046000
     23 CAJ        -5.3250   -3.4940    0.3540 ca        1 B4N     -0.198250
     24 HAG        -0.3670   -0.3860   -0.9070 ha        1 B4N      0.166000
     25 HAK         1.9390    0.5640   -1.0710 ha        1 B4N      0.155000
     26 HAL         2.2650    0.4940    3.2660 ha        1 B4N      0.155000
     27 HAH        -0.0420   -0.4560    3.4180 ha        1 B4N      0.166000
     28 HAI        -4.6440   -3.2030    3.7100 ha        1 B4N      0.166000
     29 HAM        -6.5760   -4.7860    3.8270 ha        1 B4N      0.155000
     30 HAN        -6.8870   -4.7120   -0.5110 ha        1 B4N      0.155000
     31 HAJ        -4.9550   -3.1290   -0.6170 ha        1 B4N      0.166000
@<TRIPOS>BOND
     1    1    2 ar  
     2    1    9 ar  
     3    1   24 1   
     4    2    3 ar  
     5    2   25 1   
     6    3    4 1   
     7    3    7 ar  
     8    4    5 1   
     9    4    6 1   
    10    7    8 ar  
    11    7   26 1   
    12    8    9 ar  
    13    8   27 1   
    14    9   10 1   
    15   10   11 1   
    16   11   12 1   
    17   11   13 1   
    18   11   14 1   
    19   14   15 1   
    20   15   16 ar  
    21   15   23 ar  
    22   16   17 ar  
    23   16   28 1   
    24   17   18 ar  
    25   17   29 1   
    26   18   19 1   
    27   18   22 ar  
    28   19   20 1   
    29   19   21 1   
    30   22   23 ar  
    31   22   30 1   
    32   23   31 1   
@<TRIPOS>SUBSTRUCTURE
     1 B4N         1 TEMP              0 ****  ****    0 ROOT
