@<TRIPOS>MOLECULE
B4N
   31    32     1     0     0
SMALL
bcc


@<TRIPOS>ATOM
      1 CAG         0.2120   -0.1580    0.0170 ca        1 B4N     -0.198000
      2 CAK         1.4910    0.3640   -0.0690 ca        1 B4N     -0.046000
      3 CAS         2.2340    0.5900    1.1060 ca        1 B4N     -0.238200
      4 NAU         3.5910    1.1580    1.0160 no        1 B4N      0.321200
      5 OAD         4.0530    1.4260   -0.0650 o         1 B4N     -0.241000
      6 OAA         4.2230    1.3520    2.0250 o         1 B4N     -0.241000
      7 CAL         1.6890    0.2780    2.3660 ca        1 B4N     -0.046000
      8 CAH         0.4090   -0.2450    2.4500 ca        1 B4N     -0.198000
      9 CAQ        -0.3490   -0.4730    1.2780 ca        1 B4N      0.277100
     10 OAO        -1.6280   -0.8650    1.3670 os        1 B4N     -0.472500
     11 PAW        -2.0950   -2.4800    1.3480 p5        1 B4N      1.457800
     12 OAF        -1.8860   -2.9670   -0.0150 o         1 B4N     -0.787500
     13 OAC        -1.6720   -3.0610    2.6220 o         1 B4N     -0.787500
     14 OAP        -3.7320   -2.1210    1.4930 os        1 B4N     -0.472500
     15 CAR        -4.6850   -3.0620    1.5370 ca        1 B4N      0.277100
     16 CAI        -5.1390   -3.5580    2.7830 ca        1 B4N     -0.198000
     17 CAM        -6.2070   -4.4370    2.8390 ca        1 B4N     -0.046000
     18 CAT        -6.8490   -4.8340    1.6500 ca        1 B4N     -0.238200
     19 NAV        -7.9940   -5.7600    1.7100 no        1 B4N      0.321200
     20 OAE        -8.3730   -6.1690    2.7790 o         1 B4N     -0.241000
     21 OAB        -8.5420   -6.0950    0.6890 o         1 B4N     -0.241000
     22 CAN        -6.4050   -4.3510    0.4040 ca        1 B4N     -0.046000
     23 CAJ        -5.3370   -3.4710    0.3490 ca        1 B4N     -0.198000
     24 HAG        -0.3790   -0.3450   -0.8930 ha        1 B4N      0.166000
     25 HAK         1.9280    0.6050   -1.0520 ha        1 B4N      0.155000
     26 HAL         2.2800    0.4510    3.2810 ha        1 B4N      0.155000
     27 HAH        -0.0280   -0.4980    3.4280 ha        1 B4N      0.166000
     28 HAI        -4.6240   -3.2430    3.7040 ha        1 B4N      0.166000
     29 HAM        -6.5570   -4.8250    3.8100 ha        1 B4N      0.155000
     30 HAN        -6.9080   -4.6710   -0.5230 ha        1 B4N      0.155000
     31 HAJ        -4.9750   -3.0890   -0.6180 ha        1 B4N      0.166000
@<TRIPOS>BOND
     1    1    2 ar  
     2    1    9 ar  
     3    1   24 1   
     4    2    3 ar  
     5    2   25 1   
     6    3    4 1   
     7    3    7 ar  
     8    4    5 1   
     9    4    6 1   
    10    7    8 ar  
    11    7   26 1   
    12    8    9 ar  
    13    8   27 1   
    14    9   10 1   
    15   10   11 1   
    16   11   12 1   
    17   11   13 1   
    18   11   14 1   
    19   14   15 1   
    20   15   16 ar  
    21   15   23 ar  
    22   16   17 ar  
    23   16   28 1   
    24   17   18 ar  
    25   17   29 1   
    26   18   19 1   
    27   18   22 ar  
    28   19   20 1   
    29   19   21 1   
    30   22   23 ar  
    31   22   30 1   
    32   23   31 1   
@<TRIPOS>SUBSTRUCTURE
     1 B4N         1 TEMP              0 ****  ****    0 ROOT
