@<TRIPOS>MOLECULE
B4N
   31    32     1     0     0
SMALL
bcc


@<TRIPOS>ATOM
      1 CAG        -3.2350   -0.9730   -0.7890 ca        1 B4N     -0.198000
      2 CAK        -4.6040   -0.8040   -0.9110 ca        1 B4N     -0.046000
      3 CAS        -5.2960   -0.0150    0.0280 ca        1 B4N     -0.238200
      4 NAU        -6.7560    0.1550   -0.0930 no        1 B4N      0.321200
      5 OAD        -7.3450   -0.3860   -0.9960 o         1 B4N     -0.241000
      6 OAA        -7.3450    0.8300    0.7140 o         1 B4N     -0.241000
      7 CAL        -4.6050    0.6120    1.0810 ca        1 B4N     -0.046000
      8 CAH        -3.2360    0.4420    1.2020 ca        1 B4N     -0.198000
      9 CAQ        -2.5280   -0.3510    0.2670 ca        1 B4N      0.277100
     10 OAO        -1.2270   -0.6120    0.4530 os        1 B4N     -0.472500
     11 PAW        -0.0000    0.3250   -0.2130 p5        1 B4N      1.457800
     12 OAF         0.0000    0.0660   -1.6530 o         1 B4N     -0.787500
     13 OAC        -0.0000    1.5990    0.5050 o         1 B4N     -0.787500
     14 OAP         1.2270   -0.6120    0.4530 os        1 B4N     -0.472500
     15 CAR         2.5280   -0.3510    0.2670 ca        1 B4N      0.277100
     16 CAI         3.2350    0.4430    1.2020 ca        1 B4N     -0.198000
     17 CAM         4.6040    0.6130    1.0820 ca        1 B4N     -0.046000
     18 CAT         5.2960   -0.0140    0.0280 ca        1 B4N     -0.238200
     19 NAV         6.7560    0.1560   -0.0930 no        1 B4N      0.321200
     20 OAE         7.3450    0.8310    0.7150 o         1 B4N     -0.241000
     21 OAB         7.3450   -0.3850   -0.9950 o         1 B4N     -0.241000
     22 CAN         4.6040   -0.8030   -0.9100 ca        1 B4N     -0.046000
     23 CAJ         3.2360   -0.9730   -0.7890 ca        1 B4N     -0.198000
     24 HAG        -2.6800   -1.5830   -1.5190 ha        1 B4N      0.166000
     25 HAK        -5.1520   -1.2860   -1.7370 ha        1 B4N      0.155000
     26 HAL        -5.1530    1.2340    1.8080 ha        1 B4N      0.155000
     27 HAH        -2.6800    0.9300    2.0170 ha        1 B4N      0.166000
     28 HAI         2.6800    0.9310    2.0180 ha        1 B4N      0.166000
     29 HAM         5.1530    1.2350    1.8090 ha        1 B4N      0.155000
     30 HAN         5.1530   -1.2860   -1.7360 ha        1 B4N      0.155000
     31 HAJ         2.6800   -1.5830   -1.5180 ha        1 B4N      0.166000
@<TRIPOS>BOND
     1    1    2 ar  
     2    1    9 ar  
     3    1   24 1   
     4    2    3 ar  
     5    2   25 1   
     6    3    4 1   
     7    3    7 ar  
     8    4    5 1   
     9    4    6 1   
    10    7    8 ar  
    11    7   26 1   
    12    8    9 ar  
    13    8   27 1   
    14    9   10 1   
    15   10   11 1   
    16   11   12 1   
    17   11   13 1   
    18   11   14 1   
    19   14   15 1   
    20   15   16 ar  
    21   15   23 ar  
    22   16   17 ar  
    23   16   28 1   
    24   17   18 ar  
    25   17   29 1   
    26   18   19 1   
    27   18   22 ar  
    28   19   20 1   
    29   19   21 1   
    30   22   23 ar  
    31   22   30 1   
    32   23   31 1   
@<TRIPOS>SUBSTRUCTURE
     1 B4N         1 TEMP              0 ****  ****    0 ROOT
