@<TRIPOS>MOLECULE
B4N
   31    27     1     0     0
SMALL
bcc


@<TRIPOS>ATOM
      1 CAG         1.0880    2.6080   -1.8240 c1        1 B4N     -0.192000
      2 CAK         1.9550    3.1190   -2.7780 c1        1 B4N     -0.044000
      3 CAS         3.3230    2.9470   -2.6350 c1        1 B4N     -0.194000
      4 NAU         4.2110    3.5050   -3.5890 n2        1 B4N      0.467400
      5 OAD         4.0640    4.6620   -3.9580 o         1 B4N     -0.337200
      6 OAA         5.2210    2.7460   -4.1080 o         1 B4N     -0.337200
      7 CAL         3.8240    2.2630   -1.5380 c2        1 B4N     -0.045000
      8 CAH         2.9570    1.7510   -0.5850 c1        1 B4N     -0.201000
      9 CAQ         1.5890    1.9230   -0.7280 c1        1 B4N      0.250000
     10 OAO         0.7160    1.4800    0.2820 os        1 B4N     -0.662000
     11 PAW        -0.0870    0.1370    0.0490 p5        1 B4N      1.921000
     12 OAF        -1.4920    0.4620   -0.4000 o         1 B4N     -0.780000
     13 OAC         0.6030   -0.6840   -1.0130 o         1 B4N     -0.780000
     14 OAP        -0.1420   -0.6850    1.3990 os        1 B4N     -0.679000
     15 CAR        -1.2590   -1.5050    1.6400 c2        1 B4N      0.234000
     16 CAI        -2.4060   -0.9640    2.2010 c2        1 B4N     -0.197000
     17 CAM        -3.4720   -1.7880    2.5270 c1        1 B4N     -0.046000
     18 CAT        -3.3920   -3.1520    2.2930 c1        1 B4N     -0.194000
     19 NAV        -4.4590   -4.0030    2.6850 no        1 B4N      0.576000
     20 OAE        -4.3620   -5.2130    2.5390 o         1 B4N     -0.391000
     21 OAB        -5.5830   -3.4720    3.2530 o         1 B4N     -0.391000
     22 CAN        -2.2450   -3.6920    1.7330 c1        1 B4N     -0.045000
     23 CAJ        -1.1790   -2.8690    1.4060 c1        1 B4N     -0.204000
     24 HAG         0.1250    2.7350   -1.9220 ha        1 B4N      0.156000
     25 HAK         1.6010    3.5940   -3.5540 ha        1 B4N      0.154000
     26 HAL         4.7880    2.1530   -1.4310 ha        1 B4N      0.154000
     27 HAH         3.3090    1.2540    0.1780 ha        1 B4N      0.164000
     28 HAI        -2.4620   -0.0040    2.3650 ha        1 B4N      0.167000
     29 HAM        -4.2790   -1.4070    2.9220 ha        1 B4N      0.155000
     30 HAN        -2.1890   -4.6530    1.5680 ha        1 B4N      0.155000
     31 HAJ        -0.3670   -3.2510    1.0210 ha        1 B4N      0.165000
@<TRIPOS>BOND
     1    1    9 1   
     2    1   24 1   
     3    2    3 1   
     4    2   25 1   
     5    3    7 1   
     6    4    5 2   
     7    4    6 2   
     8    7    8 1   
     9    7   26 1   
    10    8   27 1   
    11    9   10 1   
    12   10   11 1   
    13   11   12 1   
    14   11   13 1   
    15   11   14 1   
    16   14   15 1   
    17   15   16 1   
    18   15   23 1   
    19   16   17 1   
    20   16   28 1   
    21   17   29 1   
    22   18   19 1   
    23   18   22 1   
    24   19   20 1   
    25   19   21 1   
    26   22   30 1   
    27   23   31 1   
@<TRIPOS>SUBSTRUCTURE
     1 B4N         1 TEMP              0 ****  ****    0 ROOT
