@<TRIPOS>MOLECULE
B4N
   31    32     1     0     0
SMALL
bcc


@<TRIPOS>ATOM
      1 CAG         0.2190   -0.1580    0.0200 ca        1 B4N     -0.198500
      2 CAK         1.4980    0.3650   -0.0590 ca        1 B4N     -0.046000
      3 CAS         2.2330    0.5930    1.1210 ca        1 B4N     -0.238200
      4 NAU         3.5910    1.1610    1.0390 no        1 B4N      0.321200
      5 OAD         4.0600    1.4290   -0.0390 o         1 B4N     -0.241000
      6 OAA         4.2160    1.3570    2.0510 o         1 B4N     -0.241000
      7 CAL         1.6800    0.2810    2.3770 ca        1 B4N     -0.046000
      8 CAH         0.4000   -0.2420    2.4540 ca        1 B4N     -0.198500
      9 CAQ        -0.3510   -0.4720    1.2770 ca        1 B4N      0.277100
     10 OAO        -1.6290   -0.8640    1.3580 os        1 B4N     -0.472500
     11 PAW        -2.0960   -2.4790    1.3390 p5        1 B4N      1.457800
     12 OAF        -1.8820   -2.9680   -0.0230 o         1 B4N     -0.787500
     13 OAC        -1.6770   -3.0590    2.6140 o         1 B4N     -0.787500
     14 OAP        -3.7330   -2.1220    1.4780 os        1 B4N     -0.472500
     15 CAR        -4.6850   -3.0630    1.5260 ca        1 B4N      0.277100
     16 CAI        -5.1410   -3.5540    2.7730 ca        1 B4N     -0.198500
     17 CAM        -6.2080   -4.4340    2.8320 ca        1 B4N     -0.046000
     18 CAT        -6.8470   -4.8370    1.6440 ca        1 B4N     -0.238200
     19 NAV        -7.9910   -5.7640    1.7060 no        1 B4N      0.321200
     20 OAE        -8.3710   -6.1680    2.7770 o         1 B4N     -0.241000
     21 OAB        -8.5380   -6.1040    0.6870 o         1 B4N     -0.241000
     22 CAN        -6.4020   -4.3590    0.3960 ca        1 B4N     -0.046000
     23 CAJ        -5.3350   -3.4790    0.3390 ca        1 B4N     -0.198500
     24 HAG        -0.3660   -0.3450   -0.8940 ha        1 B4N      0.166000
     25 HAK         1.9410    0.6060   -1.0400 ha        1 B4N      0.155000
     26 HAL         2.2650    0.4560    3.2960 ha        1 B4N      0.155000
     27 HAH        -0.0430   -0.4950    3.4290 ha        1 B4N      0.166000
     28 HAI        -4.6270   -3.2340    3.6930 ha        1 B4N      0.166000
     29 HAM        -6.5580   -4.8180    3.8040 ha        1 B4N      0.155000
     30 HAN        -6.9040   -4.6840   -0.5300 ha        1 B4N      0.155000
     31 HAJ        -4.9720   -3.1010   -0.6300 ha        1 B4N      0.166000
@<TRIPOS>BOND
     1    1    2 ar  
     2    1    9 ar  
     3    1   24 1   
     4    2    3 ar  
     5    2   25 1   
     6    3    4 1   
     7    3    7 ar  
     8    4    5 1   
     9    4    6 1   
    10    7    8 ar  
    11    7   26 1   
    12    8    9 ar  
    13    8   27 1   
    14    9   10 1   
    15   10   11 1   
    16   11   12 1   
    17   11   13 1   
    18   11   14 1   
    19   14   15 1   
    20   15   16 ar  
    21   15   23 ar  
    22   16   17 ar  
    23   16   28 1   
    24   17   18 ar  
    25   17   29 1   
    26   18   19 1   
    27   18   22 ar  
    28   19   20 1   
    29   19   21 1   
    30   22   23 ar  
    31   22   30 1   
    32   23   31 1   
@<TRIPOS>SUBSTRUCTURE
     1 B4N         1 TEMP              0 ****  ****    0 ROOT
