@<TRIPOS>MOLECULE
B4S
   31    32     1     0     0
SMALL
bcc


@<TRIPOS>ATOM
      1 O2         -0.0740   -0.2680   -0.3400 o         1 B4S     -0.566300
      2 S           1.1920    0.1690   -0.0180 sy        1 B4S      1.497200
      3 O1          1.6890    0.0880    1.2650 o         1 B4S     -0.566300
      4 N           2.2260   -1.2410   -0.8400 n4        1 B4S     -0.786500
      5 C10         1.7430    1.3810   -0.8920 ca        1 B4S     -0.571500
      6 C9          1.0880    1.7880   -2.0780 ca        1 B4S      0.017500
      7 C8          1.5150    2.8890   -2.7990 ca        1 B4S     -0.148000
      8 C11         2.8520    2.1500   -0.4660 ca        1 B4S      0.017500
      9 C12         3.2870    3.2500   -1.1830 ca        1 B4S     -0.148000
     10 C7          2.6250    3.6400   -2.3640 cp        1 B4S      0.118000
     11 C6          3.0760    4.8040   -3.1190 cp        1 B4S     -0.055000
     12 C13         4.4450    5.0700   -3.2360 ca        1 B4S     -0.147000
     13 C1          4.8820    6.1900   -3.9690 ca        1 B4S      0.188900
     14 F1          6.2050    6.4290   -4.0810 f         1 B4S     -0.099900
     15 C5          2.1440    5.6590   -3.7270 ca        1 B4S     -0.116000
     16 C4          2.5770    6.7720   -4.4420 ca        1 B4S     -0.055000
     17 C2          3.9380    7.0470   -4.5740 ca        1 B4S     -0.174300
     18 C3          4.4030    8.2690   -5.3700 c3        1 B4S      0.695200
     19 F2          5.1370    9.1610   -4.6310 f         1 B4S     -0.218633
     20 F3          5.1970    7.9570   -6.4430 f         1 B4S     -0.218633
     21 F4          3.3800    9.0150   -5.8990 f         1 B4S     -0.218633
     22 H1          1.6070   -1.9440   -1.2390 hn        1 B4S      0.454800
     23 H2          2.8300   -0.8990   -1.5810 hn        1 B4S      0.454800
     24 H3          0.2010    1.2230   -2.4250 ha        1 B4S      0.170000
     25 H4          0.9860    3.1820   -3.7220 ha        1 B4S      0.178500
     26 H5          3.3660    1.8770    0.4760 ha        1 B4S      0.170000
     27 H6          4.1460    3.8400   -0.8180 ha        1 B4S      0.178500
     28 H7          5.1960    4.4110   -2.7750 ha        1 B4S      0.161000
     29 H8          1.0640    5.4650   -3.6270 ha        1 B4S      0.154000
     30 H9          1.8380    7.4470   -4.9120 ha        1 B4S      0.179000
     31 HN3         2.8110   -1.7000   -0.1450 hn        1 B4S      0.454800
@<TRIPOS>BOND
     1    1    2 2   
     2    2    3 2   
     3    2    4 1   
     4    2    5 1   
     5    4   22 1   
     6    4   23 1   
     7    4   31 1   
     8    5    6 ar  
     9    5    8 ar  
    10    6    7 ar  
    11    6   24 1   
    12    7   10 ar  
    13    7   25 1   
    14    8    9 ar  
    15    8   26 1   
    16    9   10 ar  
    17    9   27 1   
    18   10   11 1   
    19   11   12 ar  
    20   11   15 ar  
    21   12   13 ar  
    22   12   28 1   
    23   13   14 1   
    24   13   17 ar  
    25   15   16 ar  
    26   15   29 1   
    27   16   17 ar  
    28   16   30 1   
    29   17   18 1   
    30   18   19 1   
    31   18   20 1   
    32   18   21 1   
@<TRIPOS>SUBSTRUCTURE
     1 B4S         1 TEMP              0 ****  ****    0 ROOT
