@<TRIPOS>MOLECULE
B4S
   31    32     1     0     0
SMALL
bcc


@<TRIPOS>ATOM
      1 O2         -0.0800   -0.2790   -0.3650 o         1 B4S     -0.566300
      2 S           1.1800    0.1670   -0.0280 sy        1 B4S      1.497200
      3 O1          1.6600    0.0930    1.2610 o         1 B4S     -0.566300
      4 N           2.2320   -1.2390   -0.8330 nz        1 B4S     -0.786500
      5 C10         1.7350    1.3790   -0.8990 ca        1 B4S     -0.571500
      6 C9          1.0930    1.7800   -2.0950 ca        1 B4S      0.017500
      7 C8          1.5230    2.8810   -2.8130 ca        1 B4S     -0.148000
      8 C11         2.8340    2.1570   -0.4610 ca        1 B4S      0.017500
      9 C12         3.2710    3.2570   -1.1760 ca        1 B4S     -0.148000
     10 C7          2.6220    3.6390   -2.3660 cp        1 B4S      0.118000
     11 C6          3.0760    4.8040   -3.1200 cp        1 B4S     -0.055000
     12 C13         4.4450    5.0780   -3.2200 ca        1 B4S     -0.147000
     13 C1          4.8850    6.1990   -3.9500 ca        1 B4S      0.188900
     14 F1          6.2070    6.4450   -4.0460 f         1 B4S     -0.099900
     15 C5          2.1470    5.6510   -3.7410 ca        1 B4S     -0.116000
     16 C4          2.5820    6.7650   -4.4550 ca        1 B4S     -0.055000
     17 C2          3.9430    7.0480   -4.5700 ca        1 B4S     -0.174300
     18 C3          4.4110    8.2700   -5.3630 c3        1 B4S      0.695200
     19 F2          5.1280    9.1700   -4.6170 f         1 B4S     -0.218633
     20 F3          5.2230    7.9600   -6.4240 f         1 B4S     -0.218633
     21 F4          3.3910    9.0070   -5.9100 f         1 B4S     -0.218633
     22 H1          1.6230   -1.9480   -1.2370 hn        1 B4S      0.454800
     23 H2          2.8430   -0.8960   -1.5670 hn        1 B4S      0.454800
     24 H3          0.2140    1.2070   -2.4510 ha        1 B4S      0.170000
     25 H4          1.0040    3.1670   -3.7440 ha        1 B4S      0.178500
     26 H5          3.3380    1.8890    0.4880 ha        1 B4S      0.170000
     27 H6          4.1220    3.8530   -0.8020 ha        1 B4S      0.178500
     28 H7          5.1940    4.4250   -2.7470 ha        1 B4S      0.161000
     29 H8          1.0670    5.4510   -3.6550 ha        1 B4S      0.154000
     30 H9          1.8450    7.4340   -4.9360 ha        1 B4S      0.179000
     31 HN3         2.8110   -1.6930   -0.1290 hn        1 B4S      0.454800
@<TRIPOS>BOND
     1    1    2 2   
     2    2    3 2   
     3    2    4 1   
     4    2    5 1   
     5    4   22 1   
     6    4   23 1   
     7    4   31 1   
     8    5    6 ar  
     9    5    8 ar  
    10    6    7 ar  
    11    6   24 1   
    12    7   10 ar  
    13    7   25 1   
    14    8    9 ar  
    15    8   26 1   
    16    9   10 ar  
    17    9   27 1   
    18   10   11 1   
    19   11   12 ar  
    20   11   15 ar  
    21   12   13 ar  
    22   12   28 1   
    23   13   14 1   
    24   13   17 ar  
    25   15   16 ar  
    26   15   29 1   
    27   16   17 ar  
    28   16   30 1   
    29   17   18 1   
    30   18   19 1   
    31   18   20 1   
    32   18   21 1   
@<TRIPOS>SUBSTRUCTURE
     1 B4S         1 TEMP              0 ****  ****    0 ROOT
