@<TRIPOS>MOLECULE
B4W
   41    44     1     0     0
SMALL
bcc


@<TRIPOS>ATOM
      1 C01         0.1330   -0.1280   -0.0170 ca        1 B4W     -0.092000
      2 C02         1.4980   -0.3030   -0.0240 ca        1 B4W     -0.145000
      3 C03         2.1950   -0.5190    1.1850 ca        1 B4W     -0.107000
      4 C04         1.5270   -0.5530    2.3830 ca        1 B4W     -0.177300
      5 C05         0.1070   -0.3710    2.4240 ca        1 B4W      0.439600
      6 C06        -0.5920   -0.1680    1.1950 ca        1 B4W     -0.290600
      7 C07        -2.0450   -0.0030    1.2980 ca        1 B4W      0.693200
      8 C08        -1.8720   -0.2180    3.6200 cp        1 B4W      0.751500
      9 C09        -2.6000   -0.2280    4.9180 cp        1 B4W     -0.158500
     10 C10        -2.3410    0.7460    5.9000 ca        1 B4W      0.160100
     11 C11        -3.0190    0.7090    7.1300 ca        1 B4W     -0.222000
     12 C12        -3.9550   -0.2920    7.3690 ca        1 B4W     -0.080000
     13 C13        -4.2270   -1.2500    6.3930 ca        1 B4W     -0.173000
     14 C14        -3.5540   -1.2160    5.1730 ca        1 B4W     -0.062000
     15 C15        -4.2200    0.3120    0.1480 c3        1 B4W      0.185500
     16 C16        -4.9310   -1.0660    0.3600 c3        1 B4W      0.117800
     17 C17        -5.6810   -0.3060   -1.7380 c3        1 B4W      0.139800
     18 C18        -4.7980    0.8280   -1.1920 c3        1 B4W     -0.113400
     19 N19        -0.5420   -0.3940    3.6440 nb        1 B4W     -0.697000
     20 N20        -2.6670   -0.0460    2.4950 nb        1 B4W     -0.770000
     21 N21        -2.7740    0.2660    0.1370 nu        1 B4W     -0.838900
     22 N22        -5.5580   -1.4850   -0.8860 n7        1 B4W     -0.794200
     23 O23        -1.4350    1.7330    5.5990 oh        1 B4W     -0.481100
     24 H01        -0.3790    0.0550   -0.9740 ha        1 B4W      0.127000
     25 H02         2.0600   -0.2710   -0.9690 ha        1 B4W      0.135000
     26 H03         3.2870   -0.6580    1.1550 ha        1 B4W      0.137000
     27 H04         2.0680   -0.7150    3.3290 ha        1 B4W      0.155000
     28 H21        -2.3750   -0.1080   -0.6970 hn        1 B4W      0.412800
     29 H14        -3.7710   -1.9710    4.4020 ha        1 B4W      0.143000
     30 H11        -2.8060    1.4690    7.8950 ha        1 B4W      0.134000
     31 H23        -1.3130    2.2770    6.3910 ho        1 B4W      0.419000
     32 H12        -4.4850   -0.3230    8.3330 ha        1 B4W      0.133000
     33 H13        -4.9730   -2.0350    6.5850 ha        1 B4W      0.136000
     34 H15        -4.5280    1.0060    0.9820 h1        1 B4W      0.096700
     35 H161       -4.2310   -1.8480    0.7530 h1        1 B4W      0.063700
     36 H162       -5.7490   -0.9230    1.1190 h1        1 B4W      0.063700
     37 H181       -4.0070    1.1030   -1.9300 hc        1 B4W      0.057700
     38 H182       -5.4100    1.7420   -1.0000 hc        1 B4W      0.057700
     39 H22        -5.0010   -2.1850   -1.3400 hn        1 B4W      0.345800
     40 H171       -5.4150   -0.5400   -2.8030 h1        1 B4W      0.049700
     41 H172       -6.7610    0.0090   -1.7180 h1        1 B4W      0.049700
@<TRIPOS>BOND
     1    1    2 ar  
     2    1    6 ar  
     3    1   24 1   
     4    2    3 ar  
     5    2   25 1   
     6    3    4 ar  
     7    3   26 1   
     8    4    5 ar  
     9    4   27 1   
    10    5    6 ar  
    11    5   19 ar  
    12    6    7 ar  
    13    7   20 ar  
    14    7   21 1   
    15    8    9 1   
    16    8   19 ar  
    17    8   20 ar  
    18    9   10 ar  
    19    9   14 ar  
    20   10   11 ar  
    21   10   23 1   
    22   11   12 ar  
    23   11   30 1   
    24   12   13 ar  
    25   12   32 1   
    26   13   14 ar  
    27   13   33 1   
    28   14   29 1   
    29   15   16 1   
    30   15   18 1   
    31   15   21 1   
    32   15   34 1   
    33   16   22 1   
    34   16   35 1   
    35   16   36 1   
    36   17   18 1   
    37   17   22 1   
    38   17   40 1   
    39   17   41 1   
    40   18   37 1   
    41   18   38 1   
    42   21   28 1   
    43   22   39 1   
    44   23   31 1   
@<TRIPOS>SUBSTRUCTURE
     1 B4W         1 TEMP              0 ****  ****    0 ROOT
