@<TRIPOS>MOLECULE
B4W
   41    44     1     0     0
SMALL
bcc


@<TRIPOS>ATOM
      1 C01         0.1370   -0.1510   -0.0130 ca        1 B4W     -0.092000
      2 C02         1.5010   -0.3360   -0.0160 ca        1 B4W     -0.145000
      3 C03         2.1940   -0.5570    1.1940 ca        1 B4W     -0.107000
      4 C04         1.5230   -0.5850    2.3910 ca        1 B4W     -0.177300
      5 C05         0.1050   -0.3920    2.4290 ca        1 B4W      0.439600
      6 C06        -0.5910   -0.1830    1.1980 ca        1 B4W     -0.290600
      7 C07        -2.0420   -0.0070    1.2990 ca        1 B4W      0.693200
      8 C08        -1.8750   -0.2220    3.6210 cp        1 B4W      0.751500
      9 C09        -2.6060   -0.2250    4.9170 cp        1 B4W     -0.158500
     10 C10        -2.3410    0.7480    5.9000 ca        1 B4W      0.160100
     11 C11        -3.0210    0.7170    7.1290 ca        1 B4W     -0.222000
     12 C12        -3.9660   -0.2760    7.3670 ca        1 B4W     -0.080000
     13 C13        -4.2430   -1.2330    6.3910 ca        1 B4W     -0.173000
     14 C14        -3.5680   -1.2050    5.1710 ca        1 B4W     -0.062000
     15 C15        -4.2120    0.3240    0.1450 c3        1 B4W      0.185500
     16 C16        -4.9350   -1.0490    0.3580 c3        1 B4W      0.117800
     17 C17        -5.6740   -0.2870   -1.7440 c3        1 B4W      0.139800
     18 C18        -4.7850    0.8420   -1.1970 c3        1 B4W     -0.113400
     19 N19        -0.5470   -0.4090    3.6470 nb        1 B4W     -0.697000
     20 N20        -2.6670   -0.0440    2.4950 nb        1 B4W     -0.770000
     21 N21        -2.7670    0.2660    0.1360 nh        1 B4W     -0.838900
     22 N22        -5.5620   -1.4650   -0.8890 n3        1 B4W     -0.794200
     23 O23        -1.4250    1.7270    5.5990 oh        1 B4W     -0.481100
     24 H01        -0.3710    0.0360   -0.9700 ha        1 B4W      0.127000
     25 H02         2.0650   -0.3090   -0.9610 ha        1 B4W      0.135000
     26 H03         3.2850   -0.7050    1.1660 ha        1 B4W      0.137000
     27 H04         2.0610   -0.7500    3.3380 ha        1 B4W      0.155000
     28 H21        -2.3700   -0.1120   -0.6960 hn        1 B4W      0.412800
     29 H14        -3.7900   -1.9590    4.4010 ha        1 B4W      0.143000
     30 H11        -2.8040    1.4760    7.8940 ha        1 B4W      0.134000
     31 H23        -1.3010    2.2710    6.3920 ho        1 B4W      0.419000
     32 H12        -4.4970   -0.3020    8.3290 ha        1 B4W      0.133000
     33 H13        -4.9950   -2.0120    6.5810 ha        1 B4W      0.136000
     34 H15        -4.5170    1.0220    0.9770 h1        1 B4W      0.096700
     35 H161       -4.2420   -1.8350    0.7550 h1        1 B4W      0.063700
     36 H162       -5.7530   -0.8980    1.1140 h1        1 B4W      0.063700
     37 H181       -5.3910    1.7600   -1.0080 hc        1 B4W      0.057700
     38 H182       -3.9900    1.1110   -1.9340 hc        1 B4W      0.057700
     39 H22        -5.0090   -2.1700   -1.3400 hn        1 B4W      0.345800
     40 H171       -5.4050   -0.5260   -2.8080 h1        1 B4W      0.049700
     41 H172       -6.7510    0.0350   -1.7280 h1        1 B4W      0.049700
@<TRIPOS>BOND
     1    1    2 ar  
     2    1    6 ar  
     3    1   24 1   
     4    2    3 ar  
     5    2   25 1   
     6    3    4 ar  
     7    3   26 1   
     8    4    5 ar  
     9    4   27 1   
    10    5    6 ar  
    11    5   19 ar  
    12    6    7 ar  
    13    7   20 ar  
    14    7   21 1   
    15    8    9 1   
    16    8   19 ar  
    17    8   20 ar  
    18    9   10 ar  
    19    9   14 ar  
    20   10   11 ar  
    21   10   23 1   
    22   11   12 ar  
    23   11   30 1   
    24   12   13 ar  
    25   12   32 1   
    26   13   14 ar  
    27   13   33 1   
    28   14   29 1   
    29   15   16 1   
    30   15   18 1   
    31   15   21 1   
    32   15   34 1   
    33   16   22 1   
    34   16   35 1   
    35   16   36 1   
    36   17   18 1   
    37   17   22 1   
    38   17   40 1   
    39   17   41 1   
    40   18   37 1   
    41   18   38 1   
    42   21   28 1   
    43   22   39 1   
    44   23   31 1   
@<TRIPOS>SUBSTRUCTURE
     1 B4W         1 TEMP              0 ****  ****    0 ROOT
