@<TRIPOS>MOLECULE
B4W
   41    44     1     0     0
SMALL
bcc


@<TRIPOS>ATOM
      1 C01        -1.8970   -2.8980    0.0290 ca        1 B4W     -0.091000
      2 C02        -1.6120   -4.2210    0.2820 ca        1 B4W     -0.144000
      3 C03        -0.2850   -4.6280    0.5390 ca        1 B4W     -0.102000
      4 C04         0.7420   -3.7170    0.5360 ca        1 B4W     -0.181300
      5 C05         0.4780   -2.3340    0.2750 ca        1 B4W      0.443600
      6 C06        -0.8690   -1.9290    0.0260 ca        1 B4W     -0.294600
      7 C07        -1.0750   -0.5000   -0.2300 ca        1 B4W      0.702200
      8 C08         1.2250   -0.1470    0.0340 cp        1 B4W      0.747500
      9 C09         2.3300    0.8500    0.0590 cp        1 B4W     -0.219500
     10 C10         3.5320    0.6670   -0.6490 ca        1 B4W      0.174100
     11 C11         4.5500    1.6430   -0.5820 ca        1 B4W     -0.172000
     12 C12         4.3630    2.7810    0.1880 ca        1 B4W     -0.083000
     13 C13         3.1710    2.9690    0.8940 ca        1 B4W     -0.179000
     14 C14         2.1650    2.0120    0.8270 ca        1 B4W     -0.055000
     15 C15        -2.6540    1.3530   -0.7120 c3        1 B4W      0.187500
     16 C16        -2.6510    2.1760    0.6200 c3        1 B4W      0.118800
     17 C17        -4.8360    2.3920   -0.2300 c3        1 B4W      0.139800
     18 C18        -4.0680    1.5910   -1.2940 c3        1 B4W     -0.114400
     19 N19         1.5260   -1.4350    0.2730 nb        1 B4W     -0.741000
     20 N20        -0.0400    0.3690   -0.2070 nb        1 B4W     -0.774000
     21 N21        -2.3510   -0.0540   -0.5670 nh        1 B4W     -0.840900
     22 N22        -4.0190    2.5310    0.9710 n3        1 B4W     -0.794200
     23 O23         3.8220   -0.3980   -1.4610 oh        1 B4W     -0.498100
     24 H01        -2.9390   -2.6160   -0.1800 ha        1 B4W      0.128000
     25 H02        -2.4140   -4.9730    0.2830 ha        1 B4W      0.138000
     26 H03        -0.0810   -5.6920    0.7410 ha        1 B4W      0.139000
     27 H04         1.7780   -4.0320    0.7360 ha        1 B4W      0.156000
     28 H21        -3.0980   -0.6140   -0.2200 hn        1 B4W      0.417800
     29 H14         1.2280    2.1670    1.3840 ha        1 B4W      0.143000
     30 H11         5.4780    1.4780   -1.1470 ha        1 B4W      0.151000
     31 H23         3.1180   -1.0580   -1.3960 ho        1 B4W      0.439000
     32 H12         5.1580    3.5400    0.2420 ha        1 B4W      0.134000
     33 H13         3.0290    3.8730    1.5020 ha        1 B4W      0.135000
     34 H15        -1.8830    1.7940   -1.4070 h1        1 B4W      0.096700
     35 H161       -2.1380    1.6300    1.4540 h1        1 B4W      0.064700
     36 H162       -2.0890    3.1320    0.4370 h1        1 B4W      0.064700
     37 H181       -3.9830    2.1780   -2.2400 hc        1 B4W      0.058700
     38 H182       -4.6050    0.6410   -1.5360 hc        1 B4W      0.058700
     39 H22        -4.3620    1.9300    1.6980 hn        1 B4W      0.346800
     40 H171       -5.0460    3.4290   -0.6130 h1        1 B4W      0.050700
     41 H172       -5.8220    1.9080   -0.0010 h1        1 B4W      0.050700
@<TRIPOS>BOND
     1    1    2 ar  
     2    1    6 ar  
     3    1   24 1   
     4    2    3 ar  
     5    2   25 1   
     6    3    4 ar  
     7    3   26 1   
     8    4    5 ar  
     9    4   27 1   
    10    5    6 ar  
    11    5   19 ar  
    12    6    7 ar  
    13    7   20 ar  
    14    7   21 1   
    15    8    9 1   
    16    8   19 ar  
    17    8   20 ar  
    18    9   10 ar  
    19    9   14 ar  
    20   10   11 ar  
    21   10   23 1   
    22   11   12 ar  
    23   11   30 1   
    24   12   13 ar  
    25   12   32 1   
    26   13   14 ar  
    27   13   33 1   
    28   14   29 1   
    29   15   16 1   
    30   15   18 1   
    31   15   21 1   
    32   15   34 1   
    33   16   22 1   
    34   16   35 1   
    35   16   36 1   
    36   17   18 1   
    37   17   22 1   
    38   17   40 1   
    39   17   41 1   
    40   18   37 1   
    41   18   38 1   
    42   21   28 1   
    43   22   39 1   
    44   23   31 1   
@<TRIPOS>SUBSTRUCTURE
     1 B4W         1 TEMP              0 ****  ****    0 ROOT
