@<TRIPOS>MOLECULE
B4W
   41    36     1     0     0
SMALL
bcc


@<TRIPOS>ATOM
      1 C01         2.4690   -0.3490   -1.7440 c1        1 B4W     -0.091000
      2 C02         3.8490   -0.4630   -1.6740 c1        1 B4W     -0.131667
      3 C03         4.4720   -0.5860   -0.4430 c1        1 B4W     -0.131667
      4 C04         3.7150   -0.5940    0.7210 c1        1 B4W     -0.114000
      5 C05         2.3180   -0.4790    0.6510 c1        1 B4W      0.046000
      6 C06         1.7020   -0.3580   -0.5670 c1        1 B4W     -0.161000
      7 C07         0.3220   -0.1870   -0.6330 c2        1 B4W      0.172000
      8 C08         0.2100   -0.2620    1.7240 c1        1 B4W      0.121000
      9 C09        -0.2870   -0.3120    3.0280 c1        1 B4W     -0.052000
     10 C10        -0.5830    0.8790    3.7110 c1        1 B4W      0.116000
     11 C11        -1.1970    0.8310    4.9550 c1        1 B4W     -0.131667
     12 C12        -1.5180   -0.3940    5.5250 c1        1 B4W     -0.131667
     13 C13        -1.2240   -1.5790    4.8470 c1        1 B4W     -0.131667
     14 C14        -0.6080   -1.5350    3.5980 c1        1 B4W     -0.131667
     15 C15        -1.1980    0.6550   -2.2900 c3        1 B4W     -0.012000
     16 C16        -2.6390    0.0640   -2.4960 c3        1 B4W     -0.119000
     17 C17        -1.6770    0.7180   -4.5150 c3        1 B4W     -0.097000
     18 C18        -0.7740    1.1980   -3.6610 c3        1 B4W     -0.193000
     19 N19         1.5800   -0.4320    1.7920 n2        1 B4W     -0.187000
     20 N20        -0.4090   -0.1400    0.5050 n1        1 B4W     -0.230000
     21 N21        -0.3510   -0.3090   -1.8870 n3        1 B4W     -0.283000
     22 N22        -3.0180    0.4910   -3.6710 n3        1 B4W     -0.273000
     23 O23        -0.3180    2.1180    3.1070 oh        1 B4W     -0.236000
     24 H01         2.0290   -0.2630   -2.6140 ha        1 B4W      0.128000
     25 H02         4.3840   -0.4550   -2.4960 ha        1 B4W      0.136667
     26 H03         5.4560   -0.6650   -0.3920 ha        1 B4W      0.136667
     27 H04         4.1590   -0.6820    1.6000 ha        1 B4W      0.154000
     28 H21        -0.1550   -1.0060   -2.4430 hn        1 B4W      0.207000
     29 H14        -0.3980   -2.3840    3.1130 ha        1 B4W      0.136667
     30 H11        -1.4090    1.6820    5.4440 ha        1 B4W      0.136667
     31 H23        -1.0200    2.6840    3.2510 ho        1 B4W      0.217000
     32 H12        -1.9450   -0.4270    6.3910 ha        1 B4W      0.136667
     33 H13        -1.4510   -2.4420    5.2500 ha        1 B4W      0.136667
     34 H15        -1.2200    1.3560   -1.6540 h1        1 B4W      0.136000
     35 H161       -3.2530    0.4010   -1.7900 h1        1 B4W      0.104000
     36 H162       -2.6110   -0.9250   -2.4830 h1        1 B4W      0.104000
     37 H181        0.1390    0.8690   -3.9000 hc        1 B4W      0.096000
     38 H182       -0.7940    2.1960   -3.6590 hc        1 B4W      0.096000
     39 H22        -3.5360   -0.1550   -4.0810 hn        1 B4W      0.141000
     40 H171       -1.3720   -0.1220   -4.8850 h1        1 B4W      0.089000
     41 H172       -1.8380    1.3670   -5.2370 h1        1 B4W      0.089000
@<TRIPOS>BOND
     1    1    6 1   
     2    1   24 1   
     3    2    3 1   
     4    2   25 1   
     5    3   26 1   
     6    4    5 1   
     7    4   27 1   
     8    5   19 1   
     9    6    7 1   
    10    7   20 1   
    11    7   21 1   
    12    8   19 1   
    13    9   10 1   
    14   10   23 1   
    15   11   12 1   
    16   11   30 1   
    17   12   32 1   
    18   13   14 1   
    19   13   33 1   
    20   14   29 1   
    21   15   16 1   
    22   15   18 1   
    23   15   21 1   
    24   15   34 1   
    25   16   22 1   
    26   16   35 1   
    27   16   36 1   
    28   17   18 1   
    29   17   22 1   
    30   17   40 1   
    31   17   41 1   
    32   18   37 1   
    33   18   38 1   
    34   21   28 1   
    35   22   39 1   
    36   23   31 1   
@<TRIPOS>SUBSTRUCTURE
     1 B4W         1 TEMP              0 ****  ****    0 ROOT
