@<TRIPOS>MOLECULE
B4W
   42    45     1     0     0
SMALL
bcc


@<TRIPOS>ATOM
      1 C01         0.2470   -0.1470   -0.0110 ca        1 B4W     -0.152000
      2 C02         1.6150   -0.2690    0.0300 ca        1 B4W     -0.070000
      3 C03         2.2870   -0.4340    1.2660 ca        1 B4W     -0.095000
      4 C04         1.5910   -0.4770    2.4470 ca        1 B4W     -0.142300
      5 C05         0.1620   -0.3530    2.4460 ca        1 B4W      0.435600
      6 C06        -0.5080   -0.1860    1.1850 ca        1 B4W     -0.260600
      7 C07        -1.9430   -0.0720    1.2780 ca        1 B4W      0.517200
      8 C08        -1.8640   -0.2720    3.5910 cp        1 B4W      0.756500
      9 C09        -2.6350   -0.2870    4.8570 cp        1 B4W     -0.204500
     10 C10        -2.4460    0.7300    5.8120 ca        1 B4W      0.172100
     11 C11        -3.1510    0.6970    7.0270 ca        1 B4W     -0.209000
     12 C12        -4.0410   -0.3420    7.2740 ca        1 B4W     -0.055000
     13 C13        -4.2410   -1.3460    6.3220 ca        1 B4W     -0.162000
     14 C14        -3.5430   -1.3180    5.1190 ca        1 B4W     -0.059000
     15 C15        -4.1760    0.3270    0.1230 c3        1 B4W      0.094500
     16 C16        -4.9580   -0.9750    0.4930 c3        1 B4W      0.146800
     17 C17        -5.8240   -0.2990   -1.5900 c3        1 B4W      0.144800
     18 C18        -4.7870    0.7810   -1.2190 c3        1 B4W     -0.138400
     19 N19        -0.5280   -0.3960    3.6360 nb        1 B4W     -0.602000
     20 N20        -2.6180   -0.1170    2.4240 nb        1 B4W     -0.661000
     21 N21        -2.6910    0.1120    0.0070 n4        1 B4W     -0.752700
     22 N22        -5.7120   -1.4170   -0.6630 n3        1 B4W     -0.793200
     23 O23        -1.5830    1.7470    5.4880 oh        1 B4W     -0.497100
     24 H01        -0.2450   -0.0220   -0.9870 ha        1 B4W      0.121000
     25 H02         2.2080   -0.2390   -0.9000 ha        1 B4W      0.163000
     26 H03         3.3870   -0.5280    1.2660 ha        1 B4W      0.169000
     27 H04         2.1120   -0.6060    3.4120 ha        1 B4W      0.184000
     28 H21        -2.5160   -0.7210   -0.5690 hn        1 B4W      0.455300
     29 H14        -3.6970   -2.1130    4.3740 ha        1 B4W      0.139000
     30 H11        -2.9940    1.4890    7.7740 ha        1 B4W      0.152000
     31 H23        -1.4840    2.3190    6.2660 ho        1 B4W      0.438000
     32 H12        -4.5920   -0.3730    8.2280 ha        1 B4W      0.153000
     33 H13        -4.9490   -2.1640    6.5270 ha        1 B4W      0.152000
     34 H15        -4.3360    1.1110    0.9170 hx        1 B4W      0.135700
     35 H161       -5.6940   -0.6940    1.3010 h1        1 B4W      0.090700
     36 H162       -4.2970   -1.7840    0.9000 h1        1 B4W      0.090700
     37 H181       -5.2920    1.7700   -1.0790 hc        1 B4W      0.078700
     38 H182       -4.0350    0.9020   -2.0370 hc        1 B4W      0.078700
     39 H22        -5.2960   -2.2180   -1.0980 hn        1 B4W      0.369800
     40 H171       -5.6940   -0.6290   -2.6550 h1        1 B4W      0.080700
     41 H172       -6.8620    0.1250   -1.4850 h1        1 B4W      0.080700
     42 H212       -2.2790    0.9300   -0.4630 hn        1 B4W      0.455300
@<TRIPOS>BOND
     1    1    2 ar  
     2    1    6 ar  
     3    1   24 1   
     4    2    3 ar  
     5    2   25 1   
     6    3    4 ar  
     7    3   26 1   
     8    4    5 ar  
     9    4   27 1   
    10    5    6 ar  
    11    5   19 ar  
    12    6    7 ar  
    13    7   20 ar  
    14    7   21 1   
    15    8    9 1   
    16    8   19 ar  
    17    8   20 ar  
    18    9   10 ar  
    19    9   14 ar  
    20   10   11 ar  
    21   10   23 1   
    22   11   12 ar  
    23   11   30 1   
    24   12   13 ar  
    25   12   32 1   
    26   13   14 ar  
    27   13   33 1   
    28   14   29 1   
    29   15   16 1   
    30   15   18 1   
    31   15   21 1   
    32   15   34 1   
    33   16   22 1   
    34   16   35 1   
    35   16   36 1   
    36   17   18 1   
    37   17   22 1   
    38   17   40 1   
    39   17   41 1   
    40   18   37 1   
    41   18   38 1   
    42   21   28 1   
    43   21   42 1   
    44   22   39 1   
    45   23   31 1   
@<TRIPOS>SUBSTRUCTURE
     1 B4W         1 TEMP              0 ****  ****    0 ROOT
