@<TRIPOS>MOLECULE
B50
   75    70     1     0     0
SMALL
bcc


@<TRIPOS>ATOM
      1 CAA         2.5220   -1.2200    0.1230 c3        1 B50     -0.101000
      2 OAB         6.6280    3.1110    7.2090 o         1 B50     -0.277000
      3 OAC         5.2040    2.0190    9.8870 oh        1 B50     -0.329000
      4 OAD         7.0220    3.8860   12.3990 oh        1 B50     -0.301000
      5 CAF         8.5860    7.6360    2.0250 c3        1 B50     -0.124000
      6 CAG         9.5850    6.8040    2.7860 c2        1 B50     -0.123000
      7 CAH         7.2040    7.1030    2.2790 c2        1 B50     -0.112000
      8 CAI         9.2770    6.1120    3.9060 c2        1 B50     -0.149000
      9 CAJ         7.0580    6.6650    3.5220 c1        1 B50     -0.219000
     10 CAK         9.7920   10.8660    7.2040 c3        1 B50     -0.153000
     11 CAL         9.1910   10.6580    4.7400 c3        1 B50     -0.153000
     12 CAM         9.0210    9.6620    7.5380 c1        1 B50     -0.071000
     13 CAN         8.7500    9.3400    5.2000 c1        1 B50     -0.071000
     14 CAO         7.8500    7.1300    8.0920 c2        1 B50     -0.013000
     15 CAP         6.0860    2.2660   10.9560 c3        1 B50     -0.011000
     16 CAQ         4.2020    4.9390    2.3870 c3        1 B50     -0.270000
     17 CAR         6.0500    3.5660    3.9900 c1        1 B50      0.052000
     18 CAT         4.8930    3.7100    1.9220 c2        1 B50      0.188000
     19 CAU         4.3220    0.1810    0.8320 c1        1 B50     -0.138000
     20 CAV         0.9060    2.2880    2.0260 c1        1 B50     -0.230500
     21 CAW         5.0590    1.3230    1.3920 c3        1 B50     -0.095000
     22 CAX         1.2420    1.9720    3.1310 c1        1 B50     -0.230500
     23 CAY         6.9550    5.1510    9.1800 c1        1 B50     -0.085000
     24 NAZ         6.4260    3.8190    5.0750 n2        1 B50     -0.284000
     25 CBA         6.7870    4.0490    6.4190 c2        1 B50      0.446000
     26 CBB        10.1670   10.9970    5.7730 c2        1 B50     -0.116000
     27 CBC         8.6620    8.8120    6.4310 c2        1 B50     -0.165000
     28 CBD         7.9370    6.3590    4.4830 c2        1 B50      0.056000
     29 CBE         8.1230    7.5180    6.7580 c2        1 B50     -0.046000
     30 CBF         7.7680    6.4160    5.9120 c2        1 B50      0.025000
     31 CBG         7.2820    5.3780    6.7490 c2        1 B50     -0.171000
     32 CBH         6.1440    3.7730   11.2900 c3        1 B50      0.101000
     33 NBI         3.0440    0.0000    0.7030 n7        1 B50     -0.164000
     34 NBJ         4.3480    2.5170    1.8750 n7        1 B50     -0.192000
     35 NBK         7.3510    5.8370    8.0900 na        1 B50      0.033000
     36 HAA         1.9270   -1.7720    0.8990 h1        1 B50      0.113333
     37 HAAA        1.8550   -0.9560   -0.7410 h1        1 B50      0.113333
     38 HAAB        3.3640   -1.8700   -0.2340 h1        1 B50      0.113333
     39 HOAC        5.6110    2.3840    9.0870 ho        1 B50      0.215000
     40 HAF         8.7910    7.5740    0.9240 hc        1 B50      0.123500
     41 HAG         9.9920    5.4900    4.4560 ha        1 B50      0.154000
     42 HAH         8.7080    8.7090    2.3420 hc        1 B50      0.123500
     43 HAI        10.6110    6.8210    2.3880 ha        1 B50      0.147000
     44 HAJ         6.4860    7.0280    1.4600 ha        1 B50      0.136000
     45 HAK         9.1520   11.7520    7.5080 hc        1 B50      0.168500
     46 HAL         8.2860   11.3340    4.7360 hc        1 B50      0.168500
     47 HAM        10.6990   10.8840    7.8770 hc        1 B50      0.168500
     48 HAN         9.6120   10.6530    3.7000 hc        1 B50      0.168500
     49 HAO         7.9920    7.7140    9.0090 h4        1 B50      0.220000
     50 HAPA        7.1170    1.8870   10.7310 h1        1 B50      0.110500
     51 HAQ         3.3820    4.7340    3.1200 hc        1 B50      0.145000
     52 HAQA        5.9150    3.8380    1.4930 h4        1 B50      0.192000
     53 HAR         3.7670    5.4700    1.4980 hc        1 B50      0.145000
     54 HARA        4.9540    5.6250    2.8690 hc        1 B50      0.145000
     55 HAS         6.9310    0.8780    8.0920 ha        1 B50      0.001400
     56 HASA        7.3870    1.1390    8.5200 ha        1 B50      0.001400
     57 HAT         7.2230    1.2630    3.7310 ha        1 B50      0.001400
     58 HATA        7.5120    0.6500    3.7520 ha        1 B50      0.001400
     59 HAU         5.7900    1.6420    0.5890 h1        1 B50      0.161000
     60 HAUA        5.6610    0.9130    2.2660 h1        1 B50      0.161000
     61 HAV         2.3320    0.6540    0.9840 hn        1 B50      0.174000
     62 HAVA        0.5660    2.5710    1.0580 ha        1 B50      0.236000
     63 HAW         0.2030    1.0150   -1.1470 ha        1 B50      0.001400
     64 HAWA        0.6240    1.0840   -0.6210 ha        1 B50      0.001400
     65 HAX         1.5070    1.6890    4.1220 ha        1 B50      0.236000
     66 HAXA        3.4320    2.3730    2.2720 hn        1 B50      0.253000
     67 HAY         4.4740    1.8070    7.1720 ha        1 B50      0.001400
     68 HAYA        4.7960    1.2780    7.4480 ha        1 B50      0.001400
     69 HNAZ        3.5120    2.8330    4.6670 ha        1 B50      0.001400
     70 HBH         5.1110    4.1360   11.5730 h1        1 B50      0.110000
     71 CAS         6.6040    4.5420   10.1510 c1        1 B50     -0.116000
     72 HOAD        6.9990    4.8050   12.6910 ho        1 B50      0.212000
     73 HAZ2        3.5080    2.6000    5.3040 ha        1 B50      0.001400
     74 ClAE       11.7740   11.1920    5.3720 cl        1 B50      0.069000
     75 HAP         5.6580    1.7140   11.8350 h1        1 B50      0.110500
@<TRIPOS>BOND
     1    1   33 1   
     2    1   36 1   
     3    1   37 1   
     4    1   38 1   
     5    2   25 1   
     6    3   15 1   
     7    3   39 1   
     8    4   32 1   
     9    4   72 1   
    10    5    6 1   
    11    5    7 1   
    12    5   40 1   
    13    5   42 1   
    14    6    8 1   
    15    6   43 1   
    16    7    9 1   
    17    7   44 1   
    18    8   28 1   
    19    8   41 1   
    20    9   28 1   
    21   10   12 1   
    22   10   26 1   
    23   10   45 1   
    24   10   47 1   
    25   11   13 1   
    26   11   26 1   
    27   11   46 1   
    28   11   48 1   
    29   12   27 1   
    30   13   27 1   
    31   14   29 1   
    32   14   35 1   
    33   14   49 1   
    34   15   32 1   
    35   15   50 1   
    36   15   75 1   
    37   16   18 1   
    38   16   51 1   
    39   16   53 1   
    40   16   54 1   
    41   17   24 1   
    42   18   34 1   
    43   18   52 1   
    44   19   21 1   
    45   19   33 1   
    46   20   22 1   
    47   20   62 1   
    48   21   34 1   
    49   21   59 1   
    50   21   60 1   
    51   22   65 1   
    52   23   35 1   
    53   23   71 1   
    54   24   25 1   
    55   25   31 1   
    56   26   74 1   
    57   27   29 1   
    58   28   30 1   
    59   29   30 1   
    60   30   31 1   
    61   31   35 1   
    62   32   70 1   
    63   32   71 1   
    64   33   61 1   
    65   34   66 1   
    66   55   56 1   
    67   57   58 1   
    68   63   64 1   
    69   67   68 1   
    70   69   73 1   
@<TRIPOS>SUBSTRUCTURE
     1 B50         1 TEMP              0 ****  ****    0 ROOT
