@<TRIPOS>MOLECULE
B50
   74    77     1     0     0
SMALL
bcc


@<TRIPOS>ATOM
      1 CAA         9.5070   -2.9500    1.9970 c3        1 B50      0.157100
      2 OAB         1.2640    2.0560   -0.9600 o         1 B50     -0.638100
      3 OAC         0.2720    7.8820   -0.4780 oh        1 B50     -0.613800
      4 OAD        -1.0810    6.1430    1.1950 oh        1 B50     -0.611800
      5 CAF        -1.1650   -3.8830   -2.0840 ca        1 B50     -0.126000
      6 CAG        -1.4660   -2.7650   -2.8610 ca        1 B50     -0.133000
      7 CAH        -1.0290   -3.7520   -0.7020 ca        1 B50     -0.133000
      8 CAI        -1.6300   -1.5170   -2.2630 ca        1 B50     -0.119500
      9 CAJ        -1.1890   -2.5060   -0.0970 ca        1 B50     -0.119500
     10 CAK        -6.1110   -0.6510    1.9340 ca        1 B50     -0.123000
     11 CAL        -5.8580   -1.7680   -0.2050 ca        1 B50     -0.123000
     12 CAM        -4.8780   -0.0310    1.7500 ca        1 B50     -0.118000
     13 CAN        -4.6260   -1.1440   -0.3810 ca        1 B50     -0.118000
     14 CAO        -2.5620    1.7000    0.8750 cc        1 B50     -0.119300
     15 CAP        -0.2010    6.6550   -1.0120 c3        1 B50      0.092400
     16 CAQ         3.6380   -0.9520   -0.3010 c3        1 B50     -0.105400
     17 CAR         2.6740   -0.3420   -1.3230 c3        1 B50      0.089000
     18 CAT         5.0330   -1.0110   -0.9210 c3        1 B50      0.172800
     19 CAU         8.2860   -2.7720   -0.0750 c3        1 B50      0.167800
     20 CAV         7.2920   -1.9960    1.9840 c3        1 B50      0.167800
     21 CAW         7.2290   -1.9940   -0.8800 c3        1 B50      0.167300
     22 CAX         6.2290   -1.2240    1.1810 c3        1 B50      0.167300
     23 CAY        -0.6400    3.2960    0.8120 c3        1 B50      0.033300
     24 NAZ         1.3210   -0.2330   -0.8520 n         1 B50     -0.557900
     25 CBA         0.6910    0.9780   -0.6790 c         1 B50      0.702700
     26 CBB        -6.5990   -1.5200    0.9540 ca        1 B50      0.011400
     27 CBC        -4.1200   -0.2690    0.5920 ca        1 B50      0.007000
     28 CBD        -1.4910   -1.3780   -0.8740 ca        1 B50     -0.027000
     29 CBE        -2.8520    0.3970    0.4110 cd        1 B50     -0.111000
     30 CBF        -1.6650   -0.0820   -0.2450 cd        1 B50     -0.053000
     31 CBG        -0.6960    0.9460   -0.1570 cc        1 B50     -0.174900
     32 CBH        -0.2330    5.6660    0.1590 c3        1 B50      0.146100
     33 NBI         8.5280   -2.2020    1.2420 n3        1 B50     -0.732600
     34 NBJ         5.9900   -1.7840   -0.1410 n3        1 B50     -0.729600
     35 NBK        -1.2620    2.0260    0.5360 na        1 B50     -0.014100
     36 HAA        10.4580   -2.9980    1.4050 h1        1 B50      0.032033
     37 HAAA        9.7070   -2.4120    2.9600 h1        1 B50      0.032033
     38 HAAB        9.1820   -4.0000    2.2360 h1        1 B50      0.032033
     39 HOAC        0.2520    8.5240   -1.1960 ho        1 B50      0.410000
     40 HAF        -1.0390   -4.8670   -2.5590 ha        1 B50      0.134000
     41 HAG        -1.5760   -2.8660   -3.9510 ha        1 B50      0.134500
     42 HAH        -0.7960   -4.6330   -0.0860 ha        1 B50      0.134500
     43 HAI        -1.8690   -0.6360   -2.8770 ha        1 B50      0.142000
     44 HAJ        -1.0910   -2.4060    0.9950 ha        1 B50      0.142000
     45 HAK        -6.6940   -0.4580    2.8470 ha        1 B50      0.145500
     46 HAL        -6.2430   -2.4520   -0.9760 ha        1 B50      0.145500
     47 HAM        -4.4910    0.6490    2.5240 ha        1 B50      0.141000
     48 HAN        -4.0380   -1.3380   -1.2930 ha        1 B50      0.141000
     49 HAO        -3.2040    2.3970    1.4170 h4        1 B50      0.179000
     50 HAP        -1.2300    6.7900   -1.4370 h1        1 B50      0.038700
     51 HAPA        0.4940    6.2860   -1.8110 h1        1 B50      0.038700
     52 HAQ         3.6560   -0.3240    0.6270 hc        1 B50      0.053700
     53 HAQA        3.2980   -1.9790   -0.0110 hc        1 B50      0.053700
     54 HAR         3.0450    0.6820   -1.6160 h1        1 B50      0.061200
     55 HARA        2.6710   -0.9910   -2.2480 h1        1 B50      0.061200
     56 HAS        -0.2180    3.9870   -1.2120 hc        1 B50      0.072200
     57 HASA       -1.8680    4.4510   -0.5880 hc        1 B50      0.072200
     58 HAT         4.9540   -1.5060   -1.9320 h1        1 B50      0.033200
     59 HATA        5.3910    0.0480   -1.0910 h1        1 B50      0.033200
     60 HAU         7.9670   -3.8540   -0.0100 h1        1 B50      0.036450
     61 HAUA        9.2540   -2.7320   -0.6490 h1        1 B50      0.036450
     62 HAV         7.5400   -1.3880    2.8990 h1        1 B50      0.036450
     63 HAVA        6.8450   -2.9740    2.3290 h1        1 B50      0.036450
     64 HAW         7.6820   -1.0170   -1.2200 h1        1 B50      0.037450
     65 HAWA        6.9840   -2.6000   -1.7970 h1        1 B50      0.037450
     66 HAX         5.2630   -1.2820    1.7570 h1        1 B50      0.037450
     67 HAXA        6.5350   -0.1380    1.1250 h1        1 B50      0.037450
     68 HAY         0.4600    3.1170    0.9900 h1        1 B50      0.080200
     69 HAYA       -1.1020    3.7140    1.7530 h1        1 B50      0.080200
     70 HNAZ        0.8620   -1.0690   -0.5730 hn        1 B50      0.325500
     71 HBH         0.8100    5.5420    0.5670 h1        1 B50      0.053700
     72 CLAE       -8.1050   -2.2800    1.1740 cl        1 B50     -0.100400
     73 CAS        -0.7910    4.3270   -0.3080 c3        1 B50     -0.098400
     74 HOAD       -0.7980    7.0460    1.3910 ho        1 B50      0.422000
@<TRIPOS>BOND
     1    1   33 1   
     2    1   36 1   
     3    1   37 1   
     4    1   38 1   
     5    2   25 2   
     6    3   15 1   
     7    3   39 1   
     8    4   32 1   
     9    4   74 1   
    10    5    6 ar  
    11    5    7 ar  
    12    5   40 1   
    13    6    8 ar  
    14    6   41 1   
    15    7    9 ar  
    16    7   42 1   
    17    8   28 ar  
    18    8   43 1   
    19    9   28 ar  
    20    9   44 1   
    21   10   12 ar  
    22   10   26 ar  
    23   10   45 1   
    24   11   13 ar  
    25   11   26 ar  
    26   11   46 1   
    27   12   27 ar  
    28   12   47 1   
    29   13   27 ar  
    30   13   48 1   
    31   14   29 2   
    32   14   35 1   
    33   14   49 1   
    34   15   32 1   
    35   15   50 1   
    36   15   51 1   
    37   16   17 1   
    38   16   18 1   
    39   16   52 1   
    40   16   53 1   
    41   17   24 1   
    42   17   54 1   
    43   17   55 1   
    44   18   34 1   
    45   18   58 1   
    46   18   59 1   
    47   19   21 1   
    48   19   33 1   
    49   19   60 1   
    50   19   61 1   
    51   20   22 1   
    52   20   33 1   
    53   20   62 1   
    54   20   63 1   
    55   21   34 1   
    56   21   64 1   
    57   21   65 1   
    58   22   34 1   
    59   22   66 1   
    60   22   67 1   
    61   23   35 1   
    62   23   68 1   
    63   23   69 1   
    64   23   73 1   
    65   24   25 1   
    66   24   70 1   
    67   25   31 1   
    68   26   72 1   
    69   27   29 1   
    70   28   30 1   
    71   29   30 1   
    72   30   31 2   
    73   31   35 1   
    74   32   71 1   
    75   32   73 1   
    76   56   73 1   
    77   57   73 1   
@<TRIPOS>SUBSTRUCTURE
     1 B50         1 TEMP              0 ****  ****    0 ROOT
