@<TRIPOS>MOLECULE
B50
   74    70     1     0     0
SMALL
bcc


@<TRIPOS>ATOM
      1 CAA        -5.8070   -3.7680   -5.4410 c3        1 B50      0.158100
      2 OAB         0.3990   -1.7100    1.6820 o         1 B50     -0.629100
      3 OAC         8.1400    0.1290   -1.6630 oh        1 B50     -0.612800
      4 OAD         6.4220    0.9180    0.3130 oh        1 B50     -0.613800
      5 CLAE        3.2310    8.0980    3.4330 cl        1 B50     -0.114900
      6 CAF        -1.8050    1.8450    5.1150 c1        1 B50     -0.065333
      7 CAG        -0.5910    1.2030    5.3020 c1        1 B50     -0.065333
      8 CAH        -2.1330    2.3630    3.8680 c1        1 B50     -0.065333
      9 CAI         0.2980    1.0770    4.2430 c1        1 B50     -0.065333
     10 CAJ        -1.2430    2.2370    2.8090 c1        1 B50     -0.082500
     11 CAK         3.2560    5.3980    3.7300 c1        1 B50     -0.066500
     12 CAL         2.0860    6.2440    1.8120 c1        1 B50     -0.065333
     13 CAM         2.8500    4.1070    3.4090 c1        1 B50     -0.065500
     14 CAN         1.6800    4.9540    1.4910 c1        1 B50     -0.065333
     15 CAO         2.9030    1.9770    0.7360 c1        1 B50     -0.019900
     16 CAP         6.7430    0.1870   -1.9310 c3        1 B50      0.091400
     17 CAQ        -2.6490   -2.0730   -0.5690 c3        1 B50     -0.107400
     18 CAR        -1.1050   -2.0580   -0.7300 c3        1 B50      0.080000
     19 CAS         4.4900    0.2190   -0.8980 c3        1 B50     -0.100400
     20 CAT        -3.3030   -2.6400   -1.8650 c3        1 B50      0.166800
     21 CAU        -4.5960   -4.6360   -3.6340 c3        1 B50      0.134800
     22 CAV        -5.8420   -2.6300   -3.3940 c3        1 B50      0.134800
     23 CAW        -4.4110   -4.7020   -2.1270 c3        1 B50      0.163300
     24 CAX        -5.6590   -2.6950   -1.8880 c3        1 B50      0.163300
     25 CAY         3.7000   -0.0590    0.3870 c3        1 B50      0.024300
     26 NAZ        -0.5700   -0.7880   -0.2190 n         1 B50     -0.546900
     27 CBA         0.3870   -0.7880    0.8910 c         1 B50      0.695300
     28 CBB         2.8730    6.4650    2.9310 c1        1 B50      0.021900
     29 CBC         2.0640    3.8860    2.2920 cg        1 B50     -0.021300
     30 CBD        -0.0290    1.5940    2.9960 cg        1 B50     -0.056300
     31 CBE         2.0270    2.4770    1.6850 ce        1 B50     -0.149800
     32 CBF         1.0640    1.5290    1.9120 ce        1 B50     -0.021700
     33 CBG         1.3420    0.4360    1.1020 cf        1 B50     -0.178300
     34 CBH         5.9710   -0.0020   -0.6400 c3        1 B50      0.143100
     35 NBI        -5.7680   -3.9160   -4.0070 n3        1 B50     -0.730600
     36 NBJ        -4.4840   -3.4160   -1.5140 n3        1 B50     -0.719600
     37 NBK         2.4760    0.7200    0.3810 nh        1 B50     -0.034600
     38 HAA        -5.0920   -3.1620   -5.7270 h1        1 B50      0.031700
     39 HAAA       -6.6800   -3.3960   -5.7090 h1        1 B50      0.031700
     40 HAAB       -5.6810   -4.6530   -5.8670 h1        1 B50      0.031700
     41 HOAC        8.5930    0.1670   -2.4330 ho        1 B50      0.411000
     42 HOAD        7.0800    0.5570    0.7820 ho        1 B50      0.425000
     43 HAF        -2.4310    1.9340    5.8600 ha        1 B50      0.082000
     44 HAG        -0.3600    0.8380    6.1820 ha        1 B50      0.082000
     45 HAH        -2.9880    2.8150    3.7370 ha        1 B50      0.082000
     46 HAI         1.1520    0.6250    4.3750 ha        1 B50      0.082000
     47 HAJ        -1.4730    2.6000    1.9340 ha        1 B50      0.081500
     48 HAK         3.8080    5.5520    4.5150 ha        1 B50      0.086500
     49 HAL         1.8150    6.9960    1.2480 ha        1 B50      0.082000
     50 HAM         3.1210    3.3540    3.9740 ha        1 B50      0.080500
     51 HAN         1.1270    4.7990    0.7050 ha        1 B50      0.082000
     52 HAO         3.7080    2.4260    0.4050 DU        1 B50      0.198000
     53 HAP         6.5230    1.0550   -2.3180 h1        1 B50      0.037700
     54 HAPA        6.5030   -0.5190   -2.5600 h1        1 B50      0.037700
     55 HAQ        -2.9690   -1.1630   -0.4150 hc        1 B50      0.055200
     56 HAQA       -2.8920   -2.6350    0.1890 hc        1 B50      0.055200
     57 HAR        -0.8740   -2.1520   -1.6760 h1        1 B50      0.060700
     58 HARA       -0.7170   -2.8020   -0.2250 h1        1 B50      0.060700
     59 HAS         4.3430    1.1400   -1.1780 hc        1 B50      0.065200
     60 HASA        4.1890   -0.3880   -1.6040 hc        1 B50      0.065200
     61 HAT        -2.6590   -3.2170   -2.3320 h1        1 B50      0.031700
     62 HATA       -3.5630   -1.8950   -2.4550 h1        1 B50      0.031700
     63 HAU        -3.8120   -4.1950   -4.0310 h1        1 B50      0.032950
     64 HAUA       -4.6590   -5.5480   -3.9860 h1        1 B50      0.032950
     65 HAV        -5.1420   -2.0570   -3.7740 h1        1 B50      0.032950
     66 HAVA       -6.7140   -2.2360   -3.5900 h1        1 B50      0.032950
     67 HAW        -3.5370   -5.0950   -1.9320 h1        1 B50      0.059200
     68 HAWA       -5.1110   -5.2760   -1.7450 h1        1 B50      0.059200
     69 HAX        -6.4450   -3.1360   -1.4890 h1        1 B50      0.059200
     70 HAXA       -5.5960   -1.7820   -1.5370 h1        1 B50      0.059200
     71 HAY         3.4800   -1.0130    0.4350 h1        1 B50      0.088700
     72 HAYA        4.2450    0.1920    1.1680 h1        1 B50      0.088700
     73 HNAZ       -0.8050   -0.0060   -0.6140 hn        1 B50      0.317500
     74 HBH         6.1110   -0.9050   -0.3100 h1        1 B50      0.050700
@<TRIPOS>BOND
     1    1   35 1   
     2    1   38 1   
     3    1   39 1   
     4    1   40 1   
     5    2   27 2   
     6    3   16 1   
     7    3   41 1   
     8    4   34 1   
     9    4   42 1   
    10    5   28 1   
    11    6    8 3   
    12    6   43 1   
    13    7    9 3   
    14    7   44 1   
    15    8   45 1   
    16    9   46 1   
    17   10   30 3   
    18   10   47 1   
    19   11   28 3   
    20   11   48 1   
    21   12   14 3   
    22   12   49 1   
    23   13   29 3   
    24   13   50 1   
    25   14   51 1   
    26   15   31 2   
    27   15   37 2   
    28   16   34 1   
    29   16   53 1   
    30   16   54 1   
    31   17   18 1   
    32   17   20 1   
    33   17   55 1   
    34   17   56 1   
    35   18   26 1   
    36   18   57 1   
    37   18   58 1   
    38   19   25 1   
    39   19   34 1   
    40   19   59 1   
    41   19   60 1   
    42   20   36 1   
    43   20   61 1   
    44   20   62 1   
    45   21   23 1   
    46   21   35 1   
    47   21   63 1   
    48   21   64 1   
    49   22   24 1   
    50   22   35 1   
    51   22   65 1   
    52   22   66 1   
    53   23   36 1   
    54   23   67 1   
    55   23   68 1   
    56   24   36 1   
    57   24   69 1   
    58   24   70 1   
    59   25   37 1   
    60   25   71 1   
    61   25   72 1   
    62   26   27 1   
    63   26   73 1   
    64   27   33 1   
    65   29   31 1   
    66   30   32 1   
    67   31   32 1   
    68   32   33 2   
    69   33   37 1   
    70   34   74 1   
@<TRIPOS>SUBSTRUCTURE
     1 B50         1 TEMP              0 ****  ****    0 ROOT
