@<TRIPOS>MOLECULE
B50
   74    70     1     0     0
SMALL
bcc


@<TRIPOS>ATOM
      1 CAA         2.2830    0.7310   -1.4700 c3        1 B50     -0.091000
      2 OAB         6.8030    3.3650    6.0260 o         1 B50     -0.263000
      3 OAC         6.6940    2.5940   12.1950 oh        1 B50     -0.326000
      4 OAD         4.9230    4.0620   11.1710 oh        1 B50     -0.314000
      5 CAF         9.3180    7.9660    1.6960 c3        1 B50     -0.113000
      6 CAG         9.4670    6.5560    2.2100 c2        1 B50     -0.136000
      7 CAH         7.9390    8.4650    2.0330 c2        1 B50     -0.121000
      8 CAI         8.7430    6.0510    3.2330 c2        1 B50     -0.136000
      9 CAJ         7.5350    8.0170    3.2110 c1        1 B50     -0.147000
     10 CAK         8.6070   11.6020    6.9420 c3        1 B50     -0.137500
     11 CAL        10.4400   10.5960    5.4720 c3        1 B50     -0.137500
     12 CAM         8.2440   10.1900    6.9550 c1        1 B50     -0.049500
     13 CAN         9.7370    9.3060    5.3530 c1        1 B50     -0.049500
     14 CAO         7.6980    7.2300    7.6780 c2        1 B50     -0.072000
     15 CAP         6.8000    2.5730   10.7880 c3        1 B50     -0.051000
     16 CAQ         4.6310    3.7160    2.3700 c3        1 B50     -0.230000
     17 CAR         5.3600    3.5820    3.6550 c1        1 B50     -0.120000
     18 CAT         4.3840    2.4180    1.6780 c1        1 B50     -0.180000
     19 CAU         3.6300   -0.0990    0.3210 c1        1 B50     -0.163000
     20 CAV         0.9470    1.2960    4.3530 c1        1 B50     -0.223000
     21 CAW         4.4710   -0.0030    1.5440 c3        1 B50     -0.065000
     22 CAX         1.8960    1.4380    5.0660 c1        1 B50     -0.223000
     23 CAY         6.6690    5.1360    8.3840 c1        1 B50     -0.051000
     24 NAZ         5.9850    4.6000    4.2200 n         1 B50     -0.226000
     25 CBA         6.6590    4.4590    5.4700 c2        1 B50      0.382000
     26 CBB        10.0270   11.4330    6.6270 c2        1 B50     -0.175000
     27 CBC         8.6690    9.1010    6.3050 c2        1 B50     -0.132000
     28 CBD         7.9030    7.0030    3.9980 c2        1 B50      0.006000
     29 CBE         8.0600    7.8010    6.4460 c2        1 B50     -0.037000
     30 CBF         7.7210    6.8520    5.4130 c2        1 B50      0.012000
     31 CBG         7.1620    5.7230    6.0520 c2        1 B50     -0.138000
     32 CBH         5.6890    3.4390   10.1540 c3        1 B50      0.106000
     33 NBI         3.1090    0.9200   -0.3070 n3        1 B50     -0.186000
     34 NBJ         4.7210    1.2710    2.2000 n3        1 B50     -0.188000
     35 NBK         7.1630    5.9610    7.4440 na        1 B50      0.018000
     36 HAA         2.7000    1.3220   -2.3280 h1        1 B50      0.086000
     37 HAAA        1.2420    1.0920   -1.2510 h1        1 B50      0.086000
     38 HAAB        2.2440   -0.3540   -1.7520 h1        1 B50      0.086000
     39 HOAC        5.8130    2.2680   12.4250 ho        1 B50      0.211000
     40 HAF         9.4280    7.9790    0.5800 hc        1 B50      0.115500
     41 HAG         8.8400    5.0210    3.5950 ha        1 B50      0.144000
     42 HAH        10.1380    8.5940    2.1360 hc        1 B50      0.115500
     43 HAI        10.2390    5.9550    1.7070 ha        1 B50      0.137000
     44 HAJ         7.3510    9.0150    1.2950 ha        1 B50      0.150000
     45 HAK         8.0090   12.1160    6.1370 hc        1 B50      0.159750
     46 HAL        10.2410   11.1530    4.5060 hc        1 B50      0.159750
     47 HAM         8.4120   12.1380    7.9080 hc        1 B50      0.159750
     48 HAN        11.5460   10.3760    5.4960 hc        1 B50      0.159750
     49 HAO         7.7810    7.6340    8.6890 h4        1 B50      0.188000
     50 HAP         6.7280    1.5240   10.3970 h1        1 B50      0.103000
     51 HAPA        7.8220    2.9830   10.5720 h1        1 B50      0.103000
     52 HAQ         5.0380    1.1060    5.5950 ha        1 B50      0.000500
     53 HAQA        5.2640    1.6910    5.3320 ha        1 B50      0.000500
     54 HAR         3.6130    4.1570    2.5810 hc        1 B50      0.122500
     55 HARA        5.1360    4.3920    1.6240 hc        1 B50      0.122500
     56 HAS         6.4840    1.8310    8.0710 ha        1 B50      0.000500
     57 HASA        6.4140    1.5160    7.4740 ha        1 B50      0.000500
     58 HAT         5.8050   -0.9950    3.8090 ha        1 B50      0.000500
     59 HATA        5.8510   -0.6480    4.3900 ha        1 B50      0.000500
     60 HAU         5.4710   -0.4550    1.2680 h1        1 B50      0.115000
     61 HAUA        3.9820   -0.6870    2.3020 h1        1 B50      0.115000
     62 HAV         3.2440    1.8830   -0.0180 hn        1 B50      0.228000
     63 HAVA        0.1100    1.1670    3.7140 ha        1 B50      0.221500
     64 HAW        -0.0060    1.2510    0.7800 ha        1 B50      0.000500
     65 HAWA       -0.2210    1.2730    1.4220 ha        1 B50      0.000500
     66 HAX         2.7470    1.5660    5.6910 ha        1 B50      0.221500
     67 HAXA        5.1600    1.1950    3.1070 hn        1 B50      0.194000
     68 HAY         3.5340    1.8260    7.9600 ha        1 B50      0.000500
     69 HAYA        4.1050    1.7670    7.6000 ha        1 B50      0.000500
     70 HNAZ        6.0220    5.5270    3.8270 hn        1 B50      0.191000
     71 HBH         4.9390    2.7820    9.6110 h1        1 B50      0.145000
     72 CLAE       11.1800   11.8700    7.7600 cl        1 B50      0.034000
     73 CAS         6.2340    4.3830    9.2090 c1        1 B50     -0.141000
     74 HOAD        5.5300    4.5690   11.7280 ho        1 B50      0.216000
@<TRIPOS>BOND
     1    1   33 1   
     2    1   36 1   
     3    1   37 1   
     4    1   38 1   
     5    2   25 1   
     6    3   15 1   
     7    3   39 1   
     8    4   32 1   
     9    4   74 1   
    10    5    6 1   
    11    5    7 1   
    12    5   40 1   
    13    5   42 1   
    14    6    8 1   
    15    6   43 1   
    16    7    9 1   
    17    7   44 1   
    18    8   28 1   
    19    8   41 1   
    20    9   28 1   
    21   10   12 1   
    22   10   26 1   
    23   10   45 1   
    24   10   47 1   
    25   11   13 1   
    26   11   26 1   
    27   11   46 1   
    28   11   48 1   
    29   12   27 1   
    30   13   27 1   
    31   14   29 1   
    32   14   35 1   
    33   14   49 1   
    34   15   32 1   
    35   15   50 1   
    36   15   51 1   
    37   16   17 1   
    38   16   18 1   
    39   16   54 1   
    40   16   55 1   
    41   17   24 1   
    42   18   34 1   
    43   19   21 1   
    44   19   33 1   
    45   20   22 1   
    46   20   63 1   
    47   21   34 1   
    48   21   60 1   
    49   21   61 1   
    50   22   66 1   
    51   23   35 1   
    52   23   73 1   
    53   24   25 1   
    54   24   70 1   
    55   25   31 1   
    56   26   72 1   
    57   27   29 1   
    58   28   30 1   
    59   29   30 1   
    60   30   31 1   
    61   31   35 1   
    62   32   71 1   
    63   32   73 1   
    64   33   62 1   
    65   34   67 1   
    66   52   53 1   
    67   56   57 1   
    68   58   59 1   
    69   64   65 1   
    70   68   69 1   
@<TRIPOS>SUBSTRUCTURE
     1 B50         1 TEMP              0 ****  ****    0 ROOT
