@<TRIPOS>MOLECULE
B52
   29    29     1     0     0
SMALL
bcc


@<TRIPOS>ATOM
      1 C2         -0.0860    0.0200   -0.4080 cc        1 B52      0.426600
      2 C3         -0.7790    0.6950   -2.5510 cd        1 B52      0.698800
      3 C4          1.2660    1.6930   -1.6290 c         1 B52      0.742700
      4 C1          1.0440    0.8740   -0.4530 cd        1 B52     -0.426400
      5 C17         2.4670   -1.9790    7.2210 c         1 B52      0.902400
      6 O19         1.5200   -2.2320    6.4190 o         1 B52     -0.881800
      7 C15         2.4680    0.0610    2.9750 ce        1 B52     -0.329600
      8 C16         2.2790   -0.6280    4.1080 c2        1 B52     -0.084000
      9 C11         1.5910    0.0330    1.8100 cc        1 B52      0.398600
     10 C12         1.9760    0.9290    0.6640 c         1 B52      0.487000
     11 O13         2.9910    1.6340    0.6930 o         1 B52     -0.528100
     12 N3          0.5220   -0.7450    1.7860 nd        1 B52     -0.414400
     13 N4         -0.2940   -0.7740    0.7210 na        1 B52     -0.299500
     14 C14        -1.4490   -1.6610    0.7870 c3        1 B52      0.231100
     15 O4          2.1880    2.4910   -1.8550 o         1 B52     -0.601500
     16 N1         -1.0130   -0.0530   -1.4550 nc        1 B52     -0.734300
     17 N6         -1.6400    0.5430   -3.6680 nh        1 B52     -0.894800
     18 N2          0.2950    1.5790   -2.6700 n         1 B52     -0.515400
     19 H15         2.4570   -2.4680    8.2390 h5        1 B52     -0.124800
     20 H16         3.3390    0.7280    2.8460 ha        1 B52      0.144000
     21 H16A        1.4310   -1.3070    4.3020 ha        1 B52      0.180500
     22 H16B        2.9720   -0.5750    4.9750 ha        1 B52      0.180500
     23 H14        -1.4530   -2.2290    1.7560 h1        1 B52      0.057367
     24 H14A       -2.3880   -1.0520    0.7130 h1        1 B52      0.057367
     25 H14B       -1.4040   -2.3870   -0.0670 h1        1 B52      0.057367
     26 HN6        -2.4490   -0.0130   -3.4890 hn        1 B52      0.412800
     27 HN6A       -1.8340    1.3830   -4.1640 hn        1 B52      0.412800
     28 HN2         0.4560    2.0820   -3.5140 hn        1 B52      0.327500
     29 O18         3.4250   -1.2010    6.9340 o         1 B52     -0.881800
@<TRIPOS>BOND
     1    1    4 2   
     2    1   13 1   
     3    1   16 1   
     4    2   16 2   
     5    2   17 1   
     6    2   18 1   
     7    3    4 1   
     8    3   15 2   
     9    3   18 1   
    10    4   10 1   
    11    5    6 1   
    12    5   19 1   
    13    5   29 1   
    14    7    8 2   
    15    7    9 1   
    16    7   20 1   
    17    8   21 1   
    18    8   22 1   
    19    9   10 1   
    20    9   12 2   
    21   10   11 2   
    22   12   13 1   
    23   13   14 1   
    24   14   23 1   
    25   14   24 1   
    26   14   25 1   
    27   17   26 1   
    28   17   27 1   
    29   18   28 1   
@<TRIPOS>SUBSTRUCTURE
     1 B52         1 TEMP              0 ****  ****    0 ROOT
