@<TRIPOS>MOLECULE
B52
   29    26     1     0     0
SMALL
bcc


@<TRIPOS>ATOM
      1 C2         -0.4860   -0.5350   -0.7840 c1        1 B52      0.198000
      2 C3         -0.4230   -0.4700   -3.3100 c1        1 B52      0.240000
      3 C4          1.7100   -0.4680   -2.0390 c1        1 B52      0.382000
      4 C1          0.9370   -0.5180   -0.7540 c1        1 B52     -0.375000
      5 O18         2.8250    1.2180    2.3610 o         1 B52     -0.560500
      6 C17         1.6880    1.6830    2.1060 c2        1 B52      0.352000
      7 O19         1.5830    2.8000    1.5850 o         1 B52     -0.560500
      8 C15         0.4600    0.8200    2.2970 c3        1 B52     -0.154000
      9 C16         0.0630    0.8240    3.7610 c3        1 B52     -0.182000
     10 C11         0.7650   -0.5860    1.8610 c2        1 B52     -0.029000
     11 C12         1.6790   -0.5460    0.6000 c2        1 B52      0.311000
     12 O13         2.2150   -1.6380    0.4670 o         1 B52     -0.293000
     13 N3         -0.5880   -1.0040    1.5830 n1        1 B52     -0.045000
     14 N4         -1.2120   -0.5830    0.4340 n1        1 B52     -0.144000
     15 C14        -2.6220   -0.3510    0.4340 c3        1 B52     -0.045000
     16 O4          2.9140   -0.4580   -2.0180 o         1 B52     -0.333000
     17 N1         -1.1840   -0.5100   -2.0670 n2        1 B52     -0.302000
     18 N6         -1.0890   -0.5210   -4.5460 n2        1 B52     -0.329000
     19 N2          1.0260   -0.4390   -3.2780 n3        1 B52     -0.354000
     20 H15        -0.2860    1.1800    1.7510 hc        1 B52      0.099000
     21 H16         0.8030    0.5070    4.2970 hc        1 B52      0.071000
     22 H16A       -0.7060    0.2390    3.8910 hc        1 B52      0.071000
     23 H16B       -0.1650    1.7160    4.0280 hc        1 B52      0.071000
     24 H14        -3.0720   -1.0620   -0.0770 h1        1 B52      0.090667
     25 H14A       -2.8110    0.5250    0.0180 h1        1 B52      0.090667
     26 H14B       -2.9600   -0.3530    1.3780 h1        1 B52      0.090667
     27 HN6        -0.6290   -0.8010   -5.3140 hn        1 B52      0.200000
     28 HN6A       -1.9330   -0.2540   -4.6070 hn        1 B52      0.200000
     29 HN2         1.4980   -0.4140   -4.0580 hn        1 B52      0.238000
@<TRIPOS>BOND
     1    1    4 1   
     2    1   17 1   
     3    2   17 1   
     4    2   19 1   
     5    3   16 1   
     6    3   19 1   
     7    4   11 1   
     8    5    6 1   
     9    6    7 1   
    10    6    8 1   
    11    8    9 1   
    12    8   10 1   
    13    8   20 1   
    14    9   21 1   
    15    9   22 1   
    16    9   23 1   
    17   10   11 1   
    18   10   13 1   
    19   11   12 1   
    20   14   15 1   
    21   15   24 1   
    22   15   25 1   
    23   15   26 1   
    24   18   27 1   
    25   18   28 1   
    26   19   29 1   
@<TRIPOS>SUBSTRUCTURE
     1 B52         1 TEMP              0 ****  ****    0 ROOT
