@<TRIPOS>MOLECULE
B52
   30    38     1     0     0
SMALL
bcc


@<TRIPOS>ATOM
      1 C2          0.0000    0.0000    0.0000 c2        1 B52     -0.051000
      2 C3         -0.0110    0.0120   -2.3150 DU        1 B52     -0.389000
      3 C4          2.1050    0.0010   -1.2840 c2        1 B52      0.368000
      4 C1          1.4060    0.0000    0.0000 c2        1 B52     -0.398000
      5 C17         2.8170   -1.2870    3.9270 c3        1 B52      0.465000
      6 O19         3.5310   -1.5100    5.0430 o         1 B52     -0.485000
      7 C15         2.0510    0.0000    3.7670 DU        1 B52     -0.242000
      8 C16         1.0230    0.1260    4.8940 c3        1 B52     -0.340000
      9 C11         1.3420    0.0000    2.4370 c2        1 B52     -0.137000
     10 C12         2.0990    0.0000    1.2340 c2        1 B52      0.341000
     11 O13         3.3190    0.0010    1.2640 o         1 B52     -0.263000
     12 N3          0.0420   -0.0010    2.3990 n2        1 B52     -0.072000
     13 N4         -0.6640   -0.0010    1.1920 na        1 B52      0.197000
     14 C14        -2.1300   -0.0020    1.2080 c3        1 B52     -0.193000
     15 O4          3.3220    0.0010   -1.3420 o         1 B52     -0.270000
     16 N1         -0.6510    0.0050   -1.1650 n2        1 B52     -0.105000
     17 N6         -0.7430    0.0180   -3.4690 nz        1 B52     -0.160000
     18 N2          1.3460    0.0130   -2.4060 ns        1 B52      0.011000
     19 H15         2.2380   -1.0280    3.4820 DU        1 B52      0.407000
     20 H16         1.8870    0.4860    4.3490 DU        1 B52      0.200000
     21 H16A        0.4280    1.0190    4.7420 hc        1 B52      0.083500
     22 H16B        1.5360    0.1900    5.8450 hc        1 B52      0.083500
     23 H14        -1.5290   -0.1810    2.0920 h1        1 B52      0.112000
     24 H14A       -2.4970    0.8660    0.6750 h1        1 B52      0.112000
     25 H14B       -2.4950   -0.9020    0.7280 h1        1 B52      0.112000
     26 HN6        -1.0350    0.0200   -2.5120 DU        1 B52      0.362000
     27 HN6A       -1.7060    0.2920   -3.4470 hn        1 B52      0.179000
     28 HN2         0.7050   -0.0370   -3.1720 DU        1 B52      0.184000
     29 H63         0.2510    0.1070   -3.4030 DU        1 B52      0.316000
     30 O18         2.7950   -2.1170    3.0500 oh        1 B52     -0.427000
@<TRIPOS>BOND
     1    1    4 1   
     2    1   13 1   
     3    1   16 1   
     4    2   16 1   
     5    2   17 1   
     6    2   18 1   
     7    2   26 1   
     8    2   28 1   
     9    2   29 1   
    10    3    4 1   
    11    3   15 1   
    12    3   18 1   
    13    4   10 1   
    14    5    6 1   
    15    5    7 1   
    16    5   19 1   
    17    5   30 1   
    18    7    8 1   
    19    7    9 1   
    20    7   19 1   
    21    7   20 1   
    22    8   20 1   
    23    8   21 1   
    24    8   22 1   
    25    9   10 1   
    26    9   12 1   
    27   10   11 1   
    28   12   13 1   
    29   13   14 1   
    30   14   23 1   
    31   14   24 1   
    32   14   25 1   
    33   17   26 1   
    34   17   27 1   
    35   17   29 1   
    36   18   28 1   
    37   19   30 1   
    38   28   29 1   
@<TRIPOS>SUBSTRUCTURE
     1 B52         1 TEMP              0 ****  ****    0 ROOT
