@<TRIPOS>MOLECULE
B52
   29    30     1     0     0
SMALL
bcc


@<TRIPOS>ATOM
      1 C2         -1.3880    0.7630   -0.0010 cc        1 B52      0.423600
      2 C3         -3.6090    0.0040    0.1350 cd        1 B52      0.686800
      3 C4         -1.8960   -1.5680   -0.6510 c         1 B52      0.742700
      4 C1         -0.9370   -0.4980   -0.4600 cd        1 B52     -0.414400
      5 C17         3.4340    0.3000    1.0610 c         1 B52      0.931600
      6 O19         2.6470    0.2480    2.0430 o         1 B52     -0.829300
      7 C15         2.8320    0.2390   -0.3830 c3        1 B52     -0.241000
      8 C16         3.5380    1.2240   -1.2820 c3        1 B52     -0.061100
      9 C11         1.3460    0.4520   -0.3610 cc        1 B52      0.393300
     10 C12         0.4810   -0.7250   -0.7150 c         1 B52      0.492000
     11 O13         0.9410   -1.7600   -1.2100 o         1 B52     -0.533100
     12 N3          0.8580    1.6170    0.0070 nd        1 B52     -0.396400
     13 N4         -0.4720    1.8140    0.1090 na        1 B52     -0.299500
     14 C14        -0.9060    3.0830    0.6840 c3        1 B52      0.231100
     15 O4         -1.7050   -2.7200   -1.0720 o         1 B52     -0.608500
     16 N1         -2.7310    1.0070    0.3170 nc        1 B52     -0.730300
     17 N6         -4.9920    0.2610    0.3610 nh        1 B52     -0.888800
     18 N2         -3.2510   -1.2670   -0.3150 n         1 B52     -0.514400
     19 H15         3.0230   -0.8060   -0.7550 hc        1 B52      0.077700
     20 H16         3.3680    2.2740   -0.9430 hc        1 B52      0.026033
     21 H16A        4.6370    1.0200   -1.2370 hc        1 B52      0.026033
     22 H16B        3.1890    1.1280   -2.3380 hc        1 B52      0.026033
     23 H14        -1.2900    2.9250    1.7260 h1        1 B52      0.051700
     24 H14A       -0.0500    3.8080    0.7180 h1        1 B52      0.051700
     25 H14B       -1.7220    3.5040    0.0420 h1        1 B52      0.051700
     26 HN6        -5.1680    1.1540    0.7730 hn        1 B52      0.404300
     27 HN6A       -5.4680   -0.4800    0.8290 hn        1 B52      0.404300
     28 HN2        -3.9390   -1.9690   -0.4720 hn        1 B52      0.324500
     29 O18         4.6910    0.3690    1.1410 o         1 B52     -0.829300
@<TRIPOS>BOND
     1    1    4 2   
     2    1   13 1   
     3    1   16 1   
     4    2   16 2   
     5    2   17 1   
     6    2   18 1   
     7    3    4 1   
     8    3   15 2   
     9    3   18 1   
    10    4   10 1   
    11    5    6 1   
    12    5    7 1   
    13    5   29 1   
    14    7    8 1   
    15    7    9 1   
    16    7   19 1   
    17    8   20 1   
    18    8   21 1   
    19    8   22 1   
    20    9   10 1   
    21    9   12 2   
    22   10   11 2   
    23   12   13 1   
    24   13   14 1   
    25   14   23 1   
    26   14   24 1   
    27   14   25 1   
    28   17   26 1   
    29   17   27 1   
    30   18   28 1   
@<TRIPOS>SUBSTRUCTURE
     1 B52         1 TEMP              0 ****  ****    0 ROOT
