@<TRIPOS>MOLECULE
B53
   16    13     1     0     0
SMALL
bcc


@<TRIPOS>ATOM
      1 O10        -3.1780   -0.0990   -0.8010 o         1 B53     -0.217000
      2 N9         -1.9560   -0.0990   -0.8010 n1        1 B53      0.208000
      3 C4         -1.2480   -0.0990    0.4240 c1        1 B53     -0.473000
      4 C1         -0.5540    1.1900    0.7370 c2        1 B53      0.368000
      5 O2         -0.0530    1.2250    1.8400 o         1 B53     -0.325000
      6 C7         -0.4300   -1.1570    0.5060 c1        1 B53      0.311000
      7 N12        -0.5720   -2.0820    1.5720 n2        1 B53     -0.347000
      8 N6          0.8830   -0.9690   -0.1370 n2        1 B53     -0.345000
      9 C5          1.2000    0.5260   -0.6230 c1        1 B53      0.303000
     10 N8          1.9380    0.7430   -1.8150 n2        1 B53     -0.347000
     11 N3          0.2660    1.5590   -0.1350 n         1 B53     -0.354000
     12 HN12       -0.1800   -2.9040    1.5170 hn        1 B53      0.242250
     13 HN1A       -1.0900   -1.8710    2.2920 hn        1 B53      0.242250
     14 HN8         2.3520    0.0430   -2.2290 hn        1 B53      0.242250
     15 HN8A        2.0260    1.5870   -2.1500 hn        1 B53      0.242250
     16 H5          0.5960    2.4070   -0.1980 hn        1 B53      0.247000
@<TRIPOS>BOND
     1    1    2 1   
     2    3    4 1   
     3    3    6 1   
     4    4    5 1   
     5    4   11 1   
     6    6    8 1   
     7    7   12 1   
     8    7   13 1   
     9    8    9 1   
    10    9   11 1   
    11   10   14 1   
    12   10   15 1   
    13   11   16 1   
@<TRIPOS>SUBSTRUCTURE
     1 B53         1 TEMP              0 ****  ****    0 ROOT
