@<TRIPOS>MOLECULE
B53
   16    16     1     0     0
SMALL
bcc


@<TRIPOS>ATOM
      1 O10        -3.0550    0.2240   -0.0180 o         1 B53     -0.162700
      2 N9         -2.2300   -0.5950   -0.0150 n2        1 B53     -0.336000
      3 C4         -0.8490   -0.2580   -0.0080 cc        1 B53     -0.002500
      4 C1         -0.3860    1.1230   -0.0060 c         1 B53      0.729700
      5 O2         -1.0860    2.1470   -0.0120 o         1 B53     -0.600500
      6 C7          0.1310   -1.3040   -0.0020 cd        1 B53      0.533600
      7 N12        -0.2270   -2.6220   -0.0050 nh        1 B53     -0.829600
      8 N6          1.4980   -1.0380    0.0010 nd        1 B53     -0.773300
      9 C5          1.9050    0.2570    0.0290 cc        1 B53      0.749800
     10 N8          3.2750    0.5110    0.1380 nh        1 B53     -0.917800
     11 N3          1.0240    1.3370   -0.0000 n         1 B53     -0.514400
     12 HN12       -1.1840   -2.8740   -0.0120 hn        1 B53      0.454300
     13 HN1A        0.4600   -3.3360    0.0050 hn        1 B53      0.454300
     14 HN8         3.8890   -0.2640    0.0370 hn        1 B53      0.439800
     15 HN8A        3.6150    1.3940   -0.1580 hn        1 B53      0.439800
     16 H5          1.3510    2.2770    0.0450 hn        1 B53      0.333500
@<TRIPOS>BOND
     1    1    2 2   
     2    2    3 1   
     3    3    4 1   
     4    3    6 2   
     5    4    5 2   
     6    4   11 1   
     7    6    7 1   
     8    6    8 1   
     9    7   12 1   
    10    7   13 1   
    11    8    9 2   
    12    9   10 1   
    13    9   11 1   
    14   10   14 1   
    15   10   15 1   
    16   11   16 1   
@<TRIPOS>SUBSTRUCTURE
     1 B53         1 TEMP              0 ****  ****    0 ROOT
