@<TRIPOS>MOLECULE
B53
   18    18     1     0     0
SMALL
bcc


@<TRIPOS>ATOM
      1 O10         0.0380    0.0510   -0.2250 o         1 B53      0.073300
      2 N9          1.1730   -0.0280   -0.1780 n2        1 B53     -0.315000
      3 C4          1.8680   -0.0160    1.1360 cc        1 B53      0.256500
      4 C1          1.1110    0.1000    2.4090 c         1 B53      0.688700
      5 O2         -0.1040    0.1920    2.5190 o         1 B53     -0.413500
      6 C7          3.2450   -0.1120    1.1980 cd        1 B53      0.278600
      7 N12         4.0500   -0.2290   -0.0360 n4        1 B53     -0.709400
      8 N6          3.9720   -0.1070    2.3950 nd        1 B53     -0.634300
      9 C5          3.2690   -0.0020    3.5280 cc        1 B53      0.630800
     10 N8          4.0710    0.0010    4.7990 n4        1 B53     -0.810600
     11 N3          1.8980    0.1000    3.6150 n         1 B53     -0.464400
     12 HN12        5.0600   -0.2910    0.1720 hn        1 B53      0.500133
     13 HN1A        3.7600   -1.0770   -0.5490 hn        1 B53      0.500133
     14 HN8         5.0820   -0.0820    4.5860 hn        1 B53      0.508800
     15 HN8A        3.9110    0.8840    5.3100 hn        1 B53      0.508800
     16 H5          1.4020    0.1780    4.4880 hn        1 B53      0.391500
     17 H123        3.8810    0.6000   -0.6290 hn        1 B53      0.500133
     18 H83         3.7900   -0.7990    5.3900 hn        1 B53      0.508800
@<TRIPOS>BOND
     1    1    2 2   
     2    2    3 1   
     3    3    4 1   
     4    3    6 2   
     5    4    5 2   
     6    4   11 1   
     7    6    7 1   
     8    6    8 1   
     9    7   12 1   
    10    7   13 1   
    11    7   17 1   
    12    8    9 2   
    13    9   10 1   
    14    9   11 1   
    15   10   14 1   
    16   10   15 1   
    17   10   18 1   
    18   11   16 1   
@<TRIPOS>SUBSTRUCTURE
     1 B53         1 TEMP              0 ****  ****    0 ROOT
