@<TRIPOS>MOLECULE
B54
   40    41     1     0     0
SMALL
bcc


@<TRIPOS>ATOM
      1 O22         0.0000    0.0000    0.0000 o         1 B54     -0.569800
      2 C21         1.3480    0.0000    0.0000 c         1 B54      0.962200
      3 O23         1.9550    0.0000    1.0530 o         1 B54     -0.569800
      4 C18         2.0860   -0.0010   -1.2770 ca        1 B54     -0.168600
      5 C19         3.4840   -0.0010   -1.2770 ca        1 B54      0.000500
      6 C20         4.1690   -0.0020   -2.4720 ca        1 B54     -0.188000
      7 C17         1.3900   -0.0070   -2.4880 ca        1 B54      0.000500
      8 C16         2.0820   -0.0070   -3.6780 ca        1 B54     -0.188000
      9 C15         3.4730   -0.0030   -3.6750 ca        1 B54      0.147100
     10 O14         4.1520   -0.0030   -4.8500 os        1 B54     -0.301900
     11 C13         3.3730   -0.0030   -6.0490 c3        1 B54      0.219400
     12 C12         4.3060   -0.0040   -7.2620 c3        1 B54     -0.043400
     13 C11         3.4730   -0.0050   -8.5450 c3        1 B54     -0.043200
     14 N10         4.3660   -0.0050   -9.7070 ny        1 B54      0.271200
     15 C4          3.8450   -0.0060  -10.9700 cc        1 B54     -0.133400
     16 C5          4.7230    0.1060  -12.1480 cd        1 B54     -0.145600
     17 N9          6.0320    0.2090  -12.0240 nf        1 B54      0.049700
     18 O24         6.7230    0.3950  -13.0090 o         1 B54     -0.155300
     19 C2          4.0710    0.0970  -13.4750 c         1 B54      0.602700
     20 O8          4.7230    0.1840  -14.4980 o         1 B54     -0.545500
     21 N2          2.7250   -0.0140  -13.5120 ns        1 B54      0.028600
     22 C1          1.9990   -0.1110  -12.3690 cd        1 B54     -0.065200
     23 N1          2.5350   -0.1120  -11.1640 nc        1 B54     -0.432300
     24 N7          0.6450   -0.2180  -12.4720 nz        1 B54      0.244400
     25 H19         4.0270    0.0740   -0.3430 ha        1 B54      0.128500
     26 H20         5.2520   -0.0000   -2.4740 ha        1 B54      0.114000
     27 H17         0.3080   -0.0680   -2.4910 ha        1 B54      0.128500
     28 H16         1.5430   -0.0100   -4.6180 ha        1 B54      0.114000
     29 H13         2.7490   -0.8880   -6.0740 h1        1 B54      0.009200
     30 H13A        2.7480    0.8810   -6.0740 h1        1 B54      0.009200
     31 H12         4.9300    0.8810   -7.2380 hc        1 B54      0.044700
     32 H12A        4.9310   -0.8880   -7.2370 hc        1 B54      0.044700
     33 H11         2.8480   -0.8890   -8.5700 hx        1 B54      0.076700
     34 H11A        2.8480    0.8800   -8.5710 hx        1 B54      0.076700
     35 HN10        4.9430   -0.8190   -9.6300 hn        1 B54      0.231800
     36 HN7         0.4170   -0.9820  -13.0770 hn        1 B54      0.207800
     37 HN7A        0.2540   -0.3830  -11.5660 hn        1 B54      0.207800
     38 H15         2.2550   -0.0210  -14.3960 hn        1 B54      0.186500
     39 H102        4.9430    0.8090   -9.6310 hn        1 B54      0.231800
     40 H73         0.2710    0.6300  -12.8470 hn        1 B54      0.207800
@<TRIPOS>BOND
     1    1    2 1   
     2    2    3 1   
     3    2    4 1   
     4    4    5 ar  
     5    4    7 ar  
     6    5    6 ar  
     7    5   25 1   
     8    6    9 ar  
     9    6   26 1   
    10    7    8 ar  
    11    7   27 1   
    12    8    9 ar  
    13    8   28 1   
    14    9   10 1   
    15   10   11 1   
    16   11   12 1   
    17   11   29 1   
    18   11   30 1   
    19   12   13 1   
    20   12   31 1   
    21   12   32 1   
    22   13   14 1   
    23   13   33 1   
    24   13   34 1   
    25   14   15 1   
    26   14   35 1   
    27   14   39 1   
    28   15   16 2   
    29   15   23 1   
    30   16   17 1   
    31   16   19 1   
    32   17   18 2   
    33   19   20 2   
    34   19   21 1   
    35   21   22 1   
    36   21   38 1   
    37   22   23 2   
    38   22   24 1   
    39   24   36 1   
    40   24   37 1   
    41   24   40 1   
@<TRIPOS>SUBSTRUCTURE
     1 B54         1 TEMP              0 ****  ****    0 ROOT
