@<TRIPOS>MOLECULE
B54
   38    39     1     0     0
SMALL
bcc


@<TRIPOS>ATOM
      1 O22        -7.8980   -1.7210   -0.3610 o         1 B54     -0.830800
      2 C21        -7.5960   -0.5110   -0.5650 c         1 B54      0.909200
      3 O23        -8.3930    0.3550   -1.0240 o         1 B54     -0.830800
      4 C18        -6.1760   -0.0690   -0.2390 ca        1 B54     -0.141600
      5 C19        -5.7770    1.2530   -0.4630 ca        1 B54     -0.085500
      6 C20        -4.4750    1.6630   -0.1850 ca        1 B54     -0.194500
      7 C17        -5.2570   -0.9840    0.2820 ca        1 B54     -0.085500
      8 C16        -3.9500   -0.5950    0.5760 ca        1 B54     -0.194500
      9 C15        -3.5680    0.7290    0.3370 ca        1 B54      0.070100
     10 O14        -2.2990    1.2240    0.6410 os        1 B54     -0.347900
     11 C13        -1.2570    0.2540    0.5540 c3        1 B54      0.137400
     12 C12         0.0410    1.0350    0.4140 c3        1 B54     -0.108400
     13 C11         1.1950    0.0450    0.2790 c3        1 B54      0.211800
     14 N10         2.4800    0.6940    0.1710 nh        1 B54     -0.719000
     15 C4          3.6570    0.0200    0.0130 cc        1 B54      0.531600
     16 C5          4.9100    0.7220   -0.0880 cd        1 B54     -0.355600
     17 N9          4.9240    2.1390   -0.0100 nf        1 B54      0.021700
     18 O24         5.9170    2.7420   -0.0820 o         1 B54     -0.183300
     19 C2          6.1270   -0.0550   -0.2640 c         1 B54      0.729700
     20 O8          7.2850    0.3810   -0.3700 o         1 B54     -0.613500
     21 N2          5.9950   -1.4720   -0.3320 n         1 B54     -0.514400
     22 C1          4.7430   -2.0710   -0.1930 cd        1 B54      0.737800
     23 N1          3.5940   -1.3710   -0.0560 nc        1 B54     -0.758300
     24 N7          4.6730   -3.4730   -0.1440 nh        1 B54     -0.908800
     25 H19        -6.5190    1.9590   -0.8690 ha        1 B54      0.155000
     26 H20        -4.1530    2.6980   -0.3570 ha        1 B54      0.116500
     27 H17        -5.5920   -2.0190    0.4550 ha        1 B54      0.155000
     28 H16        -3.2380   -1.3190    0.9920 ha        1 B54      0.116500
     29 H13        -1.2520   -0.3590    1.4950 h1        1 B54      0.037200
     30 H13A       -1.4160   -0.4220   -0.3270 h1        1 B54      0.037200
     31 H12        -0.0220    1.7010   -0.4850 hc        1 B54      0.062700
     32 H12A        0.1760    1.6920    1.3120 hc        1 B54      0.062700
     33 H11         1.2040   -0.6390    1.1770 h1        1 B54      0.059700
     34 H11A        1.0250   -0.5950   -0.6350 h1        1 B54      0.059700
     35 HN10        2.4990    1.6890    0.2090 hn        1 B54      0.466800
     36 HN7         5.3700   -3.9780   -0.6370 hn        1 B54      0.432300
     37 HN7A        3.7580   -3.8660   -0.1650 hn        1 B54      0.432300
     38 H15         6.8260   -2.0160   -0.4040 hn        1 B54      0.330500
@<TRIPOS>BOND
     1    1    2 1   
     2    2    3 1   
     3    2    4 1   
     4    4    5 ar  
     5    4    7 ar  
     6    5    6 ar  
     7    5   25 1   
     8    6    9 ar  
     9    6   26 1   
    10    7    8 ar  
    11    7   27 1   
    12    8    9 ar  
    13    8   28 1   
    14    9   10 1   
    15   10   11 1   
    16   11   12 1   
    17   11   29 1   
    18   11   30 1   
    19   12   13 1   
    20   12   31 1   
    21   12   32 1   
    22   13   14 1   
    23   13   33 1   
    24   13   34 1   
    25   14   15 1   
    26   14   35 1   
    27   15   16 2   
    28   15   23 1   
    29   16   17 1   
    30   16   19 1   
    31   17   18 2   
    32   19   20 2   
    33   19   21 1   
    34   21   22 1   
    35   21   38 1   
    36   22   23 2   
    37   22   24 1   
    38   24   36 1   
    39   24   37 1   
@<TRIPOS>SUBSTRUCTURE
     1 B54         1 TEMP              0 ****  ****    0 ROOT
