@<TRIPOS>MOLECULE
B54
   38    36     1     0     0
SMALL
bcc


@<TRIPOS>ATOM
      1 O22        -3.5490   -0.2560    7.4460 o         1 B54     -0.830800
      2 C21        -2.9140    0.8010    7.1430 c         1 B54      0.907800
      3 O23        -2.6970    1.6840    8.0280 o         1 B54     -0.830800
      4 C18        -2.2900    0.9520    5.7280 ce        1 B54     -0.203300
      5 C19        -2.9600    1.6710    4.7460 ce        1 B54     -0.149100
      6 C20        -2.3930    1.8200    3.4810 c1        1 B54     -0.047800
      7 C17        -1.0550    0.3810    5.4500 c1        1 B54      0.041200
      8 C16        -0.4880    0.5300    4.1870 ce        1 B54     -0.278100
      9 C15        -1.1590    1.2510    3.2030 ce        1 B54      0.006000
     10 O14        -0.5400    1.4910    1.9630 os        1 B54     -0.346900
     11 C13        -0.6400    0.4070    1.0520 c3        1 B54      0.137400
     12 C12        -0.3670    0.9020   -0.3500 c3        1 B54     -0.108400
     13 C11         0.3670   -0.1850   -1.1420 c3        1 B54      0.211800
     14 N10         0.2010    0.0530   -2.5570 nh        1 B54     -0.719000
     15 C4          1.0760   -0.5980   -3.5050 ce        1 B54      0.468500
     16 C5          0.5340   -1.1140   -4.7760 c1        1 B54     -0.193500
     17 N9         -0.8500   -0.9640   -5.0730 ne        1 B54     -0.011400
     18 O24        -1.4090   -1.7690   -5.8070 o         1 B54     -0.230000
     19 C2          1.4480   -1.6670   -5.7880 c1        1 B54      0.601500
     20 O8          1.0060   -2.0940   -6.8410 o         1 B54     -0.571500
     21 N2          2.8550   -1.6850   -5.5440 nh        1 B54     -0.442500
     22 C1          3.3830   -1.1950   -4.2700 c2        1 B54      0.656300
     23 N1          2.4750   -0.6450   -3.2590 ne        1 B54     -0.758300
     24 N7          4.7760   -1.2950   -3.9900 nh        1 B54     -0.485200
     25 H19        -3.8490    2.0350    4.9280 ha        1 B54      0.156000
     26 H20        -2.8670    2.3290    2.7860 DU        1 B54      0.138500
     27 H17        -0.5890   -0.1180    6.1330 DU        1 B54      0.138500
     28 H16         0.3560    0.0970    3.9800 ha        1 B54      0.110000
     29 H13         0.0130   -0.2780    1.2880 h1        1 B54      0.037200
     30 H13A       -1.5390    0.0280    1.0950 h1        1 B54      0.037200
     31 H12        -1.2070    1.1090   -0.7870 hc        1 B54      0.063200
     32 H12A        0.1840    1.7020   -0.3090 hc        1 B54      0.063200
     33 H11         1.3250   -0.1640   -0.9170 h1        1 B54      0.059700
     34 H11A       -0.0060   -1.0650   -0.9120 h1        1 B54      0.059700
     35 HN10       -0.4930    0.5540   -2.8520 hn        1 B54      0.466800
     36 HN7         5.3250   -1.7350   -4.5640 hn        1 B54      0.277200
     37 HN7A        5.1120   -0.9390   -3.2180 hn        1 B54      0.277200
     38 H15         3.4250   -2.0290   -6.1750 hn        1 B54      0.293700
@<TRIPOS>BOND
     1    1    2 1   
     2    2    3 1   
     3    2    4 1   
     4    4    5 1   
     5    4    7 2   
     6    5    6 2   
     7    5   25 1   
     8    6    9 2   
     9    7    8 2   
    10    8    9 1   
    11    8   28 1   
    12    9   10 1   
    13   10   11 1   
    14   11   12 1   
    15   11   29 1   
    16   11   30 1   
    17   12   13 1   
    18   12   31 1   
    19   12   32 1   
    20   13   14 1   
    21   13   33 1   
    22   13   34 1   
    23   14   15 1   
    24   14   35 1   
    25   15   16 2   
    26   15   23 1   
    27   16   17 2   
    28   17   18 1   
    29   19   20 2   
    30   19   21 2   
    31   21   22 1   
    32   21   38 1   
    33   22   23 2   
    34   22   24 1   
    35   24   36 1   
    36   24   37 1   
@<TRIPOS>SUBSTRUCTURE
     1 B54         1 TEMP              0 ****  ****    0 ROOT
