@<TRIPOS>MOLECULE
B55
   17    18     1     0     0
SMALL
bcc


@<TRIPOS>ATOM
      1 O1         -1.2590   -2.6250   -0.2390 o         1 B55     -0.595500
      2 C5         -1.1900   -1.3910   -0.1620 c         1 B55      0.650000
      3 C2         -0.0080   -0.5520   -0.1550 cc        1 B55      0.189800
      4 N1          1.3400   -0.8860   -0.2360 nc        1 B55     -0.597000
      5 N4         -2.4100   -0.6670   -0.0580 n         1 B55     -0.509400
      6 C4         -2.4600    0.7410    0.0080 cc        1 B55      0.683800
      7 N3         -3.7380    1.3430   -0.0230 nh        1 B55     -0.892800
      8 N2         -1.3710    1.5480    0.0430 nd        1 B55     -0.672100
      9 C3         -0.1660    0.8780   -0.0590 cd        1 B55      0.114800
     10 N5          1.1240    1.4050   -0.0840 na        1 B55     -0.290900
     11 C1          2.0020    0.2980   -0.1910 cd        1 B55      0.488800
     12 S1          3.6850    0.5280   -0.2490 sh        1 B55     -0.315100
     13 HN4        -3.2540   -1.1940   -0.1210 hn        1 B55      0.335500
     14 HN3        -4.4580    0.8520    0.4580 hn        1 B55      0.422300
     15 HN3A       -3.7400    2.3280    0.1340 hn        1 B55      0.422300
     16 HN5         1.3780    2.3570   -0.0380 hn        1 B55      0.324700
     17 HS1         4.0610   -0.7440   -0.3530 hs        1 B55      0.238800
@<TRIPOS>BOND
     1    1    2 2   
     2    2    3 1   
     3    2    5 1   
     4    3    4 1   
     5    3    9 2   
     6    4   11 2   
     7    5    6 1   
     8    5   13 1   
     9    6    7 1   
    10    6    8 2   
    11    7   14 1   
    12    7   15 1   
    13    8    9 1   
    14    9   10 1   
    15   10   11 1   
    16   10   16 1   
    17   11   12 1   
    18   12   17 1   
@<TRIPOS>SUBSTRUCTURE
     1 B55         1 TEMP              0 ****  ****    0 ROOT
