@<TRIPOS>MOLECULE
B55
   18    19     1     0     0
SMALL
bcc


@<TRIPOS>ATOM
      1 O1         -0.1130    0.1200   -0.0270 o         1 B55     -0.505500
      2 C5          1.1110    0.0870    0.0830 c         1 B55      0.643000
      3 C2          1.9270    0.1050    1.2920 cc        1 B55      0.319800
      4 N1          1.5510    0.1610    2.6130 nc        1 B55     -0.603000
      5 N4          1.8750    0.0230   -1.1280 ns        1 B55     -0.500400
      6 C4          3.2730   -0.0170   -1.0940 cc        1 B55      0.481800
      7 N3          3.9890   -0.0830   -2.4090 nz        1 B55     -0.791600
      8 N2          4.0610   -0.0030   -0.0160 nd        1 B55     -0.515100
      9 C3          3.3690    0.0580    1.1790 cd        1 B55     -0.003200
     10 N5          3.8580    0.0890    2.4900 na        1 B55     -0.256900
     11 C1          2.7310    0.1510    3.3270 cd        1 B55      0.544800
     12 S1          2.8770    0.2040    5.0050 sh        1 B55     -0.209100
     13 HN4         1.3690    0.0080   -1.9880 hn        1 B55      0.350500
     14 HN3         5.0080   -0.1080   -2.2500 hn        1 B55      0.481467
     15 HN3A        3.7560    0.7470   -2.9680 hn        1 B55      0.481467
     16 HN5         4.8090    0.0710    2.7690 hn        1 B55      0.345700
     17 HS1         1.5830    0.2540    5.3330 hs        1 B55      0.254800
     18 H33         3.7060   -0.9340   -2.9100 hn        1 B55      0.481467
@<TRIPOS>BOND
     1    1    2 2   
     2    2    3 1   
     3    2    5 1   
     4    3    4 1   
     5    3    9 2   
     6    4   11 2   
     7    5    6 1   
     8    5   13 1   
     9    6    7 1   
    10    6    8 2   
    11    7   14 1   
    12    7   15 1   
    13    7   18 1   
    14    8    9 1   
    15    9   10 1   
    16   10   11 1   
    17   10   16 1   
    18   11   12 1   
    19   12   17 1   
@<TRIPOS>SUBSTRUCTURE
     1 B55         1 TEMP              0 ****  ****    0 ROOT
