@<TRIPOS>MOLECULE
B55
   17    14     1     0     0
SMALL
bcc


@<TRIPOS>ATOM
      1 O1         -2.7720    0.0530   -0.7230 o         1 B55     -0.320000
      2 C5         -1.5570    0.0530   -0.7230 c1        1 B55      0.397000
      3 C2         -0.8040    0.0530    0.5820 c1        1 B55     -0.081500
      4 N1         -1.2200    0.0530    1.8690 n2        1 B55     -0.124000
      5 N4         -0.8570    0.0530   -1.9340 n3        1 B55     -0.349000
      6 C4          0.5660    0.0530   -1.9320 c2        1 B55      0.237000
      7 N3          1.2760    0.0470   -3.1600 n3        1 B55     -0.331000
      8 N2          1.2860    0.0530   -0.6830 n1        1 B55     -0.245000
      9 C3          0.5580    0.0530    0.5800 c1        1 B55     -0.081500
     10 N5          0.9770    0.0530    1.8680 n2        1 B55     -0.124000
     11 C1         -0.1200    0.0530    2.6660 c1        1 B55     -0.190000
     12 S1         -0.6100    0.1030    4.3690 s         1 B55      0.184000
     13 HN4        -1.3120    0.0680   -2.7240 hn        1 B55      0.249000
     14 HN3         0.8210    0.0430   -3.9500 hn        1 B55      0.217500
     15 HN3A        2.1880    0.0450   -3.1590 hn        1 B55      0.217500
     16 HN5         1.8450    0.0530    2.1490 DU        1 B55      0.275000
     17 HS1        -0.2650   -0.8870    4.9060 hs        1 B55      0.067000
@<TRIPOS>BOND
     1    1    2 1   
     2    2    5 1   
     3    3    4 1   
     4    3    9 1   
     5    4   11 1   
     6    5    6 1   
     7    5   13 1   
     8    6    7 1   
     9    6    8 1   
    10    7   14 1   
    11    7   15 1   
    12    9   10 1   
    13   10   11 1   
    14   12   17 1   
@<TRIPOS>SUBSTRUCTURE
     1 B55         1 TEMP              0 ****  ****    0 ROOT
