@<TRIPOS>MOLECULE
B55
   18    19     1     0     0
SMALL
bcc


@<TRIPOS>ATOM
      1 O1         -0.1130    0.1230   -0.0290 o         1 B55     -0.505500
      2 C5          1.1110    0.0890    0.0810 c         1 B55      0.643000
      3 C2          1.9270    0.1090    1.2910 cc        1 B55      0.319800
      4 N1          1.5500    0.1700    2.6120 nc        1 B55     -0.603000
      5 N4          1.8770    0.0200   -1.1280 n         1 B55     -0.500400
      6 C4          3.2750   -0.0220   -1.0940 cc        1 B55      0.481800
      7 N3          3.9910   -0.0940   -2.4080 n4        1 B55     -0.791600
      8 N2          4.0610   -0.0070   -0.0150 nd        1 B55     -0.515100
      9 C3          3.3690    0.0590    1.1790 cd        1 B55     -0.003200
     10 N5          3.8570    0.0930    2.4910 na        1 B55     -0.256900
     11 C1          2.7280    0.1590    3.3270 cd        1 B55      0.544800
     12 S1          2.8740    0.2170    5.0040 sh        1 B55     -0.209100
     13 HN4         1.3710    0.0040   -1.9890 hn        1 B55      0.350500
     14 HN3         3.7080   -0.9460   -2.9060 hn        1 B55      0.481467
     15 HN3A        5.0100   -0.1180   -2.2480 hn        1 B55      0.481467
     16 HN5         4.8070    0.0730    2.7700 hn        1 B55      0.345700
     17 HS1         1.5790    0.2700    5.3320 hs        1 B55      0.254800
     18 H33         3.7590    0.7340   -2.9700 hn        1 B55      0.481467
@<TRIPOS>BOND
     1    1    2 2   
     2    2    3 1   
     3    2    5 1   
     4    3    4 1   
     5    3    9 2   
     6    4   11 2   
     7    5    6 1   
     8    5   13 1   
     9    6    7 1   
    10    6    8 2   
    11    7   14 1   
    12    7   15 1   
    13    7   18 1   
    14    8    9 1   
    15    9   10 1   
    16   10   11 1   
    17   10   16 1   
    18   11   12 1   
    19   12   17 1   
@<TRIPOS>SUBSTRUCTURE
     1 B55         1 TEMP              0 ****  ****    0 ROOT
