@<TRIPOS>MOLECULE
B55
   18    19     1     0     0
SMALL
bcc


@<TRIPOS>ATOM
      1 O1         -0.1140    0.1030   -0.0240 o         1 B55     -0.505500
      2 C5          1.1100    0.0770    0.0850 c         1 B55      0.643000
      3 C2          1.9280    0.1030    1.2930 cc        1 B55      0.319800
      4 N1          1.5530    0.1630    2.6140 nc        1 B55     -0.603000
      5 N4          1.8740    0.0120   -1.1270 n         1 B55     -0.500400
      6 C4          3.2720   -0.0210   -1.0940 cc        1 B55      0.481800
      7 N3          3.9860   -0.0890   -2.4100 n4        1 B55     -0.791600
      8 N2          4.0610    0.0010   -0.0170 nd        1 B55     -0.515100
      9 C3          3.3700    0.0640    1.1780 cd        1 B55     -0.003200
     10 N5          3.8600    0.1020    2.4890 na        1 B55     -0.256900
     11 C1          2.7330    0.1620    3.3270 cd        1 B55      0.544800
     12 S1          2.8810    0.2220    5.0040 sh        1 B55     -0.209100
     13 HN4         1.3670   -0.0090   -1.9860 hn        1 B55      0.350500
     14 HN3         5.0050   -0.1080   -2.2520 hn        1 B55      0.481467
     15 HN3A        3.7480    0.7380   -2.9720 hn        1 B55      0.481467
     16 HN5         4.8110    0.0890    2.7660 hn        1 B55      0.345700
     17 HS1         1.5870    0.2660    5.3340 hs        1 B55      0.254800
     18 H33         3.7070   -0.9430   -2.9070 hn        1 B55      0.481467
@<TRIPOS>BOND
     1    1    2 2   
     2    2    3 1   
     3    2    5 1   
     4    3    4 1   
     5    3    9 2   
     6    4   11 2   
     7    5    6 1   
     8    5   13 1   
     9    6    7 1   
    10    6    8 2   
    11    7   14 1   
    12    7   15 1   
    13    7   18 1   
    14    8    9 1   
    15    9   10 1   
    16   10   11 1   
    17   10   16 1   
    18   11   12 1   
    19   12   17 1   
@<TRIPOS>SUBSTRUCTURE
     1 B55         1 TEMP              0 ****  ****    0 ROOT
