@<TRIPOS>MOLECULE
B56
   24    23     1     0     0
SMALL
bcc


@<TRIPOS>ATOM
      1 O9         -3.1530    0.2110    1.4930 o         1 B56     -0.581500
      2 C8         -1.9390    0.1660    1.5160 c1        1 B56      0.605500
      3 N7         -1.2550    0.0260    2.7580 nh        1 B56     -0.366600
      4 C5          0.2140   -0.0210    2.7870 c2        1 B56      0.133800
      5 N6          0.9010    0.0290    4.0280 nh        1 B56     -0.385300
      6 N4          0.9690   -0.1240    1.5380 n1        1 B56     -0.277000
      7 C10        -1.1720    0.1610    0.2450 cg        1 B56     -0.164000
      8 C3          0.2950    0.0170    0.2770 c1        1 B56      0.192800
      9 N1          0.9610    0.1020   -0.9200 n3        1 B56     -0.615200
     10 C2          2.3330    0.4810   -0.9460 c3        1 B56      0.204100
     11 C16         0.3730   -0.4750   -2.0510 c3        1 B56      0.109500
     12 N11        -1.8350    0.2340   -1.1060 ne        1 B56     -0.432700
     13 C12        -1.0040   -0.0150   -2.2820 cf        1 B56      0.358300
     14 C13        -1.6490   -0.2070   -3.6360 c         1 B56      0.848300
     15 O15        -1.6920    0.7490   -4.4550 o         1 B56     -0.802300
     16 O14        -2.1380   -1.3250   -3.9480 o         1 B56     -0.802300
     17 HN7        -1.7270   -0.0150    3.5370 hn        1 B56      0.285700
     18 HN6         0.4290    0.0490    4.8110 hn        1 B56      0.233700
     19 HN6A        1.8150    0.0290    4.0450 hn        1 B56      0.233700
     20 H2          2.8910   -0.2940   -0.7220 h1        1 B56      0.032700
     21 H2A         2.4870    1.1960   -0.2910 h1        1 B56      0.032700
     22 H2B         2.5660    0.8040   -1.8430 h1        1 B56      0.032700
     23 H16         0.9310   -0.3240   -2.8420 h1        1 B56      0.062200
     24 H9          0.3990   -1.4530   -1.9920 h1        1 B56      0.062200
@<TRIPOS>BOND
     1    1    2 2   
     2    2    3 2   
     3    3    4 1   
     4    3   17 1   
     5    4    5 1   
     6    4    6 2   
     7    5   18 1   
     8    5   19 1   
     9    7    8 3   
    10    7   12 1   
    11    8    9 1   
    12    9   10 1   
    13    9   11 1   
    14   10   20 1   
    15   10   21 1   
    16   10   22 1   
    17   11   13 1   
    18   11   23 1   
    19   11   24 1   
    20   12   13 2   
    21   13   14 1   
    22   14   15 1   
    23   14   16 1   
@<TRIPOS>SUBSTRUCTURE
     1 B56         1 TEMP              0 ****  ****    0 ROOT
