@<TRIPOS>MOLECULE
B56
   24    25     1     0     0
SMALL
bcc


@<TRIPOS>ATOM
      1 O9         -1.1780   -2.9460   -0.0890 o         1 B56     -0.622500
      2 C8         -1.3580   -1.7170   -0.0710 c         1 B56      0.732700
      3 N7         -2.7160   -1.3030   -0.1500 n         1 B56     -0.503400
      4 C5         -3.0550    0.0530   -0.1730 cc        1 B56      0.632800
      5 N6         -4.4330    0.3790   -0.4030 nh        1 B56     -0.874800
      6 N4         -2.1630    1.0430   -0.0370 nd        1 B56     -0.704300
      7 C10        -0.3650   -0.6460    0.0290 cc        1 B56     -0.093600
      8 C3         -0.8090    0.6970    0.0820 cd        1 B56      0.359600
      9 N1          0.1130    1.7230    0.3310 nh        1 B56     -0.642400
     10 C2         -0.2270    3.0810    0.0060 c3        1 B56      0.204100
     11 C16         1.5330    1.4020    0.2640 c3        1 B56      0.109500
     12 N11         0.9930   -1.0190    0.0270 ne        1 B56     -0.521300
     13 C12         1.8650   -0.0680    0.1170 cf        1 B56      0.358300
     14 C13         3.4000   -0.2770    0.0410 c         1 B56      0.848300
     15 O15         3.9410    0.0790   -1.0370 o         1 B56     -0.802300
     16 O14         3.9750   -0.7050    1.0700 o         1 B56     -0.802300
     17 HN7        -3.4090   -2.0020   -0.2960 hn        1 B56      0.321500
     18 HN6        -5.0380   -0.0850    0.2430 hn        1 B56      0.388300
     19 HN6A       -4.5910    1.3670   -0.4020 hn        1 B56      0.388300
     20 H2         -1.1410    3.3940    0.5760 h1        1 B56      0.032700
     21 H2A         0.6260    3.7470    0.3040 h1        1 B56      0.032700
     22 H2B        -0.4240    3.2200   -1.0920 h1        1 B56      0.032700
     23 H16         2.0270    1.9460   -0.5950 h1        1 B56      0.062200
     24 H9          1.9940    1.7720    1.2260 h1        1 B56      0.062200
@<TRIPOS>BOND
     1    1    2 2   
     2    2    3 1   
     3    2    7 1   
     4    3    4 1   
     5    3   17 1   
     6    4    5 1   
     7    4    6 2   
     8    5   18 1   
     9    5   19 1   
    10    6    8 1   
    11    7    8 2   
    12    7   12 1   
    13    8    9 1   
    14    9   10 1   
    15    9   11 1   
    16   10   20 1   
    17   10   21 1   
    18   10   22 1   
    19   11   13 1   
    20   11   23 1   
    21   11   24 1   
    22   12   13 2   
    23   13   14 1   
    24   14   15 1   
    25   14   16 1   
@<TRIPOS>SUBSTRUCTURE
     1 B56         1 TEMP              0 ****  ****    0 ROOT
