@<TRIPOS>MOLECULE
B56
   25    26     1     0     0
SMALL
bcc


@<TRIPOS>ATOM
      1 O9         -0.0910   -0.1220    0.2180 o         1 B56     -0.536500
      2 C8          1.1300   -0.0630    0.0570 c         1 B56      0.721700
      3 N7          1.8980    0.0210    1.2610 ns        1 B56     -0.501400
      4 C5          3.2860    0.0580    1.1680 cc        1 B56      0.438800
      5 N6          4.0640    0.2390    2.4380 nz        1 B56     -0.788600
      6 N4          4.0140   -0.0200    0.0620 nd        1 B56     -0.560300
      7 C10         1.9090   -0.0730   -1.1980 cc        1 B56      0.065400
      8 C3          3.3260   -0.1560   -1.1460 cd        1 B56      0.245600
      9 N1          4.0690   -0.4390   -2.3130 nh        1 B56     -0.603400
     10 C2          5.3480    0.2150   -2.4630 c3        1 B56      0.173100
     11 C16         3.2940   -0.5790   -3.5480 c3        1 B56      0.068500
     12 N11         1.2000    0.0750   -2.3840 ne        1 B56     -0.555300
     13 C12         1.8620   -0.0970   -3.4940 cf        1 B56      0.424300
     14 C13         1.2880    0.2350   -4.9210 c         1 B56      0.855300
     15 O15         0.4460   -0.5590   -5.3760 o         1 B56     -0.754800
     16 O14         1.8220    1.2450   -5.4330 o         1 B56     -0.754800
     17 HN7         1.4170    0.0340    2.1320 hn        1 B56      0.331500
     18 HN6         3.7980    1.1240    2.8790 hn        1 B56      0.466467
     19 HN6A        3.8650   -0.5420    3.0700 hn        1 B56      0.466467
     20 H2          5.2640    1.3350   -2.4810 h1        1 B56      0.046367
     21 H2A         5.8090   -0.1270   -3.4290 h1        1 B56      0.046367
     22 H2B         6.0290   -0.0870   -1.6240 h1        1 B56      0.046367
     23 H16         3.2830   -1.6810   -3.7960 h1        1 B56      0.096200
     24 H9          3.7990   -0.0290   -4.3970 h1        1 B56      0.096200
     25 H63         5.0700    0.2540    2.2220 hn        1 B56      0.466467
@<TRIPOS>BOND
     1    1    2 2   
     2    2    3 1   
     3    2    7 1   
     4    3    4 1   
     5    3   17 1   
     6    4    5 1   
     7    4    6 2   
     8    5   18 1   
     9    5   19 1   
    10    5   25 1   
    11    6    8 1   
    12    7    8 2   
    13    7   12 1   
    14    8    9 1   
    15    9   10 1   
    16    9   11 1   
    17   10   20 1   
    18   10   21 1   
    19   10   22 1   
    20   11   13 1   
    21   11   23 1   
    22   11   24 1   
    23   12   13 2   
    24   13   14 1   
    25   14   15 1   
    26   14   16 1   
@<TRIPOS>SUBSTRUCTURE
     1 B56         1 TEMP              0 ****  ****    0 ROOT
