@<TRIPOS>MOLECULE
B56
   25    26     1     0     0
SMALL
bcc


@<TRIPOS>ATOM
      1 O9         -0.0870   -0.1570    0.2210 o         1 B56     -0.536500
      2 C8          1.1330   -0.0860    0.0590 c         1 B56      0.721700
      3 N7          1.9010    0.0000    1.2620 n         1 B56     -0.501400
      4 C5          3.2890    0.0500    1.1680 cc        1 B56      0.438800
      5 N6          4.0660    0.2340    2.4380 n4        1 B56     -0.788600
      6 N4          4.0160   -0.0170    0.0610 nd        1 B56     -0.560300
      7 C10         1.9100   -0.0840   -1.1970 cc        1 B56      0.065400
      8 C3          3.3280   -0.1540   -1.1470 cd        1 B56      0.245600
      9 N1          4.0730   -0.4250   -2.3160 nh        1 B56     -0.603400
     10 C2          5.3440    0.2430   -2.4650 c3        1 B56      0.173100
     11 C16         3.2970   -0.5700   -3.5500 c3        1 B56      0.068500
     12 N11         1.1980    0.0610   -2.3820 ne        1 B56     -0.555300
     13 C12         1.8610   -0.1020   -3.4940 cf        1 B56      0.424300
     14 C13         1.2820    0.2300   -4.9190 c         1 B56      0.855300
     15 O15         0.4470   -0.5710   -5.3750 o         1 B56     -0.754800
     16 O14         1.8070    1.2460   -5.4280 o         1 B56     -0.754800
     17 HN7         1.4210    0.0050    2.1340 hn        1 B56      0.331500
     18 HN6         3.7920    1.1150    2.8830 hn        1 B56      0.466467
     19 HN6A        5.0720    0.2590    2.2210 hn        1 B56      0.466467
     20 H2          5.8080   -0.0900   -3.4320 h1        1 B56      0.046367
     21 H2A         5.2470    1.3620   -2.4810 h1        1 B56      0.046367
     22 H2B         6.0290   -0.0530   -1.6280 h1        1 B56      0.046367
     23 H16         3.7960   -0.0140   -4.3990 h1        1 B56      0.096200
     24 H9          3.2960   -1.6720   -3.8000 h1        1 B56      0.096200
     25 H63         3.8750   -0.5510    3.0670 hn        1 B56      0.466467
@<TRIPOS>BOND
     1    1    2 2   
     2    2    3 1   
     3    2    7 1   
     4    3    4 1   
     5    3   17 1   
     6    4    5 1   
     7    4    6 2   
     8    5   18 1   
     9    5   19 1   
    10    5   25 1   
    11    6    8 1   
    12    7    8 2   
    13    7   12 1   
    14    8    9 1   
    15    9   10 1   
    16    9   11 1   
    17   10   20 1   
    18   10   21 1   
    19   10   22 1   
    20   11   13 1   
    21   11   23 1   
    22   11   24 1   
    23   12   13 2   
    24   13   14 1   
    25   14   15 1   
    26   14   16 1   
@<TRIPOS>SUBSTRUCTURE
     1 B56         1 TEMP              0 ****  ****    0 ROOT
