@<TRIPOS>MOLECULE
B56
   25    26     1     0     0
SMALL
bcc


@<TRIPOS>ATOM
      1 O9         -0.0840   -0.2910    0.1980 o         1 B56     -0.536500
      2 C8          1.1330   -0.1720    0.0430 c         1 B56      0.721700
      3 N7          1.8910   -0.0610    1.2510 n         1 B56     -0.501400
      4 C5          3.2760    0.0440    1.1650 cc        1 B56      0.438800
      5 N6          4.0390    0.2520    2.4400 n4        1 B56     -0.788600
      6 N4          4.0110    0.0110    0.0620 nd        1 B56     -0.560300
      7 C10         1.9160   -0.1330   -1.2090 cc        1 B56      0.065400
      8 C3          3.3350   -0.1470   -1.1510 cd        1 B56      0.245600
      9 N1          4.0960   -0.3840   -2.3170 nh        1 B56     -0.603400
     10 C2          5.3430    0.3320   -2.4550 c3        1 B56      0.173100
     11 C16         3.3340   -0.5510   -3.5560 c3        1 B56      0.068500
     12 N11         1.2060   -0.0100   -2.3970 ne        1 B56     -0.555300
     13 C12         1.8800   -0.1400   -3.5050 cf        1 B56      0.424300
     14 C13         1.2960    0.1750   -4.9320 c         1 B56      0.855300
     15 O15         0.4960   -0.6550   -5.3970 o         1 B56     -0.754800
     16 O14         1.7820    1.2150   -5.4330 o         1 B56     -0.754800
     17 HN7         1.4060   -0.0790    2.1200 hn        1 B56      0.331500
     18 HN6         3.8760   -0.5420    3.0640 hn        1 B56      0.466467
     19 HN6A        3.7290    1.1200    2.8870 hn        1 B56      0.466467
     20 H2          6.0340    0.0560   -1.6160 h1        1 B56      0.046367
     21 H2A         5.2050    1.4460   -2.4640 h1        1 B56      0.046367
     22 H2B         5.8230    0.0210   -3.4220 h1        1 B56      0.046367
     23 H16         3.8150    0.0310   -4.3990 h1        1 B56      0.096200
     24 H9          3.3780   -1.6500   -3.8140 h1        1 B56      0.096200
     25 H63         5.0440    0.3180    2.2280 hn        1 B56      0.466467
@<TRIPOS>BOND
     1    1    2 2   
     2    2    3 1   
     3    2    7 1   
     4    3    4 1   
     5    3   17 1   
     6    4    5 1   
     7    4    6 2   
     8    5   18 1   
     9    5   19 1   
    10    5   25 1   
    11    6    8 1   
    12    7    8 2   
    13    7   12 1   
    14    8    9 1   
    15    9   10 1   
    16    9   11 1   
    17   10   20 1   
    18   10   21 1   
    19   10   22 1   
    20   11   13 1   
    21   11   23 1   
    22   11   24 1   
    23   12   13 2   
    24   13   14 1   
    25   14   15 1   
    26   14   16 1   
@<TRIPOS>SUBSTRUCTURE
     1 B56         1 TEMP              0 ****  ****    0 ROOT
