@<TRIPOS>MOLECULE
B57
   17    15     1     0     0
SMALL
bcc


@<TRIPOS>ATOM
      1 O7         -2.7160   -0.0490   -0.4040 o         1 B57     -0.299000
      2 C1         -1.5010   -0.0490   -0.4040 c1        1 B57      0.385000
      3 C6         -0.7660   -0.0490    0.8690 c1        1 B57     -0.442000
      4 N8         -1.4710   -0.1310    2.0970 no        1 B57      0.614000
      5 O10        -1.6280   -1.3390    2.7150 o         1 B57     -0.386000
      6 O9         -1.9380    0.8790    2.6030 o         1 B57     -0.386000
      7 N2         -0.7910    0.0330   -1.6300 n3        1 B57     -0.356000
      8 C3          0.6700    0.0460   -1.6290 c2        1 B57      0.316000
      9 N11         1.3800    0.0090   -2.8570 n3        1 B57     -0.361000
     10 N4          1.4010    0.1260   -0.3660 n1        1 B57     -0.345000
     11 C5          0.7020    0.0360    0.8660 c1        1 B57      0.319000
     12 N12         1.4110    0.1170    2.0920 n3        1 B57     -0.327000
     13 HN2        -1.2470    0.0590   -2.4200 hn        1 B57      0.254000
     14 HN11        0.9240   -0.0250   -3.6460 hn        1 B57      0.244000
     15 HN1A        2.2920    0.0340   -2.8580 hn        1 B57      0.244000
     16 HN12        2.3220    0.0800    2.0950 hn        1 B57      0.263000
     17 HN1B        0.9560    0.2230    2.8750 hn        1 B57      0.263000
@<TRIPOS>BOND
     1    1    2 1   
     2    2    7 1   
     3    3    4 1   
     4    3   11 1   
     5    4    5 1   
     6    4    6 1   
     7    7    8 1   
     8    7   13 1   
     9    8    9 1   
    10    8   10 1   
    11    9   14 1   
    12    9   15 1   
    13   11   12 1   
    14   12   16 1   
    15   12   17 1   
@<TRIPOS>SUBSTRUCTURE
     1 B57         1 TEMP              0 ****  ****    0 ROOT
