@<TRIPOS>MOLECULE
B57
   17    17     1     0     0
SMALL
bcc


@<TRIPOS>ATOM
      1 O7          0.3330   -2.4170   -0.0420 o         1 B57     -0.574500
      2 C1         -0.1290   -1.2680   -0.0200 c         1 B57      0.746700
      3 C6          0.6070   -0.0080   -0.0050 cc        1 B57     -0.488300
      4 N8          2.0570   -0.1000    0.0010 no        1 B57      0.341100
      5 O10         2.7300    0.9110   -0.0300 o         1 B57     -0.236000
      6 O9          2.5860   -1.1770    0.0370 o         1 B57     -0.236000
      7 N2         -1.5500   -1.1740   -0.0170 n         1 B57     -0.516400
      8 C3         -2.1860    0.0670    0.0190 cc        1 B57      0.762800
      9 N11        -3.5740    0.1060    0.1100 nh        1 B57     -0.922800
     10 N4         -1.5130    1.2450    0.0050 nd        1 B57     -0.773300
     11 C5         -0.1190    1.2280    0.0070 cd        1 B57      0.541600
     12 N12         0.4810    2.4470    0.0170 nh        1 B57     -0.818600
     13 HN2        -2.0640   -2.0280    0.0110 hn        1 B57      0.340500
     14 HN11       -4.0990   -0.6990   -0.1290 hn        1 B57      0.448800
     15 HN1A       -4.0200    0.9910    0.0340 hn        1 B57      0.448800
     16 HN12        1.4750    2.5220    0.0060 hn        1 B57      0.467800
     17 HN1B       -0.0630    3.2770    0.0290 hn        1 B57      0.467800
@<TRIPOS>BOND
     1    1    2 2   
     2    2    3 1   
     3    2    7 1   
     4    3    4 1   
     5    3   11 2   
     6    4    5 1   
     7    4    6 1   
     8    7    8 1   
     9    7   13 1   
    10    8    9 1   
    11    8   10 2   
    12    9   14 1   
    13    9   15 1   
    14   10   11 1   
    15   11   12 1   
    16   12   16 1   
    17   12   17 1   
@<TRIPOS>SUBSTRUCTURE
     1 B57         1 TEMP              0 ****  ****    0 ROOT
