@<TRIPOS>MOLECULE
B57
   17    17     1     0     0
SMALL
bcc


@<TRIPOS>ATOM
      1 O7         -0.0880    0.1110   -0.0920 o         1 B57     -0.574500
      2 C1          1.1420    0.0570    0.0370 c         1 B57      0.746700
      3 C6          1.9110    0.0360    1.2770 cc        1 B57     -0.488300
      4 N8          1.1520    0.0670    2.5160 no        1 B57      0.341100
      5 O10         1.7320    0.0960    3.5830 o         1 B57     -0.236000
      6 O9         -0.0480    0.0620    2.4800 o         1 B57     -0.236000
      7 N2          1.8890    0.0180   -1.1740 n         1 B57     -0.516400
      8 C3          3.2820   -0.0560   -1.1550 cc        1 B57      0.762800
      9 N11         3.9630   -0.1810   -2.3620 nh        1 B57     -0.922800
     10 N4          4.0090   -0.0470   -0.0100 nd        1 B57     -0.773300
     11 C5          3.3430   -0.0150    1.2140 cd        1 B57      0.541600
     12 N12         4.1390   -0.0330    2.3150 nh        1 B57     -0.818600
     13 HN2         1.3740   -0.0070   -2.0270 hn        1 B57      0.340500
     14 HN11        3.5040    0.0600   -3.2060 hn        1 B57      0.448800
     15 HN1A        4.9550   -0.1320   -2.3440 hn        1 B57      0.448800
     16 HN12        5.1270   -0.0720    2.2220 hn        1 B57      0.467800
     17 HN1B        3.7410    0.0000    3.2280 hn        1 B57      0.467800
@<TRIPOS>BOND
     1    1    2 2   
     2    2    3 1   
     3    2    7 1   
     4    3    4 1   
     5    3   11 2   
     6    4    5 1   
     7    4    6 1   
     8    7    8 1   
     9    7   13 1   
    10    8    9 1   
    11    8   10 2   
    12    9   14 1   
    13    9   15 1   
    14   10   11 1   
    15   11   12 1   
    16   12   16 1   
    17   12   17 1   
@<TRIPOS>SUBSTRUCTURE
     1 B57         1 TEMP              0 ****  ****    0 ROOT
