@<TRIPOS>MOLECULE
B58
   17    18     1     0     0
SMALL
bcc


@<TRIPOS>ATOM
      1 N10         2.8260    0.5870   -0.0380 nh        1 B58     -0.943500
      2 C6          1.4560    0.6200    0.0340 ca        1 B58      0.672200
      3 N1          0.7700    1.8370    0.1230 nb        1 B58     -0.396000
      4 N2         -0.4930    1.9170    0.1260 nb        1 B58     -0.293000
      5 C5          0.6860   -0.5850   -0.0290 ca        1 B58     -0.104900
      6 N7          1.0370   -1.9440   -0.1000 nc        1 B58     -0.553100
      7 C8         -0.1340   -2.6030   -0.1360 cd        1 B58      0.407700
      8 N9         -1.2570   -1.7490   -0.0930 na        1 B58     -0.257300
      9 C4         -0.7570   -0.4570   -0.0220 ca        1 B58     -0.088500
     10 C3         -1.3440    0.8390    0.0560 ca        1 B58      0.424200
     11 N11        -2.7650    0.9450    0.0650 nh        1 B58     -0.882500
     12 HN10        3.3450    1.4110    0.1400 hn        1 B58      0.442300
     13 HN1A        3.2740   -0.2910    0.0660 hn        1 B58      0.442300
     14 H8         -0.2440   -3.6930   -0.1950 h5        1 B58      0.073800
     15 HN9        -2.2100   -2.0010   -0.0990 hn        1 B58      0.322700
     16 HN11       -3.0790    1.4250   -0.7600 hn        1 B58      0.366800
     17 HN1B       -3.0710    1.4610    0.8710 hn        1 B58      0.366800
@<TRIPOS>BOND
     1    1    2 1   
     2    1   12 1   
     3    1   13 1   
     4    2    3 ar  
     5    2    5 ar  
     6    3    4 ar  
     7    4   10 ar  
     8    5    6 1   
     9    5    9 ar  
    10    6    7 2   
    11    7    8 1   
    12    7   14 1   
    13    8    9 1   
    14    8   15 1   
    15    9   10 ar  
    16   10   11 1   
    17   11   16 1   
    18   11   17 1   
@<TRIPOS>SUBSTRUCTURE
     1 B58         1 TEMP              0 ****  ****    0 ROOT
