@<TRIPOS>MOLECULE
B58
   17    18     1     0     0
SMALL
bcc


@<TRIPOS>ATOM
      1 N10         0.0050    0.1940    0.0090 nv        1 B58     -0.943500
      2 C6          1.3740    0.1050   -0.0170 ca        1 B58      0.672200
      3 N1          2.1230    0.1920    1.1630 nb        1 B58     -0.396000
      4 N2          3.3890    0.1810    1.1770 nb        1 B58     -0.293000
      5 C5          2.0790   -0.0300   -1.2550 ca        1 B58     -0.104900
      6 N7          1.6570   -0.1620   -2.5890 nc        1 B58     -0.553100
      7 C8          2.7910   -0.2470   -3.3050 cd        1 B58      0.407700
      8 N9          3.9580   -0.1760   -2.5130 na        1 B58     -0.257300
      9 C4          3.5270   -0.0410   -1.2020 ca        1 B58     -0.088500
     10 C3          4.1820    0.0720    0.0580 ca        1 B58      0.424200
     11 N11         5.6070    0.0560    0.0910 nv        1 B58     -0.882500
     12 HN10       -0.4890   -0.0370   -0.8170 hn        1 B58      0.442300
     13 HN1A       -0.4710    0.1520    0.8770 hn        1 B58      0.442300
     14 H8          2.8440   -0.3580   -4.3950 h5        1 B58      0.073800
     15 HN9         4.8960   -0.2250   -2.8120 hn        1 B58      0.322700
     16 HN11        5.9520    0.9410    0.4200 hn        1 B58      0.366800
     17 HN1B        5.9330   -0.6640    0.7110 hn        1 B58      0.366800
@<TRIPOS>BOND
     1    1    2 1   
     2    1   12 1   
     3    1   13 1   
     4    2    3 ar  
     5    2    5 ar  
     6    3    4 ar  
     7    4   10 ar  
     8    5    6 1   
     9    5    9 ar  
    10    6    7 2   
    11    7    8 1   
    12    7   14 1   
    13    8    9 1   
    14    8   15 1   
    15    9   10 ar  
    16   10   11 1   
    17   11   16 1   
    18   11   17 1   
@<TRIPOS>SUBSTRUCTURE
     1 B58         1 TEMP              0 ****  ****    0 ROOT
