@<TRIPOS>MOLECULE
B58
   17    13     1     0     0
SMALL
bcc


@<TRIPOS>ATOM
      1 N10        -3.0250   -0.0020    0.4000 n3        1 B58     -0.341000
      2 C6         -1.6060   -0.0020    0.4000 c2        1 B58      0.151000
      3 N1         -1.2050   -0.0020    1.6950 n2        1 B58     -0.133000
      4 N2          0.1360   -0.0020    2.0020 n1        1 B58     -0.030000
      5 C5         -0.6590   -0.0020   -0.6220 c1        1 B58     -0.179000
      6 N7         -0.7800   -0.0020   -1.9770 n1        1 B58     -0.126000
      7 C8          0.4620   -0.0020   -2.5070 c1        1 B58     -0.048000
      8 N9          1.3500   -0.0020   -1.4900 n2        1 B58     -0.214000
      9 C4          0.6520   -0.0020   -0.3220 c1        1 B58      0.022000
     10 C3          1.0600   -0.0020    1.0100 c1        1 B58     -0.097000
     11 N11         2.2840    0.0070    1.7260 n3        1 B58     -0.280000
     12 HN10       -3.4810    0.7880    0.4010 hn        1 B58      0.237500
     13 HN1A       -3.4810   -0.7920    0.4010 hn        1 B58      0.237500
     14 H8          0.6790   -0.0020   -3.4580 DU        1 B58      0.238000
     15 HN9         2.2580   -0.0020   -1.5720 DU        1 B58      0.238000
     16 HN11        2.2790    0.0070    2.6380 hn        1 B58      0.162000
     17 HN1B        3.0770    0.0110    1.2750 hn        1 B58      0.162000
@<TRIPOS>BOND
     1    1    2 1   
     2    1   12 1   
     3    1   13 1   
     4    2    3 1   
     5    2    5 1   
     6    3    4 1   
     7    6    7 1   
     8    7    8 1   
     9    8    9 1   
    10    9   10 1   
    11   10   11 1   
    12   11   16 1   
    13   11   17 1   
@<TRIPOS>SUBSTRUCTURE
     1 B58         1 TEMP              0 ****  ****    0 ROOT
