@<TRIPOS>MOLECULE
B58
   19    20     1     0     0
SMALL
bcc


@<TRIPOS>ATOM
      1 N10        -0.0830   -0.0240    0.0350 n4        1 B58     -0.807300
      2 C6          1.3820   -0.0170    0.0030 ca        1 B58      0.455200
      3 N1          2.0880   -0.0520    1.2080 nb        1 B58     -0.221000
      4 N2          3.3360   -0.0570    1.2540 nb        1 B58     -0.213000
      5 C5          2.0760    0.0150   -1.2150 ca        1 B58      0.055100
      6 N7          1.6630    0.0550   -2.5500 nc        1 B58     -0.552100
      7 C8          2.7960    0.0730   -3.2760 cd        1 B58      0.570700
      8 N9          3.9720    0.0460   -2.4820 na        1 B58     -0.267300
      9 C4          3.5620    0.0090   -1.1590 ca        1 B58     -0.100500
     10 C3          4.1500   -0.0280    0.1150 ca        1 B58      0.403200
     11 N11         5.6000   -0.0380    0.3260 n4        1 B58     -0.809300
     12 HN10       -0.4180   -0.9990    0.1130 hn        1 B58      0.499800
     13 HN1A       -0.4500    0.3930   -0.8360 hn        1 B58      0.499800
     14 H8          2.8420    0.1050   -4.3860 h5        1 B58      0.149800
     15 HN9         4.9020    0.0530   -2.8310 hn        1 B58      0.355700
     16 HN11        6.0100   -0.8700   -0.1210 hn        1 B58      0.493800
     17 HN1B        6.0140    0.8170   -0.0710 hn        1 B58      0.493800
     18 H103       -0.4330    0.5130    0.8460 hn        1 B58      0.499800
     19 H113        5.8200   -0.0690    1.3400 hn        1 B58      0.493800
@<TRIPOS>BOND
     1    1    2 1   
     2    1   12 1   
     3    1   13 1   
     4    1   18 1   
     5    2    3 ar  
     6    2    5 ar  
     7    3    4 ar  
     8    4   10 ar  
     9    5    6 1   
    10    5    9 ar  
    11    6    7 2   
    12    7    8 1   
    13    7   14 1   
    14    8    9 1   
    15    8   15 1   
    16    9   10 ar  
    17   10   11 1   
    18   11   16 1   
    19   11   17 1   
    20   11   19 1   
@<TRIPOS>SUBSTRUCTURE
     1 B58         1 TEMP              0 ****  ****    0 ROOT
