@<TRIPOS>MOLECULE
B58
   17    18     1     0     0
SMALL
bcc


@<TRIPOS>ATOM
      1 N10         0.0020   -0.0390    0.0160 nh        1 B58     -0.943500
      2 C6          1.3720    0.0180   -0.0170 ca        1 B58      0.672200
      3 N1          2.1190    0.0610    1.1670 nb        1 B58     -0.397000
      4 N2          3.3840    0.0490    1.1820 nb        1 B58     -0.293000
      5 C5          2.0800   -0.0120   -1.2600 ca        1 B58     -0.104900
      6 N7          1.6610   -0.0360   -2.6020 nc        1 B58     -0.553100
      7 C8          2.7970   -0.0620   -3.3200 cd        1 B58      0.407700
      8 N9          3.9620   -0.0580   -2.5220 na        1 B58     -0.257300
      9 C4          3.5280   -0.0240   -1.2050 ca        1 B58     -0.088500
     10 C3          4.1800    0.0060    0.0610 ca        1 B58      0.424200
     11 N11         5.6050   -0.0030    0.0960 nh        1 B58     -0.882500
     12 HN10       -0.4880    0.0980   -0.8340 hn        1 B58      0.442300
     13 HN1A       -0.4740    0.1170    0.8710 hn        1 B58      0.442300
     14 H8          2.8520   -0.0860   -4.4150 h5        1 B58      0.073800
     15 HN9         4.9010   -0.0650   -2.8210 hn        1 B58      0.322700
     16 HN11        5.9320   -0.8430    0.5390 hn        1 B58      0.366800
     17 HN1B        5.9450    0.7860    0.6170 hn        1 B58      0.366800
@<TRIPOS>BOND
     1    1    2 1   
     2    1   12 1   
     3    1   13 1   
     4    2    3 ar  
     5    2    5 ar  
     6    3    4 ar  
     7    4   10 ar  
     8    5    6 1   
     9    5    9 ar  
    10    6    7 2   
    11    7    8 1   
    12    7   14 1   
    13    8    9 1   
    14    8   15 1   
    15    9   10 ar  
    16   10   11 1   
    17   11   16 1   
    18   11   17 1   
@<TRIPOS>SUBSTRUCTURE
     1 B58         1 TEMP              0 ****  ****    0 ROOT
