@<TRIPOS>MOLECULE
B59
   25    26     1     0     0
SMALL
bcc


@<TRIPOS>ATOM
      1 O17         0.9280   -2.7450   -0.0680 o         1 B59     -0.554500
      2 C1          1.0450   -1.5140   -0.0330 c         1 B59      0.748700
      3 N2          2.3440   -0.9520   -0.0110 n         1 B59     -0.489400
      4 C16         3.5050   -1.8160   -0.0400 c3        1 B59      0.077300
      5 C6         -0.0880   -0.5610   -0.0100 cc        1 B59     -0.142600
      6 C5          0.1670    0.8460    0.0100 cd        1 B59      0.261200
      7 N4          1.4720    1.3330    0.0110 n         1 B59     -0.382000
      8 C14         1.7410    2.7510    0.0240 c3        1 B59      0.056300
      9 C3          2.5800    0.4270   -0.0030 c         1 B59      0.819500
     10 O15         3.7360    0.8970   -0.0010 o         1 B59     -0.616500
     11 N7         -1.3600   -1.0790   -0.0100 nc        1 B59     -0.350300
     12 C8         -2.3870   -0.2580    0.0080 cd        1 B59      0.203300
     13 C11        -3.7990   -0.7410    0.0100 c         1 B59      0.502600
     14 O12        -4.1200   -1.9250    0.0040 o         1 B59     -0.479100
     15 C9         -2.2440    1.2190    0.0280 c         1 B59      0.594200
     16 O13        -3.1600    2.0530    0.0450 o         1 B59     -0.594500
     17 N10        -0.9140    1.7120    0.0280 n         1 B59     -0.455100
     18 H16         3.2010   -2.8540    0.2630 h1        1 B59      0.068367
     19 H16A        3.9340   -1.8370   -1.0760 h1        1 B59      0.068367
     20 H16B        4.2820   -1.4240    0.6700 h1        1 B59      0.068367
     21 H14         1.3110    3.2160    0.9510 h1        1 B59      0.071700
     22 H14A        2.8520    2.9280    0.0180 h1        1 B59      0.071700
     23 H14B        1.2980    3.2360   -0.8870 h1        1 B59      0.071700
     24 H11        -4.5410    0.0890    0.0180 h4        1 B59      0.036200
     25 HN10       -0.7830    2.7040    0.0420 hn        1 B59      0.343500
@<TRIPOS>BOND
     1    1    2 2   
     2    2    3 1   
     3    2    5 1   
     4    3    4 1   
     5    3    9 1   
     6    4   18 1   
     7    4   19 1   
     8    4   20 1   
     9    5    6 2   
    10    5   11 1   
    11    6    7 1   
    12    6   17 1   
    13    7    8 1   
    14    7    9 1   
    15    8   21 1   
    16    8   22 1   
    17    8   23 1   
    18    9   10 2   
    19   11   12 2   
    20   12   13 1   
    21   12   15 1   
    22   13   14 2   
    23   13   24 1   
    24   15   16 2   
    25   15   17 1   
    26   17   25 1   
@<TRIPOS>SUBSTRUCTURE
     1 B59         1 TEMP              0 ****  ****    0 ROOT
