@<TRIPOS>MOLECULE
B59
   25    26     1     0     0
SMALL
bcc


@<TRIPOS>ATOM
      1 O17        -0.0780    0.0520    0.0330 o         1 B59     -0.554500
      2 C1          1.1570    0.0180   -0.0110 c         1 B59      0.748700
      3 N2          1.8830   -0.0070    1.2050 n         1 B59     -0.489400
      4 C16         1.1770    0.0170    2.4680 c3        1 B59      0.077300
      5 C6          1.9570   -0.0010   -1.2570 cc        1 B59     -0.142600
      6 C5          3.3850   -0.0200   -1.1860 cd        1 B59      0.261200
      7 N4          4.0360   -0.0250    0.0450 n         1 B59     -0.382000
      8 C14         5.4770   -0.0380    0.1290 c3        1 B59      0.056300
      9 C3          3.2810   -0.0160    1.2600 c         1 B59      0.819500
     10 O15         3.8970   -0.0210    2.3460 o         1 B59     -0.616500
     11 N7          1.2790    0.0030   -2.4520 nc        1 B59     -0.350300
     12 C8          1.9600   -0.0120   -3.5760 cd        1 B59      0.203300
     13 C11         1.2980   -0.0100   -4.9140 c         1 B59      0.502600
     14 O12         0.0830   -0.0020   -5.0790 o         1 B59     -0.479100
     15 C9          3.4430   -0.0310   -3.6250 c         1 B59      0.594200
     16 O13         4.1520   -0.0440   -4.6420 o         1 B59     -0.594500
     17 N10         4.1040   -0.0350   -2.3700 ns        1 B59     -0.455100
     18 H16         1.6630   -0.6990    3.1840 h1        1 B59      0.068367
     19 H16A        0.1080   -0.2810    2.3000 h1        1 B59      0.068367
     20 H16B        1.2150    1.0500    2.9030 h1        1 B59      0.068367
     21 H14         5.7960   -0.0350    1.2080 h1        1 B59      0.071700
     22 H14A        5.9000    0.8750   -0.3710 h1        1 B59      0.071700
     23 H14B        5.8830   -0.9630   -0.3610 h1        1 B59      0.071700
     24 H11         2.0250   -0.0160   -5.7570 h4        1 B59      0.036200
     25 HN10        5.1040   -0.0480   -2.3680 hn        1 B59      0.343500
@<TRIPOS>BOND
     1    1    2 2   
     2    2    3 1   
     3    2    5 1   
     4    3    4 1   
     5    3    9 1   
     6    4   18 1   
     7    4   19 1   
     8    4   20 1   
     9    5    6 2   
    10    5   11 1   
    11    6    7 1   
    12    6   17 1   
    13    7    8 1   
    14    7    9 1   
    15    8   21 1   
    16    8   22 1   
    17    8   23 1   
    18    9   10 2   
    19   11   12 2   
    20   12   13 1   
    21   12   15 1   
    22   13   14 2   
    23   13   24 1   
    24   15   16 2   
    25   15   17 1   
    26   17   25 1   
@<TRIPOS>SUBSTRUCTURE
     1 B59         1 TEMP              0 ****  ****    0 ROOT
