@<TRIPOS>MOLECULE
B59
   25    23     1     0     0
SMALL
bcc


@<TRIPOS>ATOM
      1 O17        -2.7760   -0.1820    0.9210 o         1 B59     -0.291000
      2 C1         -1.5710   -0.0460    0.9260 c1        1 B59      0.390000
      3 N2         -0.8790    0.0340    2.1440 n2        1 B59     -0.297000
      4 C16        -1.6020    0.1410    3.3700 c3        1 B59     -0.087500
      5 C6         -0.8170   -0.0240   -0.3650 c2        1 B59     -0.265000
      6 C5          0.5620    0.0360   -0.3570 c1        1 B59      0.255000
      7 N4          1.2760    0.1080    0.9000 n2        1 B59     -0.297000
      8 C14         2.7070    0.1650    0.9070 c3        1 B59     -0.087500
      9 C3          0.5470    0.0840    2.1510 c2        1 B59      0.410000
     10 O15         1.1470    0.0690    3.2020 o         1 B59     -0.342000
     11 N7         -1.5450   -0.0600   -1.6420 n2        1 B59      0.041000
     12 C8         -0.8790   -0.1100   -2.7810 c1        1 B59     -0.212000
     13 C11        -1.6310   -0.2510   -4.0960 c1        1 B59      0.255000
     14 O12        -1.0170   -0.2970   -5.1470 o         1 B59     -0.242000
     15 C9          0.5990   -0.1010   -2.7720 c2        1 B59      0.326000
     16 O13         1.2150   -0.1470   -3.8200 o         1 B59     -0.291000
     17 N10         1.2800   -0.0400   -1.5720 n         1 B59     -0.304000
     18 H16        -2.5120   -0.1950    3.2430 h1        1 B59      0.109000
     19 H16A       -1.6360    1.0840    3.6490 h1        1 B59      0.109000
     20 H16B       -1.1500   -0.3890    4.0640 h1        1 B59      0.109000
     21 H14         3.0260    0.2780    1.8340 h1        1 B59      0.109000
     22 H14A        3.0690   -0.6660    0.5360 h1        1 B59      0.109000
     23 H14B        3.0060    0.9240    0.3630 h1        1 B59      0.109000
     24 H11        -2.6100   -0.3100   -4.0980 ha        1 B59      0.126000
     25 HN10        2.1900   -0.1040   -1.5600 hn        1 B59      0.256000
@<TRIPOS>BOND
     1    1    2 1   
     2    2    5 1   
     3    3    4 1   
     4    3    9 1   
     5    4   18 1   
     6    4   19 1   
     7    4   20 1   
     8    5    6 1   
     9    5   11 1   
    10    6   17 1   
    11    7    8 1   
    12    7    9 1   
    13    8   21 1   
    14    8   22 1   
    15    8   23 1   
    16    9   10 1   
    17   11   12 1   
    18   12   15 1   
    19   13   14 1   
    20   13   24 1   
    21   15   16 1   
    22   15   17 1   
    23   17   25 1   
@<TRIPOS>SUBSTRUCTURE
     1 B59         1 TEMP              0 ****  ****    0 ROOT
