@<TRIPOS>MOLECULE
B5A
   33    35     1     0     0
SMALL
bcc


@<TRIPOS>ATOM
      1 CAF         0.1170   -0.0810    0.0030 c3        1 B5A     -0.074900
      2 CAD         1.6430   -0.0250    0.0810 c3        1 B5A      0.163800
      3 NAL         2.1390    0.1810    1.4280 n3        1 B5A     -0.820200
      4 CAE         1.5390    1.3130    2.1060 c3        1 B5A      0.163800
      5 CAG         0.0110    1.2860    2.0820 c3        1 B5A     -0.074900
      6 CAP        -0.5020    1.1420    0.6560 c3        1 B5A     -0.087700
      7 CAH        -2.0340    1.0460    0.6980 c3        1 B5A      0.065300
      8 NAQ        -2.6960    1.2120   -0.5830 na        1 B5A     -0.002800
      9 NAK        -2.9790    0.2000   -1.4330 nc        1 B5A     -0.512100
     10 CAC        -3.4530    0.7150   -2.5840 cd        1 B5A      0.377800
     11 C5         -3.4560    2.1590   -2.5200 ca        1 B5A     -0.510500
     12 C4         -2.9330    2.4600   -1.1960 ca        1 B5A      0.471800
     13 N3         -2.7710    3.7330   -0.7200 nb        1 B5A     -0.737000
     14 C2         -3.1520    4.6750   -1.6120 ca        1 B5A      0.693900
     15 N1         -3.6520    4.5420   -2.8720 nb        1 B5A     -0.797000
     16 C6         -3.8250    3.2620   -3.3460 ca        1 B5A      0.758200
     17 NAA        -4.3830    3.0450   -4.5850 nh        1 B5A     -0.958500
     18 H1         -0.1790   -0.1390   -1.0750 hc        1 B5A      0.052700
     19 H2         -0.2540   -1.0090    0.5120 hc        1 B5A      0.052700
     20 H3          2.0000    0.7790   -0.6290 h1        1 B5A      0.028700
     21 H4          2.0610   -1.0070   -0.2810 h1        1 B5A      0.028700
     22 H5          3.1370    0.2850    1.4110 hn        1 B5A      0.361800
     23 H7          1.8860    1.2820    3.1780 h1        1 B5A      0.028700
     24 H8          1.8770    2.2990    1.6670 h1        1 B5A      0.028700
     25 H9         -0.3640    0.4340    2.7060 hc        1 B5A      0.052700
     26 H10        -0.3680    2.2390    2.5330 hc        1 B5A      0.052700
     27 H11        -0.2020    2.0590    0.0750 hc        1 B5A      0.065700
     28 H12        -2.3290    0.0450    1.1250 h1        1 B5A      0.075700
     29 H13        -2.4310    1.8610    1.3700 h1        1 B5A      0.075700
     30 H14        -3.7790    0.0810   -3.4090 h4        1 B5A      0.050800
     31 H15        -3.0360    5.7280   -1.2720 h5        1 B5A      0.052100
     32 H16        -4.3260    2.1340   -4.9630 hn        1 B5A      0.437800
     33 H17        -4.5370    3.8080   -5.1980 hn        1 B5A      0.437800
@<TRIPOS>BOND
     1    1    2 1   
     2    1    6 1   
     3    1   18 1   
     4    1   19 1   
     5    2    3 1   
     6    2   20 1   
     7    2   21 1   
     8    3    4 1   
     9    3   22 1   
    10    4    5 1   
    11    4   23 1   
    12    4   24 1   
    13    5    6 1   
    14    5   25 1   
    15    5   26 1   
    16    6    7 1   
    17    6   27 1   
    18    7    8 1   
    19    7   28 1   
    20    7   29 1   
    21    8    9 1   
    22    8   12 1   
    23    9   10 2   
    24   10   11 1   
    25   10   30 1   
    26   11   12 ar  
    27   11   16 ar  
    28   12   13 ar  
    29   13   14 ar  
    30   14   15 ar  
    31   14   31 1   
    32   15   16 ar  
    33   16   17 1   
    34   17   32 1   
    35   17   33 1   
@<TRIPOS>SUBSTRUCTURE
     1 B5A         1 TEMP              0 ****  ****    0 ROOT
