@<TRIPOS>MOLECULE
B5A
   33    35     1     0     0
SMALL
bcc


@<TRIPOS>ATOM
      1 CAF         0.1170   -0.0820    0.0060 c3        1 B5A     -0.074900
      2 CAD         1.6420   -0.0280    0.0830 c3        1 B5A      0.163800
      3 NAL         2.1400    0.1820    1.4290 n7        1 B5A     -0.820200
      4 CAE         1.5410    1.3160    2.1040 c3        1 B5A      0.163800
      5 CAG         0.0140    1.2910    2.0810 c3        1 B5A     -0.074900
      6 CAP        -0.5010    1.1440    0.6560 c3        1 B5A     -0.087700
      7 CAH        -2.0320    1.0500    0.6990 c3        1 B5A      0.065300
      8 NAQ        -2.6950    1.2130   -0.5810 na        1 B5A     -0.002800
      9 NAK        -2.9790    0.2000   -1.4300 nc        1 B5A     -0.512100
     10 CAC        -3.4540    0.7130   -2.5810 cd        1 B5A      0.377800
     11 C5         -3.4580    2.1570   -2.5200 ca        1 B5A     -0.510500
     12 C4         -2.9330    2.4600   -1.1970 ca        1 B5A      0.471800
     13 N3         -2.7720    3.7340   -0.7230 nb        1 B5A     -0.737000
     14 C2         -3.1540    4.6750   -1.6160 ca        1 B5A      0.693900
     15 N1         -3.6550    4.5390   -2.8750 nb        1 B5A     -0.797000
     16 C6         -3.8280    3.2580   -3.3470 ca        1 B5A      0.758200
     17 NAA        -4.3870    3.0400   -4.5850 nv        1 B5A     -0.958500
     18 H1         -0.1800   -0.1430   -1.0720 hc        1 B5A      0.052700
     19 H2         -0.2560   -1.0080    0.5170 hc        1 B5A      0.052700
     20 H3          2.0590   -1.0110   -0.2760 h1        1 B5A      0.028700
     21 H4          2.0000    0.7740   -0.6290 h1        1 B5A      0.028700
     22 H5          3.1380    0.2840    1.4100 hn        1 B5A      0.361800
     23 H7          1.8810    2.3000    1.6620 h1        1 B5A      0.028700
     24 H8          1.8890    1.2870    3.1750 h1        1 B5A      0.028700
     25 H9         -0.3620    0.4410    2.7070 hc        1 B5A      0.052700
     26 H10        -0.3640    2.2450    2.5300 hc        1 B5A      0.052700
     27 H11        -0.2000    2.0580    0.0720 hc        1 B5A      0.065700
     28 H12        -2.3290    0.0500    1.1280 h1        1 B5A      0.075700
     29 H13        -2.4280    1.8660    1.3700 h1        1 B5A      0.075700
     30 H14        -3.7810    0.0770   -3.4050 h4        1 B5A      0.050800
     31 H15        -3.0370    5.7280   -1.2780 h5        1 B5A      0.052100
     32 H16        -4.3300    2.1270   -4.9620 hn        1 B5A      0.437800
     33 H17        -4.5410    3.8010   -5.1990 hn        1 B5A      0.437800
@<TRIPOS>BOND
     1    1    2 1   
     2    1    6 1   
     3    1   18 1   
     4    1   19 1   
     5    2    3 1   
     6    2   20 1   
     7    2   21 1   
     8    3    4 1   
     9    3   22 1   
    10    4    5 1   
    11    4   23 1   
    12    4   24 1   
    13    5    6 1   
    14    5   25 1   
    15    5   26 1   
    16    6    7 1   
    17    6   27 1   
    18    7    8 1   
    19    7   28 1   
    20    7   29 1   
    21    8    9 1   
    22    8   12 1   
    23    9   10 2   
    24   10   11 1   
    25   10   30 1   
    26   11   12 ar  
    27   11   16 ar  
    28   12   13 ar  
    29   13   14 ar  
    30   14   15 ar  
    31   14   31 1   
    32   15   16 ar  
    33   16   17 1   
    34   17   32 1   
    35   17   33 1   
@<TRIPOS>SUBSTRUCTURE
     1 B5A         1 TEMP              0 ****  ****    0 ROOT
