@<TRIPOS>MOLECULE
B5A
   34    36     1     0     0
SMALL
bcc


@<TRIPOS>ATOM
      1 CAF         0.1030   -0.0890    0.0350 c3        1 B5A     -0.077900
      2 CAD         1.6280   -0.1070    0.1440 c3        1 B5A      0.166800
      3 NAL         2.0940    0.0730    1.5030 n3        1 B5A     -0.823200
      4 CAE         1.5580    1.2520    2.1500 c3        1 B5A      0.166800
      5 CAG         0.0310    1.3080    2.1030 c3        1 B5A     -0.077900
      6 CAP        -0.4680    1.1690    0.6690 c3        1 B5A     -0.083700
      7 CAH        -2.0000    1.1380    0.7060 c3        1 B5A      0.049300
      8 NAQ        -2.6430    1.2810   -0.6020 na        1 B5A      0.043200
      9 NAK        -3.0110    0.2580   -1.3870 nc        1 B5A     -0.418100
     10 CAC        -3.5160    0.7260   -2.5480 cd        1 B5A      0.338800
     11 C5         -3.4700    2.1690   -2.5540 ca        1 B5A     -0.435500
     12 C4         -2.8710    2.5100   -1.2450 ca        1 B5A      0.456800
     13 N3         -2.6510    3.7930   -0.8400 nb        1 B5A     -0.616000
     14 C2         -3.0250    4.7280   -1.7370 ca        1 B5A      0.684900
     15 N1         -3.5890    4.5460   -2.9760 nb        1 B5A     -0.694000
     16 C6         -3.8030    3.2680   -3.3590 ca        1 B5A      0.551200
     17 NAA        -4.4200    3.0360   -4.6850 n4        1 B5A     -0.826300
     18 H1         -0.3220   -0.9950    0.5420 hc        1 B5A      0.054200
     19 H2         -0.1730   -0.1410   -1.0490 hc        1 B5A      0.054200
     20 H3          2.0040   -1.1080   -0.2110 h1        1 B5A      0.036200
     21 H4          2.0390    0.6800   -0.5560 h1        1 B5A      0.036200
     22 H5          3.0970    0.0820    1.5320 hn        1 B5A      0.378800
     23 H7          1.8850    1.2240    3.2280 h1        1 B5A      0.036200
     24 H8          1.9570    2.2080    1.6960 h1        1 B5A      0.036200
     25 H9         -0.3040    2.2870    2.5330 hc        1 B5A      0.054200
     26 H10        -0.3970    0.4860    2.7340 hc        1 B5A      0.054200
     27 H11        -0.1200    2.0650    0.0830 hc        1 B5A      0.060700
     28 H12        -2.3450    0.1640    1.1590 h1        1 B5A      0.096200
     29 H13        -2.3770    1.9940    1.3380 h1        1 B5A      0.096200
     30 H14        -3.8860    0.0470   -3.3190 h4        1 B5A      0.071800
     31 H15        -2.8610    5.7940   -1.4490 h5        1 B5A      0.102100
     32 H16        -4.3510    2.0380   -4.9120 hn        1 B5A      0.476133
     33 H17        -3.9360    3.5910   -5.4040 hn        1 B5A      0.476133
     34 HAA3       -5.4080    3.3190   -4.6570 hn        1 B5A      0.476133
@<TRIPOS>BOND
     1    1    2 1   
     2    1    6 1   
     3    1   18 1   
     4    1   19 1   
     5    2    3 1   
     6    2   20 1   
     7    2   21 1   
     8    3    4 1   
     9    3   22 1   
    10    4    5 1   
    11    4   23 1   
    12    4   24 1   
    13    5    6 1   
    14    5   25 1   
    15    5   26 1   
    16    6    7 1   
    17    6   27 1   
    18    7    8 1   
    19    7   28 1   
    20    7   29 1   
    21    8    9 1   
    22    8   12 1   
    23    9   10 2   
    24   10   11 1   
    25   10   30 1   
    26   11   12 ar  
    27   11   16 ar  
    28   12   13 ar  
    29   13   14 ar  
    30   14   15 ar  
    31   14   31 1   
    32   15   16 ar  
    33   16   17 1   
    34   17   32 1   
    35   17   33 1   
    36   17   34 1   
@<TRIPOS>SUBSTRUCTURE
     1 B5A         1 TEMP              0 ****  ****    0 ROOT
