@<TRIPOS>MOLECULE
B5A
   33    35     1     0     0
SMALL
bcc


@<TRIPOS>ATOM
      1 CAF         2.5060    1.1490    0.2180 c3        1 B5A     -0.074900
      2 CAD         3.5840    1.0130    1.2930 c3        1 B5A      0.163800
      3 NAL         4.6780    0.1450    0.9010 n3        1 B5A     -0.820200
      4 CAE         4.2490   -1.1540    0.4210 c3        1 B5A      0.163800
      5 CAG         3.1920   -1.0700   -0.6790 c3        1 B5A     -0.074900
      6 CAP         2.0150   -0.2160   -0.2300 c3        1 B5A     -0.087700
      7 CAH         1.0220   -0.1050   -1.3950 c3        1 B5A      0.065300
      8 NAQ        -0.2870    0.4120   -1.0410 na        1 B5A     -0.002800
      9 NAK        -0.6190    1.7230   -1.0520 nc        1 B5A     -0.512100
     10 CAC        -1.8480    1.8680   -0.5200 cd        1 B5A      0.377800
     11 C5         -2.3610    0.5860   -0.0940 ca        1 B5A     -0.509500
     12 C4         -1.3010   -0.3530   -0.4280 ca        1 B5A      0.471800
     13 N3         -1.3820   -1.6990   -0.1890 nb        1 B5A     -0.736000
     14 C2         -2.5530   -2.0560    0.3860 ca        1 B5A      0.693900
     15 N1         -3.6230   -1.2950    0.7460 nb        1 B5A     -0.796000
     16 C6         -3.5380    0.0580    0.5150 ca        1 B5A      0.756200
     17 NAA        -4.5560    0.9000    0.9050 nh        1 B5A     -0.954500
     18 H1          1.6600    1.7490    0.6410 hc        1 B5A      0.052450
     19 H2          2.9170    1.7100   -0.6610 hc        1 B5A      0.052450
     20 H3          4.0240    2.0300    1.4970 h1        1 B5A      0.028450
     21 H4          3.0860    0.6610    2.2450 h1        1 B5A      0.028450
     22 H5          5.3150    0.0320    1.6670 hn        1 B5A      0.361800
     23 H7          5.1600   -1.6740    0.0100 h1        1 B5A      0.028450
     24 H8          3.8360   -1.7980    1.2540 h1        1 B5A      0.028450
     25 H9          3.6430   -0.6320   -1.6070 hc        1 B5A      0.052450
     26 H10         2.8450   -2.1080   -0.9190 hc        1 B5A      0.052450
     27 H11         1.5140   -0.7280    0.6390 hc        1 B5A      0.065700
     28 H12         1.4620    0.5580   -2.1940 h1        1 B5A      0.075700
     29 H13         0.8520   -1.1330   -1.8270 h1        1 B5A      0.075700
     30 H14        -2.3350    2.8420   -0.4480 h4        1 B5A      0.050800
     31 H15        -2.6660   -3.1420    0.5990 h5        1 B5A      0.052100
     32 H16        -4.5480    1.8220    0.5470 hn        1 B5A      0.435800
     33 H17        -5.4190    0.5180    1.2080 hn        1 B5A      0.435800
@<TRIPOS>BOND
     1    1    2 1   
     2    1    6 1   
     3    1   18 1   
     4    1   19 1   
     5    2    3 1   
     6    2   20 1   
     7    2   21 1   
     8    3    4 1   
     9    3   22 1   
    10    4    5 1   
    11    4   23 1   
    12    4   24 1   
    13    5    6 1   
    14    5   25 1   
    15    5   26 1   
    16    6    7 1   
    17    6   27 1   
    18    7    8 1   
    19    7   28 1   
    20    7   29 1   
    21    8    9 1   
    22    8   12 1   
    23    9   10 2   
    24   10   11 1   
    25   10   30 1   
    26   11   12 ar  
    27   11   16 ar  
    28   12   13 ar  
    29   13   14 ar  
    30   14   15 ar  
    31   14   31 1   
    32   15   16 ar  
    33   16   17 1   
    34   17   32 1   
    35   17   33 1   
@<TRIPOS>SUBSTRUCTURE
     1 B5A         1 TEMP              0 ****  ****    0 ROOT
