@<TRIPOS>MOLECULE
B5A
   33    31     1     0     0
SMALL
bcc


@<TRIPOS>ATOM
      1 CAF         1.4850    2.2500    0.0200 c3        1 B5A     -0.075400
      2 CAD         2.9800    2.0820    0.2110 c3        1 B5A      0.161300
      3 NAL         3.3580    1.9690    1.6280 n3        1 B5A     -0.820200
      4 CAE         2.5840    0.9360    2.3490 c3        1 B5A      0.161300
      5 CAG         1.0890    1.1000    2.1670 c3        1 B5A     -0.075400
      6 CAP         0.7020    1.2090    0.7360 c3        1 B5A     -0.084700
      7 CAH         0.9430   -0.1780    0.0370 c3        1 B5A      0.240800
      8 NAQ        -0.2880   -0.6300   -0.5780 nh        1 B5A     -0.265300
      9 NAK         0.0680   -0.8120   -1.8890 n2        1 B5A     -0.354100
     10 CAC        -0.9590   -1.4190   -2.5200 c1        1 B5A      0.097400
     11 C5         -1.9760   -1.6210   -1.5910 c1        1 B5A     -0.296000
     12 C4         -1.5580   -1.1370   -0.4060 c1        1 B5A      0.461600
     13 N3         -2.3940   -1.1570    0.6690 n1        1 B5A     -0.535800
     14 C2         -3.6570   -1.6700    0.5470 c1        1 B5A      0.414300
     15 N1         -4.0820   -2.1610   -0.6530 n1        1 B5A     -0.595800
     16 C6         -3.2620   -2.1430   -1.7140 c1        1 B5A      0.236000
     17 NAA        -4.1330   -2.6650   -2.7130 n3        1 B5A     -0.452400
     18 H1          1.2810    2.1980   -0.9330 hc        1 B5A      0.054450
     19 H2          1.2200    3.1340    0.3550 hc        1 B5A      0.054450
     20 H3          3.4370    2.8550   -0.1770 h1        1 B5A      0.027700
     21 H4          3.2690    1.2750   -0.2570 h1        1 B5A      0.027700
     22 H5          4.2520    1.7820    1.6920 hn        1 B5A      0.362800
     23 H7          2.7950    0.9920    3.3050 h1        1 B5A      0.027700
     24 H8          2.8470    0.0580    2.0180 h1        1 B5A      0.027700
     25 H9          0.8000    1.9100    2.6360 hc        1 B5A      0.054450
     26 H10         0.6360    0.3280    2.5600 hc        1 B5A      0.054450
     27 H11        -0.2440    1.4320    0.6800 hc        1 B5A      0.068700
     28 H12         1.6350   -0.0820   -0.6500 h1        1 B5A      0.074200
     29 H13         1.2340   -0.8330    0.7040 h1        1 B5A      0.074200
     30 H14        -0.9850   -1.6720   -3.4630 DU        1 B5A      0.180000
     31 H15        -4.2560   -1.6840    1.3200 ha        1 B5A      0.131500
     32 H16        -3.8320   -3.3070   -3.2950 hn        1 B5A      0.281200
     33 H17        -4.9910   -2.3400   -2.7910 hn        1 B5A      0.281200
@<TRIPOS>BOND
     1    1    2 1   
     2    1    6 1   
     3    1   18 1   
     4    1   19 1   
     5    2    3 1   
     6    2   20 1   
     7    2   21 1   
     8    3    4 1   
     9    3   22 1   
    10    4    5 1   
    11    4   23 1   
    12    4   24 1   
    13    5    6 1   
    14    5   25 1   
    15    5   26 1   
    16    6    7 1   
    17    6   27 1   
    18    7    8 1   
    19    7   28 1   
    20    7   29 1   
    21    8    9 1   
    22    8   12 1   
    23    9   10 2   
    24   10   11 2   
    25   11   16 2   
    26   12   13 3   
    27   14   15 3   
    28   14   31 1   
    29   16   17 2   
    30   17   32 1   
    31   17   33 1   
@<TRIPOS>SUBSTRUCTURE
     1 B5A         1 TEMP              0 ****  ****    0 ROOT
