@<TRIPOS>MOLECULE
B5D
   23    22     1     0     0
SMALL
bcc


@<TRIPOS>ATOM
      1 C1         -0.7640    0.3380    0.5880 c1        1 B5D      0.201000
      2 N1          0.5470    0.6590   -2.0660 n3        1 B5D     -0.880000
      3 O1          2.3000   -0.7200   -1.1890 o         1 B5D     -0.539900
      4 S1          1.4960    0.4440   -0.9390 s4        1 B5D      2.087800
      5 CL1         1.5400    0.3400    4.5120 cl        1 B5D     -0.005000
      6 C2          0.6830    0.3380    0.5880 c1        1 B5D     -0.887000
      7 N2         -1.5080    0.2750   -0.7940 n2        1 B5D     -0.334000
      8 O2          2.4610    1.5070   -0.8910 o         1 B5D     -0.539900
      9 C3          1.3720    0.3380    1.7850 c2        1 B5D      0.021000
     10 C4          0.6680    0.3380    3.0010 c2        1 B5D     -0.131000
     11 C5         -1.4550    0.3380    1.7890 c2        1 B5D     -0.212000
     12 C6         -0.7520    0.3380    3.0020 c2        1 B5D     -0.026000
     13 C7         -0.4940   -1.4890   -2.1360 c3        1 B5D     -0.261000
     14 C8         -0.7090    0.0440   -1.9980 c3        1 B5D      0.157000
     15 HN1         0.6930    1.3330   -2.6630 hn        1 B5D      0.257000
     16 HN2        -2.1780   -0.3430   -0.7510 hn        1 B5D      0.229000
     17 H3          2.3480    0.3290    1.7870 ha        1 B5D      0.163000
     18 H5         -2.4310    0.3380    1.7900 ha        1 B5D      0.142000
     19 H6         -1.2400    0.3390    3.8470 ha        1 B5D      0.150000
     20 H7          0.2340   -1.6600   -2.7640 hc        1 B5D      0.100000
     21 H7A        -0.2670   -1.8660   -1.2650 hc        1 B5D      0.100000
     22 H7B        -1.3130   -1.9040   -2.4670 hc        1 B5D      0.100000
     23 H8         -1.2310    0.3460   -2.7650 h2        1 B5D      0.109000
@<TRIPOS>BOND
     1    1    6 1   
     2    1   11 1   
     3    2    4 1   
     4    2   14 1   
     5    2   15 1   
     6    3    4 1   
     7    4    8 1   
     8    5   10 1   
     9    6    9 1   
    10    7   14 1   
    11    7   16 1   
    12    9   10 1   
    13    9   17 1   
    14   10   12 1   
    15   11   12 1   
    16   11   18 1   
    17   12   19 1   
    18   13   14 1   
    19   13   20 1   
    20   13   21 1   
    21   13   22 1   
    22   14   23 1   
@<TRIPOS>SUBSTRUCTURE
     1 B5D         1 TEMP              0 ****  ****    0 ROOT
