@<TRIPOS>MOLECULE
B5D
   23    24     1     0     0
SMALL
bcc


@<TRIPOS>ATOM
      1 C1          0.0230   -0.0440    0.0330 ca        1 B5D      0.282600
      2 N1          1.2670    0.1680   -2.5200 n3        1 B5D     -0.907100
      3 O1          2.8010   -1.5060   -1.4790 o         1 B5D     -0.652300
      4 S1          2.3690   -0.1740   -1.3730 sy        1 B5D      1.532200
      5 CL1         2.2980    0.4140    3.8990 cl        1 B5D     -0.083400
      6 C2          1.4400   -0.0100    0.0220 ca        1 B5D     -0.442500
      7 N2         -0.7140   -0.0690   -1.1410 nh        1 B5D     -0.778600
      8 O2          3.3890    0.7940   -1.4090 o         1 B5D     -0.652300
      9 C3          2.1260    0.1450    1.2360 ca        1 B5D      0.021000
     10 C4          1.4450    0.2290    2.4420 ca        1 B5D     -0.052600
     11 C5         -0.6610    0.0230    1.2800 ca        1 B5D     -0.212000
     12 C6          0.0420    0.1590    2.4610 ca        1 B5D     -0.026000
     13 C7         -0.1760   -1.8270   -2.8430 c3        1 B5D     -0.143100
     14 C8         -0.0890   -0.3330   -2.4470 c3        1 B5D      0.512700
     15 HN1         1.4070    0.8660   -3.2080 hn        1 B5D      0.461800
     16 HN2        -1.6530   -0.3910   -1.0700 hn        1 B5D      0.433800
     17 H3          3.2300    0.2050    1.2180 ha        1 B5D      0.163000
     18 H5         -1.7610   -0.0240    1.3080 ha        1 B5D      0.142000
     19 H6         -0.4980    0.2150    3.4200 ha        1 B5D      0.150000
     20 H7         -1.2320   -2.1770   -2.7660 hc        1 B5D      0.060700
     21 H7A         0.1630   -1.9440   -3.9000 hc        1 B5D      0.060700
     22 H7B         0.4710   -2.4630   -2.1920 hc        1 B5D      0.060700
     23 H8         -0.7250    0.2480   -3.1920 h2        1 B5D      0.069700
@<TRIPOS>BOND
     1    1    6 ar  
     2    1    7 1   
     3    1   11 ar  
     4    2    4 1   
     5    2   14 1   
     6    2   15 1   
     7    3    4 2   
     8    4    6 1   
     9    4    8 2   
    10    5   10 1   
    11    6    9 ar  
    12    7   14 1   
    13    7   16 1   
    14    9   10 ar  
    15    9   17 1   
    16   10   12 ar  
    17   11   12 ar  
    18   11   18 1   
    19   12   19 1   
    20   13   14 1   
    21   13   20 1   
    22   13   21 1   
    23   13   22 1   
    24   14   23 1   
@<TRIPOS>SUBSTRUCTURE
     1 B5D         1 TEMP              0 ****  ****    0 ROOT
