@<TRIPOS>MOLECULE
B5D
   23    24     1     0     0
SMALL
bcc


@<TRIPOS>ATOM
      1 C1          0.0200   -0.0470    0.0310 ca        1 B5D      0.282600
      2 N1          1.2760    0.1740   -2.5150 n3        1 B5D     -0.907100
      3 O1          2.8070   -1.5010   -1.4720 o         1 B5D     -0.652300
      4 S1          2.3730   -0.1700   -1.3640 sy        1 B5D      1.532200
      5 CL1         2.2750    0.4020    3.9090 cl        1 B5D     -0.083400
      6 C2          1.4370   -0.0100    0.0270 ca        1 B5D     -0.442500
      7 N2         -0.7110   -0.0690   -1.1470 nh        1 B5D     -0.778600
      8 O2          3.3920    0.7990   -1.3920 o         1 B5D     -0.652300
      9 C3          2.1170    0.1410    1.2450 ca        1 B5D      0.021000
     10 C4          1.4300    0.2210    2.4480 ca        1 B5D     -0.052600
     11 C5         -0.6710    0.0160    1.2750 ca        1 B5D     -0.212000
     12 C6          0.0260    0.1490    2.4590 ca        1 B5D     -0.026000
     13 C7         -0.1630   -1.8200   -2.8520 c3        1 B5D     -0.143100
     14 C8         -0.0790   -0.3280   -2.4500 c3        1 B5D      0.512700
     15 HN1         1.4180    0.8750   -3.2000 hn        1 B5D      0.461800
     16 HN2        -1.6510   -0.3920   -1.0820 hn        1 B5D      0.433800
     17 H3          3.2210    0.2020    1.2320 ha        1 B5D      0.163000
     18 H5         -1.7700   -0.0320    1.2970 ha        1 B5D      0.142000
     19 H6         -0.5180    0.2020    3.4160 ha        1 B5D      0.150000
     20 H7         -1.2190   -2.1720   -2.7810 hc        1 B5D      0.060700
     21 H7A         0.1810   -1.9330   -3.9080 hc        1 B5D      0.060700
     22 H7B         0.4820   -2.4580   -2.2000 hc        1 B5D      0.060700
     23 H8         -0.7120    0.2560   -3.1970 h2        1 B5D      0.069700
@<TRIPOS>BOND
     1    1    6 ar  
     2    1    7 1   
     3    1   11 ar  
     4    2    4 1   
     5    2   14 1   
     6    2   15 1   
     7    3    4 2   
     8    4    6 1   
     9    4    8 2   
    10    5   10 1   
    11    6    9 ar  
    12    7   14 1   
    13    7   16 1   
    14    9   10 ar  
    15    9   17 1   
    16   10   12 ar  
    17   11   12 ar  
    18   11   18 1   
    19   12   19 1   
    20   13   14 1   
    21   13   20 1   
    22   13   21 1   
    23   13   22 1   
    24   14   23 1   
@<TRIPOS>SUBSTRUCTURE
     1 B5D         1 TEMP              0 ****  ****    0 ROOT
