@<TRIPOS>MOLECULE
B5D
   23    24     1     0     0
SMALL
bcc


@<TRIPOS>ATOM
      1 C1          0.0920    1.2660    0.2290 ca        1 B5D      0.282600
      2 N1          2.4850   -0.2610    0.4610 n3        1 B5D     -0.907100
      3 O1          1.4130   -1.5050   -1.4210 o         1 B5D     -0.652300
      4 S1          1.2590   -1.1950   -0.0600 sy        1 B5D      1.532200
      5 CL1        -4.0070   -0.6120    0.2210 cl        1 B5D     -0.083400
      6 C2         -0.0430   -0.1410    0.1180 ca        1 B5D     -0.442500
      7 N2          1.3350    1.8700    0.3500 nh        1 B5D     -0.778600
      8 O2          1.1240   -2.3010    0.7990 o         1 B5D     -0.652300
      9 C3         -1.3280   -0.7040    0.1290 ca        1 B5D      0.021000
     10 C4         -2.4610    0.0920    0.2120 ca        1 B5D     -0.052600
     11 C5         -1.0810    2.0710    0.2930 ca        1 B5D     -0.212000
     12 C6         -2.3330    1.4890    0.2860 ca        1 B5D     -0.026000
     13 C7          3.0910    1.3250   -1.3510 c3        1 B5D     -0.143100
     14 C8          2.5850    1.1360    0.1000 c3        1 B5D      0.512700
     15 HN1         3.1050   -0.5410    1.1810 hn        1 B5D      0.461800
     16 HN2         1.3820    2.8390    0.1230 hn        1 B5D      0.433800
     17 H3         -1.4260   -1.8040    0.0750 ha        1 B5D      0.163000
     18 H5         -0.9930    3.1660    0.3590 ha        1 B5D      0.142000
     19 H6         -3.2340    2.1220    0.3410 ha        1 B5D      0.150000
     20 H7          2.4230    0.8150   -2.0880 hc        1 B5D      0.060700
     21 H7A         3.1460    2.4120   -1.5940 hc        1 B5D      0.060700
     22 H7B         4.1130    0.8860   -1.4390 hc        1 B5D      0.060700
     23 H8          3.3490    1.6290    0.7870 h2        1 B5D      0.069700
@<TRIPOS>BOND
     1    1    6 ar  
     2    1    7 1   
     3    1   11 ar  
     4    2    4 1   
     5    2   14 1   
     6    2   15 1   
     7    3    4 2   
     8    4    6 1   
     9    4    8 2   
    10    5   10 1   
    11    6    9 ar  
    12    7   14 1   
    13    7   16 1   
    14    9   10 ar  
    15    9   17 1   
    16   10   12 ar  
    17   11   12 ar  
    18   11   18 1   
    19   12   19 1   
    20   13   14 1   
    21   13   20 1   
    22   13   21 1   
    23   13   22 1   
    24   14   23 1   
@<TRIPOS>SUBSTRUCTURE
     1 B5D         1 TEMP              0 ****  ****    0 ROOT
