@<TRIPOS>MOLECULE
B5D
   23    24     1     0     0
SMALL
bcc


@<TRIPOS>ATOM
      1 C1          0.0230   -0.0440    0.0330 ca        1 B5D      0.282600
      2 N1          1.2660    0.1660   -2.5200 n7        1 B5D     -0.907100
      3 O1          2.8000   -1.5070   -1.4790 o         1 B5D     -0.652300
      4 S1          2.3690   -0.1750   -1.3740 sy        1 B5D      1.532200
      5 Cl1         2.3000    0.4160    3.8980 cl        1 B5D     -0.083400
      6 C2          1.4400   -0.0090    0.0210 ca        1 B5D     -0.442500
      7 N2         -0.7140   -0.0690   -1.1410 nu        1 B5D     -0.778600
      8 O2          3.3890    0.7930   -1.4110 o         1 B5D     -0.652300
      9 C3          2.1270    0.1460    1.2350 ca        1 B5D      0.021000
     10 C4          1.4470    0.2310    2.4410 ca        1 B5D     -0.052600
     11 C5         -0.6600    0.0240    1.2810 ca        1 B5D     -0.212000
     12 C6          0.0430    0.1610    2.4610 ca        1 B5D     -0.026000
     13 C7         -0.1780   -1.8280   -2.8410 c3        1 B5D     -0.143100
     14 C8         -0.0900   -0.3340   -2.4460 c3        1 B5D      0.512700
     15 HN1         1.4050    0.8640   -3.2090 hn        1 B5D      0.461800
     16 HN2        -1.6540   -0.3910   -1.0690 hn        1 B5D      0.433800
     17 H3          3.2310    0.2060    1.2160 ha        1 B5D      0.163000
     18 H5         -1.7600   -0.0220    1.3090 ha        1 B5D      0.142000
     19 H6         -0.4960    0.2170    3.4210 ha        1 B5D      0.150000
     20 H7          0.1610   -1.9460   -3.8980 hc        1 B5D      0.060700
     21 H7A         0.4700   -2.4640   -2.1910 hc        1 B5D      0.060700
     22 H7B        -1.2340   -2.1790   -2.7640 hc        1 B5D      0.060700
     23 H8         -0.7260    0.2470   -3.1920 h2        1 B5D      0.069700
@<TRIPOS>BOND
     1    1    6 ar  
     2    1    7 1   
     3    1   11 ar  
     4    2    4 1   
     5    2   14 1   
     6    2   15 1   
     7    3    4 2   
     8    4    6 1   
     9    4    8 2   
    10    5   10 1   
    11    6    9 ar  
    12    7   14 1   
    13    7   16 1   
    14    9   10 ar  
    15    9   17 1   
    16   10   12 ar  
    17   11   12 ar  
    18   11   18 1   
    19   12   19 1   
    20   13   14 1   
    21   13   20 1   
    22   13   21 1   
    23   13   22 1   
    24   14   23 1   
@<TRIPOS>SUBSTRUCTURE
     1 B5D         1 TEMP              0 ****  ****    0 ROOT
