@<TRIPOS>MOLECULE
B5F
   42    43     1     0     0
SMALL
bcc


@<TRIPOS>ATOM
      1 C1         -0.2370    0.3290    0.0970 cp        1 B5F     -0.273000
      2 C2          1.1360   -0.1390    0.0900 ca        1 B5F      0.348100
      3 O2          1.6990   -0.6800   -1.0110 os        1 B5F     -0.530500
      4 P2          3.2580   -1.4290   -1.4780 p5        1 B5F      1.395900
      5 C3          1.9490   -0.0480    1.2610 ca        1 B5F     -0.427000
      6 C4          1.4880    0.4610    2.4870 ca        1 B5F      0.358100
      7 O4          2.2280    0.3690    3.6290 os        1 B5F     -0.632500
      8 P4          3.3740    0.9440    4.8360 p5        1 B5F      1.455900
      9 C5          0.1600    0.9210    2.4980 ca        1 B5F     -0.427000
     10 C6         -0.7050    0.8590    1.3630 ca        1 B5F      0.348100
     11 O6         -1.9680    1.3070    1.5250 os        1 B5F     -0.530500
     12 P6         -2.9910    1.9570    2.8430 p5        1 B5F      1.395900
     13 C1'        -1.1160    0.2700   -1.1280 cp        1 B5F      0.156000
     14 C2'        -1.9250   -0.8510   -1.4210 ca        1 B5F     -0.271500
     15 O21         3.4620   -2.6740   -0.6440 o         1 B5F     -0.960500
     16 O22         3.1360   -1.8010   -2.9390 o         1 B5F     -0.960500
     17 O23         4.3550   -0.4030   -1.3040 o         1 B5F     -0.960500
     18 C3'        -2.7630   -0.9270   -2.5740 ca        1 B5F      0.321600
     19 O3'        -3.4980   -2.0600   -2.7480 os        1 B5F     -0.616500
     20 P3'        -4.6520   -3.0650   -3.6300 p5        1 B5F      1.443400
     21 O31        -4.1170   -3.3990   -5.0040 o         1 B5F     -0.973500
     22 O32        -4.7520   -4.3240   -2.7890 o         1 B5F     -0.973500
     23 O33        -5.9980   -2.3800   -3.7030 o         1 B5F     -0.973500
     24 C4'        -2.7900    0.1680   -3.4700 ca        1 B5F     -0.376000
     25 O41         4.4960   -0.0740    4.8910 o         1 B5F     -0.978500
     26 O42         3.8970    2.3250    4.5120 o         1 B5F     -0.978500
     27 O43         2.6490    0.9270    6.1680 o         1 B5F     -0.978500
     28 C5'        -1.9970    1.3120   -3.2200 ca        1 B5F      0.321600
     29 O5'        -1.9700    2.4020   -4.0350 os        1 B5F     -0.616500
     30 P5'        -2.4710    3.3060   -5.4670 p5        1 B5F      1.443400
     31 O51        -1.6950    4.6050   -5.3630 o         1 B5F     -0.973500
     32 O52        -2.0750    2.5630   -6.7230 o         1 B5F     -0.973500
     33 O53        -3.9570    3.5830   -5.4220 o         1 B5F     -0.973500
     34 C6'        -1.1760    1.3380   -2.0530 ca        1 B5F     -0.271500
     35 O61        -2.3690    3.2400    3.3450 o         1 B5F     -0.960500
     36 O62        -4.3440    2.2520    2.2330 o         1 B5F     -0.960500
     37 O63        -3.1280    0.8960    3.9120 o         1 B5F     -0.960500
     38 H3          2.9750   -0.4300    1.1630 ha        1 B5F      0.116000
     39 H5         -0.2830    1.3350    3.4160 ha        1 B5F      0.116000
     40 H2'        -1.9180   -1.7080   -0.7380 ha        1 B5F      0.097000
     41 H4'        -3.4260    0.1290   -4.3590 ha        1 B5F      0.097000
     42 H6'        -0.5690    2.2330   -1.8760 ha        1 B5F      0.097000
@<TRIPOS>BOND
     1    1    2 ar  
     2    1   10 ar  
     3    1   13 1   
     4    2    3 1   
     5    2    5 ar  
     6    3    4 1   
     7    4   15 1   
     8    4   16 1   
     9    4   17 1   
    10    5    6 ar  
    11    5   38 1   
    12    6    7 1   
    13    6    9 ar  
    14    7    8 1   
    15    8   25 1   
    16    8   26 1   
    17    8   27 1   
    18    9   10 ar  
    19    9   39 1   
    20   10   11 1   
    21   11   12 1   
    22   12   35 1   
    23   12   36 1   
    24   12   37 1   
    25   13   14 ar  
    26   13   34 ar  
    27   14   18 ar  
    28   14   40 1   
    29   18   19 1   
    30   18   24 ar  
    31   19   20 1   
    32   20   21 1   
    33   20   22 1   
    34   20   23 1   
    35   24   28 ar  
    36   24   41 1   
    37   28   29 1   
    38   28   34 ar  
    39   29   30 1   
    40   30   31 1   
    41   30   32 1   
    42   30   33 1   
    43   34   42 1   
@<TRIPOS>SUBSTRUCTURE
     1 B5F         1 TEMP              0 ****  ****    0 ROOT
