@<TRIPOS>MOLECULE
B5F
   42    43     1     0     0
SMALL
bcc


@<TRIPOS>ATOM
      1 C1          0.8270   -0.0610    0.1260 cp        1 B5F     -0.273000
      2 C2          1.7140   -1.2060    0.0390 ca        1 B5F      0.348100
      3 O2          1.2430   -2.4610   -0.1230 os        1 B5F     -0.530500
      4 P2          1.8960   -4.1260   -0.2130 p5        1 B5F      1.395900
      5 C3          3.1310   -1.0470    0.1270 ca        1 B5F     -0.427000
      6 C4          3.7600    0.1940    0.3280 ca        1 B5F      0.358100
      7 O4          5.0960    0.2900    0.5870 os        1 B5F     -0.632500
      8 P4          6.7900    0.5020    0.1580 p5        1 B5F      1.455900
      9 C5          2.9070    1.3070    0.4070 ca        1 B5F     -0.427000
     10 C6          1.4840    1.2160    0.3280 ca        1 B5F      0.348100
     11 O6          0.7840    2.3650    0.4530 os        1 B5F     -0.530500
     12 P6          1.1140    4.0970    0.7670 p5        1 B5F      1.395900
     13 C1'        -0.6720   -0.1900    0.0130 cp        1 B5F      0.156000
     14 C2'        -1.4960   -0.4030    1.1410 ca        1 B5F     -0.271500
     15 O21         2.5770   -4.4470    1.0980 o         1 B5F     -0.960500
     16 O22         0.7100   -5.0430   -0.4170 o         1 B5F     -0.960500
     17 O23         2.8190   -4.2150   -1.4070 o         1 B5F     -0.960500
     18 C3'        -2.9150   -0.5280    1.0570 ca        1 B5F      0.321600
     19 O3'        -3.6020   -0.7310    2.2140 os        1 B5F     -0.616500
     20 P3'        -5.0870   -0.9830    3.1380 p5        1 B5F      1.443400
     21 O31        -5.7670   -2.2620    2.7040 o         1 B5F     -0.973500
     22 O32        -4.6050   -1.1070    4.5710 o         1 B5F     -0.973500
     23 O33        -6.0020    0.2140    3.0000 o         1 B5F     -0.973500
     24 C4'        -3.5320   -0.4350   -0.2130 ca        1 B5F     -0.376000
     25 O41         7.5220   -0.7310    0.6520 o         1 B5F     -0.978500
     26 O42         6.9820    0.6970   -1.3290 o         1 B5F     -0.978500
     27 O43         7.2910    1.6990    0.9420 o         1 B5F     -0.978500
     28 C5'        -2.7490   -0.2230   -1.3720 ca        1 B5F      0.321600
     29 O5'        -3.2710   -0.1230   -2.6260 os        1 B5F     -0.616500
     30 P5'        -4.6140   -0.1140   -3.7720 p5        1 B5F      1.443400
     31 O51        -3.9420    0.1100   -5.1130 o         1 B5F     -0.973500
     32 O52        -5.3240   -1.4490   -3.7630 o         1 B5F     -0.973500
     33 O53        -5.5590    1.0270   -3.4680 o         1 B5F     -0.973500
     34 C6'        -1.3350   -0.1050   -1.2320 ca        1 B5F     -0.271500
     35 O61         1.9780    4.6320   -0.3530 o         1 B5F     -0.960500
     36 O62        -0.2250    4.7990    0.7560 o         1 B5F     -0.960500
     37 O63         1.7530    4.2240    2.1320 o         1 B5F     -0.960500
     38 H3          3.7220   -1.9710    0.0530 ha        1 B5F      0.116000
     39 H5          3.3140    2.3160    0.5650 ha        1 B5F      0.116000
     40 H2'        -1.0350   -0.4770    2.1330 ha        1 B5F      0.097000
     41 H4'        -4.6190   -0.5280   -0.2990 ha        1 B5F      0.097000
     42 H6'        -0.7440    0.0600   -2.1410 ha        1 B5F      0.097000
@<TRIPOS>BOND
     1    1    2 ar  
     2    1   10 ar  
     3    1   13 1   
     4    2    3 1   
     5    2    5 ar  
     6    3    4 1   
     7    4   15 1   
     8    4   16 1   
     9    4   17 1   
    10    5    6 ar  
    11    5   38 1   
    12    6    7 1   
    13    6    9 ar  
    14    7    8 1   
    15    8   25 1   
    16    8   26 1   
    17    8   27 1   
    18    9   10 ar  
    19    9   39 1   
    20   10   11 1   
    21   11   12 1   
    22   12   35 1   
    23   12   36 1   
    24   12   37 1   
    25   13   14 ar  
    26   13   34 ar  
    27   14   18 ar  
    28   14   40 1   
    29   18   19 1   
    30   18   24 ar  
    31   19   20 1   
    32   20   21 1   
    33   20   22 1   
    34   20   23 1   
    35   24   28 ar  
    36   24   41 1   
    37   28   29 1   
    38   28   34 ar  
    39   29   30 1   
    40   30   31 1   
    41   30   32 1   
    42   30   33 1   
    43   34   42 1   
@<TRIPOS>SUBSTRUCTURE
     1 B5F         1 TEMP              0 ****  ****    0 ROOT
