@<TRIPOS>MOLECULE
B5F
   42    43     1     0     0
SMALL
bcc


@<TRIPOS>ATOM
      1 C1         -0.2370    0.3250    0.0970 cp        1 B5F     -0.273000
      2 C2          1.1380   -0.1360    0.0870 ca        1 B5F      0.348100
      3 O2          1.7030   -0.6680   -1.0180 os        1 B5F     -0.530500
      4 P2          3.2640   -1.4080   -1.4910 p5        1 B5F      1.395900
      5 C3          1.9510   -0.0490    1.2580 ca        1 B5F     -0.427000
      6 C4          1.4880    0.4490    2.4880 ca        1 B5F      0.358100
      7 O4          2.2290    0.3530    3.6290 os        1 B5F     -0.632500
      8 P4          3.3730    0.9270    4.8380 p5        1 B5F      1.455900
      9 C5          0.1580    0.9020    2.5020 ca        1 B5F     -0.427000
     10 C6         -0.7070    0.8430    1.3670 ca        1 B5F      0.348100
     11 O6         -1.9730    1.2830    1.5330 os        1 B5F     -0.530500
     12 P6         -2.9990    1.9160    2.8570 p5        1 B5F      1.395900
     13 C1'        -1.1160    0.2720   -1.1290 cp        1 B5F      0.156000
     14 C2'        -1.9200   -0.8500   -1.4300 ca        1 B5F     -0.271500
     15 O21         3.4720   -2.6580   -0.6650 o         1 B5F     -0.960167
     16 O22         3.1440   -1.7690   -2.9540 o         1 B5F     -0.960167
     17 O23         4.3570   -0.3790   -1.3090 o         1 B5F     -0.960167
     18 C3'        -2.7580   -0.9200   -2.5830 ca        1 B5F      0.321600
     19 O3'        -3.4880   -2.0550   -2.7670 os        1 B5F     -0.616500
     20 P3'        -4.6380   -3.0580   -3.6570 p5        1 B5F      1.443400
     21 O31        -4.1010   -3.3790   -5.0340 o         1 B5F     -0.973500
     22 O32        -4.7330   -4.3240   -2.8260 o         1 B5F     -0.973500
     23 O33        -5.9870   -2.3780   -3.7250 o         1 B5F     -0.973500
     24 C4'        -2.7890    0.1810   -3.4710 ca        1 B5F     -0.376000
     25 O41         4.5010   -0.0860    4.8860 o         1 B5F     -0.978500
     26 O42         3.8890    2.3120    4.5230 o         1 B5F     -0.978500
     27 O43         2.6490    0.8960    6.1700 o         1 B5F     -0.978500
     28 C5'        -2.0010    1.3270   -3.2110 ca        1 B5F      0.321600
     29 O5'        -1.9790    2.4240   -4.0180 os        1 B5F     -0.616500
     30 P5'        -2.4840    3.3370   -5.4430 p5        1 B5F      1.443400
     31 O51        -1.7130    4.6390   -5.3280 o         1 B5F     -0.973500
     32 O52        -2.0840    2.6060   -6.7050 o         1 B5F     -0.973500
     33 O53        -3.9710    3.6070   -5.3960 o         1 B5F     -0.973500
     34 C6'        -1.1810    1.3470   -2.0450 ca        1 B5F     -0.271500
     35 O61        -2.3840    3.1980    3.3700 o         1 B5F     -0.960167
     36 O62        -4.3530    2.2090    2.2490 o         1 B5F     -0.960167
     37 O63        -3.1300    0.8460    3.9170 o         1 B5F     -0.960167
     38 H3          2.9790   -0.4260    1.1560 ha        1 B5F      0.116000
     39 H5         -0.2870    1.3070    3.4230 ha        1 B5F      0.116000
     40 H2'        -1.9090   -1.7130   -0.7540 ha        1 B5F      0.097000
     41 H4'        -3.4250    0.1460   -4.3610 ha        1 B5F      0.097000
     42 H6'        -0.5770    2.2430   -1.8600 ha        1 B5F      0.097000
@<TRIPOS>BOND
     1    1    2 ar  
     2    1   10 ar  
     3    1   13 1   
     4    2    3 1   
     5    2    5 ar  
     6    3    4 1   
     7    4   15 1   
     8    4   16 1   
     9    4   17 1   
    10    5    6 ar  
    11    5   38 1   
    12    6    7 1   
    13    6    9 ar  
    14    7    8 1   
    15    8   25 1   
    16    8   26 1   
    17    8   27 1   
    18    9   10 ar  
    19    9   39 1   
    20   10   11 1   
    21   11   12 1   
    22   12   35 1   
    23   12   36 1   
    24   12   37 1   
    25   13   14 ar  
    26   13   34 ar  
    27   14   18 ar  
    28   14   40 1   
    29   18   19 1   
    30   18   24 ar  
    31   19   20 1   
    32   20   21 1   
    33   20   22 1   
    34   20   23 1   
    35   24   28 ar  
    36   24   41 1   
    37   28   29 1   
    38   28   34 ar  
    39   29   30 1   
    40   30   31 1   
    41   30   32 1   
    42   30   33 1   
    43   34   42 1   
@<TRIPOS>SUBSTRUCTURE
     1 B5F         1 TEMP              0 ****  ****    0 ROOT
