@<TRIPOS>MOLECULE
B5F
   42    38     1     0     0
SMALL
bcc


@<TRIPOS>ATOM
      1 C1          0.4280    0.0180    0.6420 c1        1 B5F     -0.273000
      2 C2          1.8130    0.0010    0.6180 c1        1 B5F      0.303000
      3 O2          2.4960    0.0480   -0.6100 o         1 B5F     -0.835875
      4 P2          3.6310   -1.0180   -0.8830 p5        1 B5F      1.334000
      5 C3          2.5260   -0.0180    1.8070 c2        1 B5F     -0.427000
      6 C4          1.8540   -0.0200    3.0180 c1        1 B5F      0.313000
      7 O4          2.5760   -0.0950    4.2220 os        1 B5F     -0.821000
      8 P4          3.0910    1.2490    4.8770 p5        1 B5F      1.689500
      9 C5          0.4690   -0.0030    3.0420 c1        1 B5F     -0.427000
     10 C6         -0.2440    0.0160    1.8530 c2        1 B5F      0.303000
     11 O6         -1.6490    0.1060    1.8780 os        1 B5F     -0.719000
     12 P6         -2.4050   -0.2410    3.2260 p5        1 B5F      1.629500
     13 C1'        -0.3490    0.0210   -0.6540 c1        1 B5F      0.156000
     14 C2'        -0.3890    1.1650   -1.4350 c2        1 B5F     -0.273000
     15 O21         4.9750   -0.4200   -0.5430 o         1 B5F     -0.835875
     16 O22         3.3920   -2.2380   -0.0260 o         1 B5F     -0.835875
     17 O23         3.6100   -1.4140   -2.3400 o         1 B5F     -0.835875
     18 C3'        -1.1190    1.1740   -2.6130 c1        1 B5F      0.276000
     19 O3'        -1.1330    2.3230   -3.4210 os        1 B5F     -0.805000
     20 P3'        -2.4760    3.1470   -3.5360 p5        1 B5F      1.676500
     21 O31        -2.1850    4.6150   -3.3340 o         1 B5F     -0.973500
     22 O32        -3.0810    2.9370   -4.9030 o         1 B5F     -0.973500
     23 O33        -3.4470    2.6770   -2.4780 o         1 B5F     -0.973500
     24 C4'        -1.8090    0.0390   -3.0100 c1        1 B5F     -0.376000
     25 O41         4.5240    1.0760    5.3190 o         1 B5F     -0.978500
     26 O42         3.0070    2.3660    3.8640 o         1 B5F     -0.978500
     27 O43         2.2320    1.5870    6.0720 o         1 B5F     -0.978500
     28 C5'        -1.7700   -1.1040   -2.2280 c1        1 B5F      0.277000
     29 O5'        -2.5280   -2.2300   -2.5920 o         1 B5F     -0.835875
     30 P5'        -1.9650   -3.1870   -3.7170 p5        1 B5F      1.334000
     31 O51        -1.7250   -4.5600   -3.1350 o         1 B5F     -0.835875
     32 O52        -2.9660   -3.2850   -4.8430 o         1 B5F     -0.835875
     33 O53        -0.6650   -2.6300   -4.2460 o         1 B5F     -0.835875
     34 C6'        -1.0390   -1.1140   -1.0500 c2        1 B5F     -0.270000
     35 O61        -3.7530    0.4380    3.2370 o         1 B5F     -0.960500
     36 O62        -2.5930   -1.7350    3.3280 o         1 B5F     -0.960500
     37 O63        -1.5880    0.2440    4.4000 o         1 B5F     -0.960500
     38 H3          3.5020   -0.0300    1.7900 ha        1 B5F      0.116000
     39 H5         -0.0040   -0.0000    3.8940 ha        1 B5F      0.116000
     40 H2'         0.0880    1.9680   -1.1500 ha        1 B5F      0.097000
     41 H4'        -2.3230    0.0460   -3.8390 ha        1 B5F      0.097000
     42 H6'        -1.0110   -1.9190   -0.4990 ha        1 B5F      0.097000
@<TRIPOS>BOND
     1    1    2 1   
     2    1   10 1   
     3    2    5 1   
     4    3    4 1   
     5    4   15 1   
     6    4   16 1   
     7    4   17 1   
     8    5    6 1   
     9    5   38 1   
    10    6    7 1   
    11    7    8 1   
    12    8   25 1   
    13    8   26 1   
    14    8   27 1   
    15    9   10 1   
    16    9   39 1   
    17   10   11 1   
    18   11   12 1   
    19   12   35 1   
    20   12   36 1   
    21   12   37 1   
    22   13   14 1   
    23   13   34 1   
    24   14   18 1   
    25   14   40 1   
    26   18   19 1   
    27   19   20 1   
    28   20   21 1   
    29   20   22 1   
    30   20   23 1   
    31   24   28 1   
    32   24   41 1   
    33   28   34 1   
    34   29   30 1   
    35   30   31 1   
    36   30   32 1   
    37   30   33 1   
    38   34   42 1   
@<TRIPOS>SUBSTRUCTURE
     1 B5F         1 TEMP              0 ****  ****    0 ROOT
