@<TRIPOS>MOLECULE
B5H
   22    23     1     0     0
SMALL
bcc


@<TRIPOS>ATOM
      1 N10        -0.1130   -0.0770    0.1480 n         1 B5H     -0.462100
      2 CA          1.2980   -0.1240    0.0160 cc        1 B5H     -0.067600
      3 CB          2.0540   -0.2560   -1.0880 cf        1 B5H     -0.078200
      4 CG          1.5650   -0.3360   -2.4520 ca        1 B5H     -0.071800
      5 CD1         2.2640    0.3460   -3.4620 ca        1 B5H     -0.100000
      6 CE1         1.8220    0.2890   -4.7800 ca        1 B5H     -0.129000
      7 CZ          0.6890   -0.4540   -5.1130 ca        1 B5H     -0.093000
      8 CE2        -0.0010   -1.1490   -4.1160 ca        1 B5H     -0.029900
      9 CD2         0.4350   -1.0930   -2.7890 ca        1 B5H     -0.096000
     10 C           1.8700   -0.0190    1.4220 c         1 B5H      0.707700
     11 N11         0.7650    0.1970    2.2690 n         1 B5H     -0.611500
     12 C2         -0.4380    0.2080    1.5090 c         1 B5H      0.799500
     13 BR1        -1.5140   -2.1610   -4.5570 br        1 B5H     -0.077100
     14 O2         -1.5760    0.4000    1.9590 o         1 B5H     -0.594500
     15 O3          3.0480   -0.0930    1.7720 o         1 B5H     -0.566500
     16 H10        -0.6940    0.2440   -0.5890 hn        1 B5H      0.345500
     17 HB          3.1530   -0.2870   -0.9610 ha        1 B5H      0.167000
     18 HD1         3.1610    0.9290   -3.2050 ha        1 B5H      0.142000
     19 HD2        -0.0940   -1.6680   -2.0110 ha        1 B5H      0.158000
     20 HE1         2.3690    0.8310   -5.5670 ha        1 B5H      0.143000
     21 HZ          0.3490   -0.4920   -6.1600 ha        1 B5H      0.151000
     22 H11         0.7890    0.2620    3.2550 hn        1 B5H      0.362500
@<TRIPOS>BOND
     1    1    2 1   
     2    1   12 1   
     3    1   16 1   
     4    2    3 2   
     5    2   10 1   
     6    3    4 1   
     7    3   17 1   
     8    4    5 ar  
     9    4    9 ar  
    10    5    6 ar  
    11    5   18 1   
    12    6    7 ar  
    13    6   20 1   
    14    7    8 ar  
    15    7   21 1   
    16    8    9 ar  
    17    8   13 1   
    18    9   19 1   
    19   10   11 1   
    20   10   15 2   
    21   11   12 1   
    22   11   22 1   
    23   12   14 2   
@<TRIPOS>SUBSTRUCTURE
     1 B5H         1 TEMP              0 ****  ****    0 ROOT
