@<TRIPOS>MOLECULE
B5H
   22    23     1     0     0
SMALL
bcc


@<TRIPOS>ATOM
      1 N10        -0.1120   -0.0690    0.1470 n         1 B5H     -0.462100
      2 CA          1.2990   -0.1220    0.0160 cc        1 B5H     -0.067600
      3 CB          2.0540   -0.2600   -1.0880 cf        1 B5H     -0.078200
      4 CG          1.5640   -0.3410   -2.4520 ca        1 B5H     -0.071800
      5 CD1         2.2660    0.3360   -3.4630 ca        1 B5H     -0.100000
      6 CE1         1.8230    0.2790   -4.7810 ca        1 B5H     -0.129000
      7 CZ          0.6870   -0.4610   -5.1120 ca        1 B5H     -0.093000
      8 CE2        -0.0050   -1.1510   -4.1140 ca        1 B5H     -0.029900
      9 CD2         0.4310   -1.0940   -2.7870 ca        1 B5H     -0.096000
     10 C           1.8710   -0.0170    1.4210 c         1 B5H      0.707700
     11 N11         0.7680    0.2060    2.2690 n         1 B5H     -0.611500
     12 C2         -0.4350    0.2220    1.5080 c         1 B5H      0.799500
     13 BR1        -1.5230   -2.1570   -4.5520 br        1 B5H     -0.077100
     14 O2         -1.5720    0.4190    1.9580 o         1 B5H     -0.594500
     15 O3          3.0490   -0.0960    1.7720 o         1 B5H     -0.566500
     16 H10        -0.6910    0.2540   -0.5900 hn        1 B5H      0.345500
     17 HB          3.1530   -0.2950   -0.9610 ha        1 B5H      0.167000
     18 HD1         3.1660    0.9170   -3.2080 ha        1 B5H      0.142000
     19 HD2        -0.1000   -1.6650   -2.0080 ha        1 B5H      0.158000
     20 HE1         2.3720    0.8170   -5.5690 ha        1 B5H      0.143000
     21 HZ          0.3470   -0.4990   -6.1590 ha        1 B5H      0.151000
     22 H11         0.7920    0.2730    3.2530 hn        1 B5H      0.362500
@<TRIPOS>BOND
     1    1    2 1   
     2    1   12 1   
     3    1   16 1   
     4    2    3 2   
     5    2   10 1   
     6    3    4 1   
     7    3   17 1   
     8    4    5 ar  
     9    4    9 ar  
    10    5    6 ar  
    11    5   18 1   
    12    6    7 ar  
    13    6   20 1   
    14    7    8 ar  
    15    7   21 1   
    16    8    9 ar  
    17    8   13 1   
    18    9   19 1   
    19   10   11 1   
    20   10   15 2   
    21   11   12 1   
    22   11   22 1   
    23   12   14 2   
@<TRIPOS>SUBSTRUCTURE
     1 B5H         1 TEMP              0 ****  ****    0 ROOT
