@<TRIPOS>MOLECULE
B5P
   55    56     1     0     0
SMALL
bcc


@<TRIPOS>ATOM
      1 C1          1.0460   -0.1630    1.6380 c2        1 B5P     -0.165000
      2 C2          1.5010    0.4780    0.3800 c3        1 B5P     -0.135000
      3 C3          0.9730    0.4630    2.8100 c2        1 B5P     -0.222000
      4 C4          2.5530   -0.3460   -0.3220 c3        1 B5P     -0.219000
      5 C5          1.7520   -0.8820   -3.1000 c1        1 B5P      0.039000
      6 C6          1.4420   -3.3360   -3.2310 c2        1 B5P      0.328000
      7 C7          1.9200   -4.6040   -3.7630 c2        1 B5P     -0.383000
      8 N1          2.1550   -2.0950   -3.5280 n         1 B5P     -0.192000
      9 N2          3.7770   -3.4440   -4.7780 na        1 B5P     -0.287000
     10 C8          3.1120   -4.6120   -4.5160 c2        1 B5P      0.392000
     11 O2          3.7370   -5.6670   -5.0690 oh        1 B5P     -0.228000
     12 N3          4.1730   -1.1550   -4.6970 n2        1 B5P     -0.188000
     13 C9          5.0150   -3.2020   -5.5400 c3        1 B5P     -0.159000
     14 C10         5.1960   -1.6730   -5.4330 c1        1 B5P      0.037000
     15 C11         3.3330   -2.1640   -4.3020 c2        1 B5P      0.298000
     16 C12         1.2040   -5.8680   -3.5030 c2        1 B5P      0.422000
     17 C13        -0.2780   -8.2810   -2.9650 ca        1 B5P     -0.815000
     18 C14        -0.8120   -7.0010   -2.6980 ca        1 B5P      0.135000
     19 C15        -2.1100   -6.8880   -2.1480 ca        1 B5P     -0.159000
     20 O6         -4.8150  -11.9230   -0.9070 o         1 B5P     -0.927500
     21 S2         -4.1190  -10.7310   -0.6330 s6        1 B5P      2.826000
     22 O5         -4.8870   -9.5840   -0.3610 o         1 B5P     -0.927500
     23 C18        -3.0880  -10.9990    0.6870 c3        1 B5P     -0.954000
     24 C17        -2.3400   -9.3100   -2.1340 ca        1 B5P      0.038000
     25 C19        -1.0480   -9.4090   -2.6810 ca        1 B5P     -0.031000
     26 S1          1.2880   -8.5320   -3.6150 s6        1 B5P      2.862000
     27 O4          1.1680   -9.1810   -4.8550 o         1 B5P     -0.927500
     28 O3          2.0590   -9.2240   -2.6670 o         1 B5P     -0.927500
     29 N4          1.7620   -7.0180   -3.7890 n2        1 B5P     -0.987000
     30 C16        -2.8620   -8.0180   -1.8790 ca        1 B5P     -0.086000
     31 N5         -0.0830   -5.8310   -2.9780 nu        1 B5P     -0.291000
     32 H11        -0.1690   -1.6460   -0.5620 ha        1 B5P      0.001000
     33 H21        -0.7150   -2.0100   -0.7330 ha        1 B5P      0.001000
     34 H31         0.7520   -1.2220    1.5360 ha        1 B5P      0.117000
     35 H2          0.6130    0.6000   -0.3010 hc        1 B5P      0.087500
     36 H13         0.6180   -0.0380    3.7200 ha        1 B5P      0.111500
     37 H23         1.9060    1.5060    0.5820 hc        1 B5P      0.087500
     38 H33         1.2610    1.5140    2.9420 ha        1 B5P      0.111500
     39 H14         2.1570   -1.3650   -0.5590 hc        1 B5P      0.077667
     40 H24         3.4570   -0.4650    0.3220 hc        1 B5P      0.077667
     41 H15         2.8610    0.1520   -1.2760 hc        1 B5P      0.077667
     42 H25         0.8100   -0.8950   -2.5020 ha        1 B5P      0.083000
     43 H12         3.2640   -6.5080   -4.8290 ho        1 B5P      0.324000
     44 H9          4.8910   -3.5250   -6.6070 h1        1 B5P      0.162000
     45 H10         5.8770   -3.7490   -5.0760 h1        1 B5P      0.162000
     46 H15A       -2.5420   -5.8970   -1.9340 ha        1 B5P      0.153000
     47 H118       -2.4860  -11.9360    0.5960 h1        1 B5P      0.160333
     48 H218       -2.3620  -10.1720    0.8760 h1        1 B5P      0.160333
     49 H318       -3.6840  -11.1050    1.6300 h1        1 B5P      0.160333
     50 HN6        -2.9170  -11.1980   -2.5300 hn        1 B5P      0.258000
     51 H19        -0.6160  -10.4020   -2.9050 ha        1 B5P      0.156000
     52 H16        -3.8780   -7.8960   -1.4570 ha        1 B5P      0.184000
     53 H22        -0.5040   -4.9590   -2.7240 hn        1 B5P      0.284000
     54 O1          0.4450   -3.1790   -2.5050 o         1 B5P     -0.330000
     55 N6         -3.0880  -10.4690   -1.8710 nu        1 B5P     -0.832000
@<TRIPOS>BOND
     1    1    2 1   
     2    1    3 1   
     3    1   34 1   
     4    2    4 1   
     5    2   35 1   
     6    2   37 1   
     7    3   36 1   
     8    3   38 1   
     9    4   39 1   
    10    4   40 1   
    11    4   41 1   
    12    5    8 1   
    13    5   42 1   
    14    6    7 1   
    15    6    8 1   
    16    6   54 1   
    17    7   10 1   
    18    7   16 1   
    19    8   15 1   
    20    9   10 1   
    21    9   13 1   
    22    9   15 1   
    23   10   11 1   
    24   11   43 1   
    25   12   14 1   
    26   12   15 1   
    27   13   14 1   
    28   13   44 1   
    29   13   45 1   
    30   16   29 1   
    31   16   31 1   
    32   17   18 1   
    33   17   25 1   
    34   17   26 1   
    35   18   19 1   
    36   18   31 1   
    37   19   30 1   
    38   19   46 1   
    39   20   21 1   
    40   21   22 1   
    41   21   23 1   
    42   21   55 1   
    43   23   47 1   
    44   23   48 1   
    45   23   49 1   
    46   24   25 1   
    47   24   30 1   
    48   24   55 1   
    49   25   51 1   
    50   26   27 1   
    51   26   28 1   
    52   26   29 1   
    53   30   52 1   
    54   31   53 1   
    55   32   33 1   
    56   50   55 1   
@<TRIPOS>SUBSTRUCTURE
     1 B5P         1 TEMP              0 ****  ****    0 ROOT
