@<TRIPOS>MOLECULE
B5P
   56    58     1     0     0
SMALL
bcc


@<TRIPOS>ATOM
      1 C1          0.1130   -0.7640    0.1550 cx        1 B5P     -0.220500
      2 C2          1.0940    0.2900    0.6000 cx        1 B5P     -0.159000
      3 C3          0.1490   -0.3340    1.5910 cx        1 B5P     -0.220500
      4 C4          2.5470   -0.0260    0.6620 c3        1 B5P     -0.194000
      5 C5          2.5110   -0.9420   -2.6370 c1        1 B5P      0.055000
      6 C6          1.8300   -3.2980   -2.9710 c2        1 B5P      0.329000
      7 C7          2.0880   -4.5750   -3.6310 c2        1 B5P     -0.401000
      8 N1          2.7040   -2.1540   -3.1930 n         1 B5P     -0.186000
      9 N2          4.0510   -3.6060   -4.6510 na        1 B5P     -0.283000
     10 C8          3.2380   -4.6780   -4.4560 c2        1 B5P      0.404000
     11 O2          3.6720   -5.7540   -5.1380 oh        1 B5P     -0.215000
     12 N3          4.7770   -1.4120   -4.3950 n2        1 B5P     -0.170000
     13 C9          5.2760   -3.4690   -5.4630 c3        1 B5P     -0.169000
     14 C10         5.6850   -1.9990   -5.2380 c1        1 B5P      0.084000
     15 C11         3.8240   -2.3150   -4.0400 c2        1 B5P      0.294000
     16 C12         1.2150   -5.7320   -3.4320 c2        1 B5P      0.453000
     17 C13        -0.6100   -7.9300   -2.9910 ca        1 B5P     -0.819000
     18 C14        -0.9050   -6.6130   -2.5640 ca        1 B5P      0.216000
     19 C15        -2.1350   -6.3640   -1.8850 ca        1 B5P     -0.168000
     20 O6         -4.3630  -11.5450   -0.1520 o         1 B5P     -0.839000
     21 S2         -3.6100  -10.3970   -0.0250 s6        1 B5P      2.770000
     22 O5         -4.0840   -9.3020    0.6620 o         1 B5P     -0.839000
     23 C18        -2.0120  -10.6900    0.1630 c3        1 B5P     -1.049000
     24 C17        -2.7220   -8.7070   -2.0760 ca        1 B5P     -0.225000
     25 C19        -1.5300   -8.9490   -2.7700 ca        1 B5P      0.032000
     26 S1          0.8890   -8.3550   -3.7780 s6        1 B5P      2.870000
     27 O4          0.5620   -8.8830   -5.0300 o         1 B5P     -0.916000
     28 O3          1.5300   -9.2410   -2.9020 o         1 B5P     -0.916000
     29 N4          1.5520   -6.9270   -3.8480 n2        1 B5P     -0.995000
     30 C16        -3.0250   -7.3890   -1.6500 ca        1 B5P     -0.029000
     31 N5         -0.0290   -5.5600   -2.7950 nh        1 B5P     -0.297000
     32 H11        -1.5600   -3.2780   -1.4520 ha        1 B5P      0.002500
     33 H21        -1.2520   -2.7140   -1.2310 ha        1 B5P      0.002500
     34 H31         0.4890   -1.7680   -0.1170 hc        1 B5P      0.107750
     35 H2         -0.7430   -0.4650   -0.4750 hc        1 B5P      0.107750
     36 H13         0.5530   -1.0290    2.3490 hc        1 B5P      0.107750
     37 H23         0.8990    1.3370    0.2900 hc        1 B5P      0.126000
     38 H33        -0.6820    0.2730    1.9920 hc        1 B5P      0.107750
     39 H14         3.0620    0.6690    1.3710 hc        1 B5P      0.080000
     40 H24         2.7210   -1.0730    1.0100 hc        1 B5P      0.080000
     41 H15         3.0140    0.0960   -0.3490 hc        1 B5P      0.080000
     42 H25         1.6160   -0.8630   -1.9740 ha        1 B5P      0.095000
     43 H12         3.0950   -6.5350   -4.9640 ho        1 B5P      0.314000
     44 H9          5.0570   -3.6690   -6.5460 h1        1 B5P      0.169000
     45 H10         6.0720   -4.1730   -5.1010 h1        1 B5P      0.169000
     46 H15A       -2.3820   -5.3420   -1.5430 ha        1 B5P      0.182000
     47 H118       -1.6930  -11.7350   -0.1180 h1        1 B5P      0.221667
     48 H218       -1.2920  -10.0170   -0.3870 h1        1 B5P      0.221667
     49 H318       -1.6790  -10.5840    1.2400 h1        1 B5P      0.221667
     50 HN6        -3.4870  -10.5460   -2.4810 hn        1 B5P      0.255000
     51 H19        -1.2870   -9.9590   -3.1560 ha        1 B5P      0.165000
     52 H16        -3.9670   -7.1740   -1.1120 ha        1 B5P      0.173000
     53 H22        -0.2940   -4.6510   -2.4510 hn        1 B5P      0.302000
     54 N6         -3.6630   -9.7820   -1.8260 n4        1 B5P     -0.405000
     55 H62        -4.6050   -9.4360   -2.0300 hn        1 B5P      0.255000
     56 O1          0.8880   -3.0750   -2.1880 o         1 B5P     -0.342000
@<TRIPOS>BOND
     1    1    2 1   
     2    1    3 1   
     3    1   34 1   
     4    1   35 1   
     5    2    3 1   
     6    2    4 1   
     7    2   37 1   
     8    3   36 1   
     9    3   38 1   
    10    4   39 1   
    11    4   40 1   
    12    4   41 1   
    13    5    8 1   
    14    5   42 1   
    15    6    7 1   
    16    6    8 1   
    17    6   56 1   
    18    7   10 1   
    19    7   16 1   
    20    8   15 1   
    21    9   10 1   
    22    9   13 1   
    23    9   15 1   
    24   10   11 1   
    25   11   43 1   
    26   12   14 1   
    27   12   15 1   
    28   13   14 1   
    29   13   44 1   
    30   13   45 1   
    31   16   29 1   
    32   16   31 1   
    33   17   18 1   
    34   17   25 1   
    35   17   26 1   
    36   18   19 1   
    37   18   31 1   
    38   19   30 1   
    39   19   46 1   
    40   20   21 1   
    41   21   22 1   
    42   21   23 1   
    43   21   54 1   
    44   23   47 1   
    45   23   48 1   
    46   23   49 1   
    47   24   25 1   
    48   24   30 1   
    49   24   54 1   
    50   25   51 1   
    51   26   27 1   
    52   26   28 1   
    53   26   29 1   
    54   30   52 1   
    55   31   53 1   
    56   32   33 1   
    57   50   54 1   
    58   54   55 1   
@<TRIPOS>SUBSTRUCTURE
     1 B5P         1 TEMP              0 ****  ****    0 ROOT
