@<TRIPOS>MOLECULE
B5P
   55    49     1     0     0
SMALL
bcc


@<TRIPOS>ATOM
      1 C1         -0.1520    5.9440    4.4270 c3        1 B5P     -0.210000
      2 C2          0.7040    5.7850    3.1800 c3        1 B5P     -0.103000
      3 C3          2.0940    6.3760    3.4340 c3        1 B5P     -0.210000
      4 C4          0.8360    4.3060    2.8360 c3        1 B5P     -0.178000
      5 C5          0.2700    4.0500    1.3860 c3        1 B5P     -0.019000
      6 C6          0.2480    1.6760    0.6930 c1        1 B5P      0.374000
      7 C7          0.8920    0.5550    0.0470 c1        1 B5P     -0.278000
      8 N1          0.9310    2.9180    0.8060 n3        1 B5P     -0.237000
      9 N2          2.9430    1.9880   -0.3640 n2        1 B5P     -0.172500
     10 O1         -0.9050    1.5520    1.1540 o         1 B5P     -0.358000
     11 C8          2.2430    0.7030   -0.4860 c1        1 B5P      0.323000
     12 O2          2.8910   -0.3830   -1.0140 oh        1 B5P     -0.199000
     13 N3          3.2040    4.1310    0.2450 n2        1 B5P     -0.172500
     14 C9          4.1750    2.3870   -0.7530 c1        1 B5P     -0.141000
     15 C10         4.3380    3.7320   -0.3700 c1        1 B5P     -0.141000
     16 C11         2.3240    3.0620    0.2600 c2        1 B5P      0.141000
     17 C12         0.1440   -0.7510   -0.1350 c2        1 B5P      0.406000
     18 C13        -1.1300   -3.3780   -0.9000 c1        1 B5P     -0.815000
     19 C14        -1.0310   -2.3710   -1.8170 c1        1 B5P      0.141000
     20 C15        -1.5230   -2.5580   -3.1240 c1        1 B5P     -0.165000
     21 O6         -1.4490   -7.9790   -2.9620 o         1 B5P     -0.930500
     22 S2         -2.7150   -7.2850   -3.2650 ss        1 B5P      2.826000
     23 O5         -2.4990   -6.8910   -4.6360 o         1 B5P     -0.930500
     24 C18        -4.0990   -8.3810   -3.1220 c2        1 B5P     -0.952000
     25 N6         -2.9230   -5.9680   -2.2880 n2        1 B5P     -0.834000
     26 C17        -2.2080   -4.7830   -2.5480 c2        1 B5P      0.023000
     27 C19        -1.7230   -4.6000   -1.2600 c2        1 B5P     -0.027000
     28 S1         -0.5390   -3.1380    0.7100 s4        1 B5P      2.067800
     29 O4          0.4460   -4.1600    0.9890 o         1 B5P     -0.536900
     30 O3         -1.6550   -3.2860    1.6390 o         1 B5P     -0.536900
     31 N4          0.0960   -1.7050    0.9480 n1        1 B5P     -0.890000
     32 C16        -2.1070   -3.7610   -3.4780 c1        1 B5P     -0.085000
     33 N5         -0.6980   -0.9670   -1.3630 n3        1 B5P     -0.291000
     34 H11        -0.1990    6.8920    4.6720 hc        1 B5P      0.076167
     35 H21        -1.0720    5.6010    4.2450 hc        1 B5P      0.076167
     36 H31         0.2500    5.4310    5.1720 hc        1 B5P      0.076167
     37 H2          0.2960    6.2390    2.4610 hc        1 B5P      0.088000
     38 H13         2.0090    7.3290    3.6550 hc        1 B5P      0.076167
     39 H23         2.6280    6.2780    2.6490 hc        1 B5P      0.076167
     40 H33         2.5130    5.9130    4.1660 hc        1 B5P      0.076167
     41 H14         1.7960    4.0440    2.8690 hc        1 B5P      0.097500
     42 H24         0.3350    3.7790    3.4760 hc        1 B5P      0.097500
     43 H15         0.4310    4.8540    0.8200 h1        1 B5P      0.121500
     44 H25        -0.6930    3.8750    1.4380 h1        1 B5P      0.121500
     45 H12         3.7190   -0.1650   -1.2080 ho        1 B5P      0.254000
     46 H9          4.8500    1.8260   -1.2280 DU        1 B5P      0.192500
     47 H10         5.1210    4.3140   -0.5900 DU        1 B5P      0.192500
     48 H15A       -1.4530   -1.8360   -3.7800 ha        1 B5P      0.149000
     49 H118       -4.7410   -8.0300   -2.4030 ha        1 B5P      0.159667
     50 H218       -3.7810   -9.2810   -2.8690 ha        1 B5P      0.159667
     51 H318       -4.5750   -8.4310   -3.9980 ha        1 B5P      0.159667
     52 HN6        -3.5600   -5.9830   -1.6300 hn        1 B5P      0.258000
     53 H19        -1.8620   -5.3010   -0.5770 ha        1 B5P      0.154000
     54 H16        -2.4160   -3.9030   -4.3980 ha        1 B5P      0.179000
     55 H22        -1.0190   -0.2640   -1.8120 hn        1 B5P      0.273000
@<TRIPOS>BOND
     1    1    2 1   
     2    1   34 1   
     3    1   35 1   
     4    1   36 1   
     5    2    3 1   
     6    2    4 1   
     7    2   37 1   
     8    3   38 1   
     9    3   39 1   
    10    3   40 1   
    11    4    5 1   
    12    4   41 1   
    13    4   42 1   
    14    5    8 1   
    15    5   43 1   
    16    5   44 1   
    17    6    8 1   
    18    6   10 1   
    19    7   11 1   
    20    7   17 1   
    21    8   16 1   
    22    9   14 1   
    23    9   16 1   
    24   11   12 1   
    25   12   45 1   
    26   13   15 1   
    27   13   16 1   
    28   14   15 1   
    29   17   31 1   
    30   17   33 1   
    31   18   27 1   
    32   18   28 1   
    33   19   20 1   
    34   19   33 1   
    35   20   48 1   
    36   21   22 1   
    37   22   23 1   
    38   24   49 1   
    39   24   50 1   
    40   24   51 1   
    41   25   26 1   
    42   25   52 1   
    43   26   27 1   
    44   26   32 1   
    45   27   53 1   
    46   28   29 1   
    47   28   30 1   
    48   32   54 1   
    49   33   55 1   
@<TRIPOS>SUBSTRUCTURE
     1 B5P         1 TEMP              0 ****  ****    0 ROOT
