@<TRIPOS>MOLECULE
B5P
   55    58     1     0     0
SMALL
bcc


@<TRIPOS>ATOM
      1 C1          0.6890    0.7790    0.6410 cx        1 B5P     -0.129400
      2 C2          1.9240    0.6810   -0.2170 cx        1 B5P     -0.131700
      3 C3          2.0430    0.9480    1.2610 cx        1 B5P     -0.129400
      4 C4          2.3650   -0.6440   -0.7500 c3        1 B5P     -0.069400
      5 C5          1.6450   -0.9300   -2.0690 c3        1 B5P      0.088000
      6 C6          1.3900   -3.3730   -2.5790 c         1 B5P      0.742700
      7 C7          1.8800   -4.5660   -3.2670 cc        1 B5P     -0.488800
      8 N1          2.1030   -2.1400   -2.7480 n         1 B5P     -0.334400
      9 N2          3.7280   -3.2870   -4.1370 na        1 B5P     -0.263400
     10 C8          3.0730   -4.4810   -4.0170 cd        1 B5P      0.397000
     11 O2          3.7010   -5.4630   -4.6930 oh        1 B5P     -0.474100
     12 N3          4.0920   -1.0090   -3.7580 n1        1 B5P     -0.815400
     13 C9          4.9600   -2.9150   -4.8580 c3        1 B5P     -0.105600
     14 C10         5.1030   -1.4090   -4.5450 c1        1 B5P      0.336700
     15 C11         3.2540   -2.0950   -3.4930 cc        1 B5P      0.548400
     16 C12         1.1710   -5.8550   -3.1550 ce        1 B5P      0.950500
     17 C13        -0.3030   -8.3180   -2.9000 ca        1 B5P     -0.370500
     18 C14        -0.8620   -7.0720   -2.5390 ca        1 B5P      0.218600
     19 C15        -2.1810   -7.0210   -2.0320 ca        1 B5P     -0.160000
     20 O6         -4.8590  -12.1760   -1.3400 o         1 B5P     -0.649300
     21 S2         -4.1840  -11.0070   -0.9390 s6        1 B5P      1.470900
     22 O5         -4.9740   -9.8990   -0.5800 o         1 B5P     -0.649300
     23 C18        -3.1830  -11.3880    0.3770 c3        1 B5P     -0.374300
     24 C17        -2.3820   -9.4360   -2.2460 ca        1 B5P      0.115600
     25 C19        -1.0700   -9.4740   -2.7490 ca        1 B5P     -0.029000
     26 S1          1.2920   -8.4940   -3.5070 sy        1 B5P      1.587700
     27 O4          1.2260   -9.0310   -4.8040 o         1 B5P     -0.649800
     28 O3          2.0290   -9.2660   -2.5950 o         1 B5P     -0.649800
     29 N4          1.7510   -6.9680   -3.5240 nf        1 B5P     -1.003300
     30 C16        -2.9290   -8.1780   -1.8960 ca        1 B5P     -0.086000
     31 N5         -0.1390   -5.8750   -2.6870 nh        1 B5P     -0.729600
     32 H11         0.1130   -0.1410    0.8540 hc        1 B5P      0.074200
     33 H21        -0.7970   -2.4450    0.1780 ha        1 B5P      0.001500
     34 H31        -0.1550   -2.2330    0.2210 ha        1 B5P      0.001500
     35 H2          0.0330    1.6600    0.5310 hc        1 B5P      0.074200
     36 H13         2.4360    0.1510    1.9180 hc        1 B5P      0.074200
     37 H23         2.1410    1.5160   -0.9140 hc        1 B5P      0.087700
     38 H33         2.3630    1.9510    1.5940 hc        1 B5P      0.074200
     39 H14         2.1360   -1.4590   -0.0120 hc        1 B5P      0.061200
     40 H24         3.4760   -0.6210   -0.9090 hc        1 B5P      0.061200
     41 H15         1.7860   -0.0590   -2.7720 h1        1 B5P      0.091700
     42 H25         0.5410   -1.0540   -1.8630 h1        1 B5P      0.091700
     43 H12         3.2400   -6.3270   -4.5400 ho        1 B5P      0.520000
     44 H9          4.8390   -3.0950   -5.9580 h1        1 B5P      0.112700
     45 H10         5.8330   -3.5000   -4.4680 h1        1 B5P      0.112700
     46 H15A       -2.6330   -6.0570   -1.7440 ha        1 B5P      0.152000
     47 H118       -2.5720  -12.3090    0.2170 h1        1 B5P      0.120700
     48 H218       -2.4680  -10.5770    0.6580 h1        1 B5P      0.120700
     49 H318       -3.8010  -11.5820    1.2920 h1        1 B5P      0.120700
     50 HN6        -2.9330  -11.2800   -2.8420 hn        1 B5P      0.462800
     51 H19        -0.6180  -10.4380   -3.0460 ha        1 B5P      0.155000
     52 H16        -3.9620   -8.1040   -1.5030 ha        1 B5P      0.183000
     53 H22        -0.5740   -5.0340   -2.3610 hn        1 B5P      0.489800
     54 O1          0.3870   -3.3230   -1.8430 o         1 B5P     -0.624500
     55 N6         -3.1270  -10.6200   -2.1190 nh        1 B5P     -0.783500
@<TRIPOS>BOND
     1    1    2 1   
     2    1    3 1   
     3    1   32 1   
     4    1   35 1   
     5    2    3 1   
     6    2    4 1   
     7    2   37 1   
     8    3   36 1   
     9    3   38 1   
    10    4    5 1   
    11    4   39 1   
    12    4   40 1   
    13    5    8 1   
    14    5   41 1   
    15    5   42 1   
    16    6    7 1   
    17    6    8 1   
    18    6   54 2   
    19    7   10 2   
    20    7   16 1   
    21    8   15 2   
    22    9   10 1   
    23    9   13 1   
    24    9   15 1   
    25   10   11 1   
    26   11   43 1   
    27   12   14 3   
    28   12   15 1   
    29   13   14 1   
    30   13   44 1   
    31   13   45 1   
    32   16   29 2   
    33   16   31 1   
    34   17   18 ar  
    35   17   25 ar  
    36   17   26 1   
    37   18   19 ar  
    38   18   31 1   
    39   19   30 ar  
    40   19   46 1   
    41   20   21 2   
    42   21   22 2   
    43   21   23 1   
    44   21   55 1   
    45   23   47 1   
    46   23   48 1   
    47   23   49 1   
    48   24   25 ar  
    49   24   30 ar  
    50   24   55 1   
    51   25   51 1   
    52   26   27 2   
    53   26   28 2   
    54   26   29 1   
    55   30   52 1   
    56   31   53 1   
    57   33   34 1   
    58   50   55 1   
@<TRIPOS>SUBSTRUCTURE
     1 B5P         1 TEMP              0 ****  ****    0 ROOT
