@<TRIPOS>MOLECULE
B5P
   55    58     1     0     0
SMALL
bcc


@<TRIPOS>ATOM
      1 C1          4.6020   -5.0540   -0.2130 c3        1 B5P     -0.092600
      2 C2          5.6520   -3.9920   -0.4640 c3        1 B5P     -0.063700
      3 C3          6.4860   -4.3600   -1.6750 c3        1 B5P     -0.092600
      4 C4          5.0210   -2.6220   -0.6700 c3        1 B5P     -0.099400
      5 C5          4.5630   -2.0360    0.6640 c3        1 B5P      0.097000
      6 C6          2.5490   -0.5700    0.5230 c         1 B5P      0.735700
      7 C7          1.9950    0.7720    0.2890 cc        1 B5P     -0.383800
      8 N1          3.9530   -0.7190    0.5650 n         1 B5P     -0.421300
      9 N2          4.1960    1.7150    0.2890 na        1 B5P     -0.228100
     10 C8          2.8230    1.8820    0.2270 cd        1 B5P      0.340000
     11 O2          2.2850    3.1360    0.2060 oh        1 B5P     -0.444100
     12 N3          6.1410    0.4760    0.3770 nc        1 B5P     -0.681000
     13 C9          5.2760    2.6170    0.1890 cd        1 B5P     -0.274600
     14 C10         6.4340    1.8390    0.2460 cc        1 B5P      0.368200
     15 C11         4.7790    0.3960    0.4060 cd        1 B5P      0.572400
     16 C12         0.5430    0.9100    0.0250 ce        1 B5P      0.932500
     17 C13        -2.2890    1.0490   -0.3440 ca        1 B5P     -0.370500
     18 C14        -1.7150    0.2370    0.6620 ca        1 B5P      0.222600
     19 C15        -2.5540   -0.5470    1.4880 ca        1 B5P     -0.165000
     20 O6         -8.2650   -0.3650    0.2080 o         1 B5P     -0.651300
     21 S2         -6.9620   -0.9000    0.2630 s6        1 B5P      1.470900
     22 O5         -6.6600   -1.7350    1.3560 o         1 B5P     -0.651300
     23 C18        -6.6820   -1.7790   -1.1610 c3        1 B5P     -0.373300
     24 C17        -4.5190    0.2920    0.3290 ca        1 B5P      0.104600
     25 C19        -3.6760    1.0630   -0.4900 ca        1 B5P     -0.027000
     26 S1         -1.3710    2.0240   -1.4300 sy        1 B5P      1.576700
     27 O4         -1.7030    3.3710   -1.2020 o         1 B5P     -0.649300
     28 O3         -1.6310    1.5790   -2.7380 o         1 B5P     -0.649300
     29 N4          0.1000    1.6590   -0.9340 nf        1 B5P     -0.906300
     30 C16        -3.9280   -0.5130    1.3320 ca        1 B5P     -0.085000
     31 N5         -0.3260    0.2140    0.8720 nh        1 B5P     -0.729600
     32 H11         4.0100   -4.8180    0.7040 hc        1 B5P      0.037200
     33 H21         3.9000   -5.1250   -1.0780 hc        1 B5P      0.037200
     34 H31         5.0890   -6.0500   -0.0710 hc        1 B5P      0.037200
     35 H2          6.3340   -3.9430    0.4320 hc        1 B5P      0.048700
     36 H13         5.8530   -4.3790   -2.5950 hc        1 B5P      0.037200
     37 H23         7.3070   -3.6180   -1.8250 hc        1 B5P      0.037200
     38 H33         6.9420   -5.3700   -1.5370 hc        1 B5P      0.037200
     39 H14         5.7730   -1.9370   -1.1450 hc        1 B5P      0.058200
     40 H24         4.1510   -2.7120   -1.3720 hc        1 B5P      0.058200
     41 H15         3.7950   -2.7210    1.1290 h1        1 B5P      0.082200
     42 H25         5.4450   -1.9610    1.3630 h1        1 B5P      0.082200
     43 H12         2.8710    3.7530   -0.2680 ho        1 B5P      0.455000
     44 H9          5.1260    3.6900    0.1010 h4        1 B5P      0.189000
     45 H10         7.4730    2.1740    0.2020 h4        1 B5P      0.059100
     46 H15A       -2.1210   -1.1900    2.2720 ha        1 B5P      0.149000
     47 H118       -6.9930   -1.2330   -2.0860 h1        1 B5P      0.120367
     48 H218       -5.6160   -2.0780   -1.3120 h1        1 B5P      0.120367
     49 H318       -7.2690   -2.7330   -1.1520 h1        1 B5P      0.120367
     50 HN6        -6.2440    1.2500   -0.0840 hn        1 B5P      0.462800
     51 H19        -4.1070    1.7100   -1.2760 ha        1 B5P      0.154000
     52 H16        -4.5590   -1.1310    1.9990 ha        1 B5P      0.179000
     53 H22         0.0490   -0.4880    1.4770 hn        1 B5P      0.477800
     54 O1          1.8380   -1.5770    0.7110 o         1 B5P     -0.633500
     55 N6         -5.9140    0.3410    0.1580 nh        1 B5P     -0.784500
@<TRIPOS>BOND
     1    1    2 1   
     2    1   32 1   
     3    1   33 1   
     4    1   34 1   
     5    2    3 1   
     6    2    4 1   
     7    2   35 1   
     8    3   36 1   
     9    3   37 1   
    10    3   38 1   
    11    4    5 1   
    12    4   39 1   
    13    4   40 1   
    14    5    8 1   
    15    5   41 1   
    16    5   42 1   
    17    6    7 1   
    18    6    8 1   
    19    6   54 2   
    20    7   10 2   
    21    7   16 1   
    22    8   15 1   
    23    9   10 1   
    24    9   13 1   
    25    9   15 1   
    26   10   11 1   
    27   11   43 1   
    28   12   14 1   
    29   12   15 2   
    30   13   14 2   
    31   13   44 1   
    32   14   45 1   
    33   16   29 2   
    34   16   31 1   
    35   17   18 ar  
    36   17   25 ar  
    37   17   26 1   
    38   18   19 ar  
    39   18   31 1   
    40   19   30 ar  
    41   19   46 1   
    42   20   21 2   
    43   21   22 2   
    44   21   23 1   
    45   21   55 1   
    46   23   47 1   
    47   23   48 1   
    48   23   49 1   
    49   24   25 ar  
    50   24   30 ar  
    51   24   55 1   
    52   25   51 1   
    53   26   27 2   
    54   26   28 2   
    55   26   29 1   
    56   30   52 1   
    57   31   53 1   
    58   50   55 1   
@<TRIPOS>SUBSTRUCTURE
     1 B5P         1 TEMP              0 ****  ****    0 ROOT
