@<TRIPOS>MOLECULE
B5R
   41    42     1     0     0
SMALL
bcc


@<TRIPOS>ATOM
      1 C21         0.0000    0.0000    0.0000 ca        1 B5R     -0.186000
      2 C20         1.3830    0.0000    0.0000 ca        1 B5R      0.155900
      3 F20         2.0590    0.0000   -1.1690 f         1 B5R     -0.120900
      4 C19         2.0750    0.0000    1.2020 ca        1 B5R     -0.141600
      5 Cl19        3.8120   -0.0010    1.2020 cl        1 B5R      0.000600
      6 C18         1.3850    0.0000    2.4000 ca        1 B5R     -0.057000
      7 C17         0.0030    0.0010    2.4010 ca        1 B5R     -0.176000
      8 C16        -0.6930    0.0000    1.2020 ca        1 B5R      0.235100
      9 O14        -2.0530    0.0020    1.2040 os        1 B5R     -0.332900
     10 C13        -2.6990    0.0020    2.4770 c3        1 B5R     -0.086600
     11 C11        -4.2160    0.0020    2.2780 c3        1 B5R      0.294800
     12 O11        -4.6010    1.1700    1.5490 oh        1 B5R     -0.550800
     13 C12        -4.6290   -1.2470    1.4970 c3        1 B5R     -0.126100
     14 C10        -4.8990    0.0030    3.6220 c         1 B5R      0.550100
     15 O10        -4.3250   -0.4410    4.5940 o         1 B5R     -0.573100
     16 N9         -6.1470    0.4970    3.7440 ns        1 B5R     -0.025100
     17 C6         -6.8210    0.3970    4.9620 ca        1 B5R     -0.035400
     18 C5         -7.7010    1.4010    5.3510 ca        1 B5R     -0.091000
     19 C1         -6.6150   -0.7080    5.7810 ca        1 B5R     -0.073000
     20 C2         -7.2780   -0.8090    6.9830 ca        1 B5R     -0.078000
     21 C3         -8.1600    0.2000    7.3810 ca        1 B5R      0.087000
     22 C8         -8.8510    0.0990    8.6300 cg        1 B5R      0.199800
     23 N8         -9.3980    0.0390    9.6230 n1        1 B5R     -0.334800
     24 C4         -8.3680    1.3070    6.5520 ca        1 B5R     -0.171300
     25 C7         -9.3220    2.3940    6.9740 c3        1 B5R      0.642200
     26 F2         -9.3630    3.3860    5.9880 f         1 B5R     -0.201633
     27 F1        -10.6010    1.8530    7.1430 f         1 B5R     -0.201633
     28 F3         -8.8880    2.9540    8.1800 f         1 B5R     -0.201633
     29 H21        -0.5290   -0.5500   -0.7690 ha        1 B5R      0.128000
     30 H18         2.1140   -0.2180    3.1700 ha        1 B5R      0.122000
     31 H17        -0.2050   -0.1470    3.4540 ha        1 B5R      0.145000
     32 H13        -3.7270    0.1140    2.1530 h1        1 B5R      0.040200
     33 H13A       -2.5490   -0.8740    3.0970 h1        1 B5R      0.040200
     34 HO11       -4.7200    0.7270    0.7250 ho        1 B5R      0.415000
     35 H12        -3.9310   -1.4390    0.6910 hc        1 B5R      0.043033
     36 H12A       -5.4260   -0.7170    0.9890 hc        1 B5R      0.043033
     37 H12B       -5.2080   -1.9870    2.0370 hc        1 B5R      0.043033
     38 HN9        -6.3340    1.1770    3.0340 hn        1 B5R      0.188500
     39 H5         -8.1420    2.1270    4.6780 ha        1 B5R      0.136000
     40 H1         -6.3560   -1.7410    5.5850 ha        1 B5R      0.133000
     41 H2         -7.1150   -1.7310    7.5270 ha        1 B5R      0.124000
@<TRIPOS>BOND
     1    1    2 ar  
     2    1    8 ar  
     3    1   29 1   
     4    2    3 1   
     5    2    4 ar  
     6    4    5 1   
     7    4    6 ar  
     8    6    7 ar  
     9    6   30 1   
    10    7    8 ar  
    11    7   31 1   
    12    8    9 1   
    13    9   10 1   
    14   10   11 1   
    15   10   32 1   
    16   10   33 1   
    17   11   12 1   
    18   11   13 1   
    19   11   14 1   
    20   12   34 1   
    21   13   35 1   
    22   13   36 1   
    23   13   37 1   
    24   14   15 2   
    25   14   16 1   
    26   16   17 1   
    27   16   38 1   
    28   17   18 ar  
    29   17   19 ar  
    30   18   24 ar  
    31   18   39 1   
    32   19   20 ar  
    33   19   40 1   
    34   20   21 ar  
    35   20   41 1   
    36   21   22 1   
    37   21   24 ar  
    38   22   23 3   
    39   24   25 1   
    40   25   26 1   
    41   25   27 1   
    42   25   28 1   
@<TRIPOS>SUBSTRUCTURE
     1 B5R         1 TEMP              0 ****  ****    0 ROOT
