@<TRIPOS>MOLECULE
B5R
   41    37     1     0     0
SMALL
bcc


@<TRIPOS>ATOM
      1 C21         4.2350    2.8650   -0.8300 c1        1 B5R     -0.234000
      2 C20         5.5020    3.0560   -1.3940 c1        1 B5R      0.138000
      3 F20         5.7110    4.0640   -2.2160 f         1 B5R     -0.085000
      4 C19         6.5410    2.2080   -1.0610 c1        1 B5R     -0.133000
      5 CL19        8.1100    2.3800   -1.8520 cl        1 B5R      0.016000
      6 C18         6.3280    1.1650   -0.1670 c2        1 B5R     -0.071000
      7 C17         5.0710    0.9740    0.3940 c1        1 B5R     -0.163000
      8 C16         4.0250    1.8250    0.0610 c1        1 B5R      0.108000
      9 O14         2.7730    1.7090    0.7360 os        1 B5R     -0.229000
     10 C13         1.8040    0.9170    0.0360 c3        1 B5R     -0.046000
     11 C11         0.7200    0.4370    1.0230 c3        1 B5R      0.071000
     12 O11         1.2060   -0.6610    1.7470 oh        1 B5R     -0.333000
     13 C12         0.3780    1.5530    1.9730 c3        1 B5R     -0.245000
     14 C10        -0.5360    0.0240    0.2450 c2        1 B5R      0.321000
     15 O10        -0.9530    0.7260   -0.6430 o         1 B5R     -0.347000
     16 N9         -1.2580   -1.1390    0.6310 n         1 B5R     -0.303000
     17 C6         -2.4930   -1.4800   -0.0450 c2        1 B5R      0.098000
     18 C5         -3.6220   -1.7950    0.6940 c2        1 B5R     -0.148000
     19 C1         -2.5560   -1.4500   -1.4450 c1        1 B5R     -0.140000
     20 C2         -3.7480   -1.7360   -2.0920 c1        1 B5R     -0.071000
     21 C3         -4.8770   -2.0510   -1.3560 c1        1 B5R      0.009000
     22 C8         -6.1600   -2.4000   -2.0600 c1        1 B5R     -0.111000
     23 N8         -7.1410   -2.6670   -2.5970 n1        1 B5R     -0.003000
     24 C4         -4.8150   -2.0820    0.0470 c2        1 B5R     -0.094000
     25 C7         -6.0380   -2.5580    0.8590 c3        1 B5R      0.465000
     26 F2         -5.7290   -2.5650    2.1860 f         1 B5R     -0.158333
     27 F1         -6.3750   -3.7970    0.4720 f         1 B5R     -0.158333
     28 F3         -7.0720   -1.7230    0.6440 f         1 B5R     -0.158333
     29 H21         3.5020    3.4640   -1.0620 ha        1 B5R      0.164000
     30 H18         7.0490    0.5780    0.0640 ha        1 B5R      0.157000
     31 H17         4.9230    0.2400    1.0230 ha        1 B5R      0.156000
     32 H13         2.2530    0.1280   -0.3730 h1        1 B5R      0.113000
     33 H13A        1.3790    1.4680   -0.6820 h1        1 B5R      0.113000
     34 HO11        0.9630   -0.5820    2.6140 ho        1 B5R      0.237000
     35 H12        -0.3500    1.2740    2.5560 hc        1 B5R      0.102000
     36 H12A        0.1060    2.3350    1.4690 hc        1 B5R      0.102000
     37 H12B        1.1720    1.7730    2.5200 hc        1 B5R      0.102000
     38 HN9        -0.8970   -1.7170    1.2310 hn        1 B5R      0.257000
     39 H5         -3.5770   -1.8160    1.6880 ha        1 B5R      0.160000
     40 H1         -1.7610   -1.2290   -1.9640 ha        1 B5R      0.185000
     41 H2         -3.7910   -1.7160   -3.0750 ha        1 B5R      0.158000
@<TRIPOS>BOND
     1    1    8 1   
     2    1   29 1   
     3    2    3 1   
     4    2    4 1   
     5    4    6 1   
     6    6    7 1   
     7    6   30 1   
     8    7   31 1   
     9    8    9 1   
    10    9   10 1   
    11   10   11 1   
    12   10   32 1   
    13   10   33 1   
    14   11   12 1   
    15   11   13 1   
    16   11   14 1   
    17   12   34 1   
    18   13   35 1   
    19   13   36 1   
    20   13   37 1   
    21   14   15 1   
    22   14   16 1   
    23   16   17 1   
    24   16   38 1   
    25   17   18 1   
    26   17   19 1   
    27   18   24 1   
    28   18   39 1   
    29   19   40 1   
    30   20   21 1   
    31   20   41 1   
    32   21   24 1   
    33   22   23 1   
    34   24   25 1   
    35   25   26 1   
    36   25   27 1   
    37   25   28 1   
@<TRIPOS>SUBSTRUCTURE
     1 B5R         1 TEMP              0 ****  ****    0 ROOT
