@<TRIPOS>MOLECULE
B5R
   41    42     1     0     0
SMALL
bcc


@<TRIPOS>ATOM
      1 C21        -5.4360   -1.2300    0.3080 ca        1 B5R     -0.192000
      2 C20        -6.7230   -0.7030    0.5040 ca        1 B5R      0.168900
      3 F20        -7.7290   -1.5460    0.8290 f         1 B5R     -0.120900
      4 C19        -6.9470    0.6870    0.3610 ca        1 B5R     -0.053600
      5 CL19       -8.4860    1.3600    0.5910 cl        1 B5R     -0.062400
      6 C18        -5.8810    1.5240    0.0250 ca        1 B5R     -0.066000
      7 C17        -4.6010    1.0120   -0.1730 ca        1 B5R     -0.205000
      8 C16        -4.3860   -0.3640   -0.0290 ca        1 B5R      0.153100
      9 O14        -3.1660   -0.9890   -0.2050 os        1 B5R     -0.345900
     10 C13        -2.0630   -0.1260   -0.5080 c3        1 B5R      0.106400
     11 C11        -0.8370   -1.0550   -0.6050 c3        1 B5R      0.092800
     12 O11        -0.6710   -1.7740    0.6100 oh        1 B5R     -0.605800
     13 C12        -0.9600   -2.0080   -1.7850 c3        1 B5R     -0.128100
     14 C10         0.4090   -0.1610   -0.8140 c         1 B5R      0.677100
     15 O10         0.2840    0.9380   -1.3820 o         1 B5R     -0.587100
     16 N9          1.6230   -0.6830   -0.4020 n         1 B5R     -0.449100
     17 C6          2.8760   -0.0610   -0.4740 ca        1 B5R      0.090600
     18 C5          3.9640   -0.6640    0.2070 ca        1 B5R     -0.148000
     19 C1          3.1150    1.1190   -1.2110 ca        1 B5R     -0.140000
     20 C2          4.3910    1.6670   -1.2610 ca        1 B5R     -0.071000
     21 C3          5.4650    1.0670   -0.5900 ca        1 B5R      0.005000
     22 C8          6.7520    1.6630   -0.6720 cg        1 B5R      0.218800
     23 N8          7.8010    2.1600   -0.7470 n1        1 B5R     -0.328800
     24 C4          5.2360   -0.1060    0.1450 ca        1 B5R     -0.101300
     25 C7          6.3780   -0.7960    0.8950 c3        1 B5R      0.686200
     26 F2          6.0130   -1.9430    1.5600 f         1 B5R     -0.229300
     27 F1          7.4190   -1.1980    0.0960 f         1 B5R     -0.229300
     28 F3          6.9630   -0.0240    1.8680 f         1 B5R     -0.229300
     29 H21        -5.2570   -2.3090    0.4170 ha        1 B5R      0.167000
     30 H18        -6.0530    2.6070   -0.0870 ha        1 B5R      0.156000
     31 H17        -3.7810    1.6940   -0.4390 ha        1 B5R      0.153000
     32 H13        -2.2320    0.3950   -1.4850 h1        1 B5R      0.072700
     33 H13A       -1.9210    0.6170    0.3190 h1        1 B5R      0.072700
     34 HO11       -1.4960   -2.2560    0.7640 ho        1 B5R      0.439000
     35 H12        -0.9380   -1.4360   -2.7430 hc        1 B5R      0.063033
     36 H12A       -0.1200   -2.7430   -1.7730 hc        1 B5R      0.063033
     37 H12B       -1.9270   -2.5620   -1.7160 hc        1 B5R      0.063033
     38 HN9         1.5810   -1.5250    0.1390 hn        1 B5R      0.343500
     39 H5          3.8130   -1.5860    0.7950 ha        1 B5R      0.161000
     40 H1          2.2940    1.6220   -1.7520 ha        1 B5R      0.185000
     41 H2          4.5600    2.5900   -1.8400 ha        1 B5R      0.158000
@<TRIPOS>BOND
     1    1    2 ar  
     2    1    8 ar  
     3    1   29 1   
     4    2    3 1   
     5    2    4 ar  
     6    4    5 1   
     7    4    6 ar  
     8    6    7 ar  
     9    6   30 1   
    10    7    8 ar  
    11    7   31 1   
    12    8    9 1   
    13    9   10 1   
    14   10   11 1   
    15   10   32 1   
    16   10   33 1   
    17   11   12 1   
    18   11   13 1   
    19   11   14 1   
    20   12   34 1   
    21   13   35 1   
    22   13   36 1   
    23   13   37 1   
    24   14   15 2   
    25   14   16 1   
    26   16   17 1   
    27   16   38 1   
    28   17   18 ar  
    29   17   19 ar  
    30   18   24 ar  
    31   18   39 1   
    32   19   20 ar  
    33   19   40 1   
    34   20   21 ar  
    35   20   41 1   
    36   21   22 1   
    37   21   24 ar  
    38   22   23 3   
    39   24   25 1   
    40   25   26 1   
    41   25   27 1   
    42   25   28 1   
@<TRIPOS>SUBSTRUCTURE
     1 B5R         1 TEMP              0 ****  ****    0 ROOT
