@<TRIPOS>MOLECULE
B5R
   41    42     1     0     0
SMALL
bcc


@<TRIPOS>ATOM
      1 C21        -0.1000    0.3600   -0.0360 ca        1 B5R     -0.192000
      2 C20         1.2880    0.3150   -0.2390 ca        1 B5R      0.168900
      3 F20         1.7790    0.6620   -1.4510 f         1 B5R     -0.120900
      4 C19         2.1450   -0.0860    0.8120 ca        1 B5R     -0.053600
      5 CL19        3.8270   -0.1510    0.6030 cl        1 B5R     -0.062400
      6 C18         1.5980   -0.4380    2.0480 ca        1 B5R     -0.066000
      7 C17         0.2230   -0.3980    2.2620 ca        1 B5R     -0.205000
      8 C16        -0.6190    0.0010    1.2170 ca        1 B5R      0.153100
      9 O14        -1.9970    0.0740    1.3050 os        1 B5R     -0.345900
     10 C13        -2.5560   -0.2420    2.5860 c3        1 B5R      0.106400
     11 C11        -4.0740   -0.0370    2.4270 c3        1 B5R      0.092800
     12 O11        -4.3480    1.2920    2.0060 oh        1 B5R     -0.605800
     13 C12        -4.6670   -1.0450    1.4520 c3        1 B5R     -0.128100
     14 C10        -4.7210   -0.2500    3.8170 c         1 B5R      0.677100
     15 O10        -4.1730   -1.0080    4.6360 o         1 B5R     -0.587100
     16 N9         -5.9320    0.3840    4.0410 n         1 B5R     -0.449100
     17 C6         -6.6940    0.3530    5.2170 ca        1 B5R      0.090600
     18 C5         -7.7860    1.2500    5.3310 ca        1 B5R     -0.148000
     19 C1         -6.4450   -0.5430    6.2790 ca        1 B5R     -0.140000
     20 C2         -7.2590   -0.5370    7.4050 ca        1 B5R     -0.071000
     21 C3         -8.3400    0.3480    7.5130 ca        1 B5R      0.005000
     22 C8         -9.1470    0.3160    8.6830 cg        1 B5R      0.218800
     23 N8         -9.8000    0.2800    9.6450 n1        1 B5R     -0.328800
     24 C4         -8.5950    1.2420    6.4610 ca        1 B5R     -0.101300
     25 C7         -9.7630    2.2280    6.5360 c3        1 B5R      0.686200
     26 F2         -9.9020    3.0330    5.4300 f         1 B5R     -0.229300
     27 F1        -10.9950    1.6350    6.6670 f         1 B5R     -0.229300
     28 F3         -9.6900    3.1140    7.5820 f         1 B5R     -0.229300
     29 H21        -0.7710    0.6700   -0.8500 ha        1 B5R      0.167000
     30 H18         2.2640   -0.7510    2.8690 ha        1 B5R      0.156000
     31 H17        -0.1790   -0.6820    3.2440 ha        1 B5R      0.153000
     32 H13        -2.3340   -1.3060    2.8570 h1        1 B5R      0.072700
     33 H13A       -2.1500    0.4580    3.3620 h1        1 B5R      0.072700
     34 HO11       -3.8610    1.4300    1.1810 ho        1 B5R      0.439000
     35 H12        -4.5790   -2.0770    1.8670 hc        1 B5R      0.063033
     36 H12A       -4.1120   -0.9950    0.4840 hc        1 B5R      0.063033
     37 H12B       -5.7420   -0.8120    1.2660 hc        1 B5R      0.063033
     38 HN9        -6.2150    1.0520    3.3520 hn        1 B5R      0.343500
     39 H5         -8.0080    1.9660    4.5200 ha        1 B5R      0.161000
     40 H1         -5.6020   -1.2550    6.2310 ha        1 B5R      0.185000
     41 H2         -7.0510   -1.2430    8.2260 ha        1 B5R      0.158000
@<TRIPOS>BOND
     1    1    2 ar  
     2    1    8 ar  
     3    1   29 1   
     4    2    3 1   
     5    2    4 ar  
     6    4    5 1   
     7    4    6 ar  
     8    6    7 ar  
     9    6   30 1   
    10    7    8 ar  
    11    7   31 1   
    12    8    9 1   
    13    9   10 1   
    14   10   11 1   
    15   10   32 1   
    16   10   33 1   
    17   11   12 1   
    18   11   13 1   
    19   11   14 1   
    20   12   34 1   
    21   13   35 1   
    22   13   36 1   
    23   13   37 1   
    24   14   15 2   
    25   14   16 1   
    26   16   17 1   
    27   16   38 1   
    28   17   18 ar  
    29   17   19 ar  
    30   18   24 ar  
    31   18   39 1   
    32   19   20 ar  
    33   19   40 1   
    34   20   21 ar  
    35   20   41 1   
    36   21   22 1   
    37   21   24 ar  
    38   22   23 3   
    39   24   25 1   
    40   25   26 1   
    41   25   27 1   
    42   25   28 1   
@<TRIPOS>SUBSTRUCTURE
     1 B5R         1 TEMP              0 ****  ****    0 ROOT
