@<TRIPOS>MOLECULE
B5R
   42    43     1     0     0
SMALL
bcc


@<TRIPOS>ATOM
      1 C21        -1.2390    1.2940    0.9690 ca        1 B5R     -0.179000
      2 C20        -0.0290    1.2640    0.2490 ca        1 B5R      0.160900
      3 F20        -0.0290    1.6820   -1.0350 f         1 B5R     -0.105900
      4 C19         1.1510    0.7930    0.8720 ca        1 B5R     -0.019600
      5 CL19        2.6190    0.7330    0.0380 cl        1 B5R     -0.023400
      6 C18         1.1080    0.3740    2.2070 ca        1 B5R     -0.078000
      7 C17        -0.0820    0.4070    2.9280 ca        1 B5R     -0.155000
      8 C16        -1.2430    0.8680    2.2980 ca        1 B5R      0.081100
      9 O14        -2.4330    1.0330    3.0100 os        1 B5R     -0.332900
     10 C13        -2.9620   -0.1500    3.5910 c3        1 B5R      0.106400
     11 C11        -4.1400   -0.6270    2.7030 c3        1 B5R      0.087800
     12 O11        -4.9550    0.4640    2.3070 oh        1 B5R     -0.635800
     13 C12        -3.6480   -1.3900    1.4780 c3        1 B5R     -0.139100
     14 C10        -5.0000   -1.5830    3.5360 c         1 B5R      0.548100
     15 O10        -4.6020   -2.5340    4.1850 o         1 B5R     -0.403100
     16 N9         -6.5070   -1.3760    3.5130 n4        1 B5R     -0.539200
     17 C6         -6.9780   -0.6540    4.6980 ca        1 B5R     -0.048400
     18 C5         -6.9860    0.7510    4.6890 ca        1 B5R     -0.059000
     19 C1         -7.4290   -1.3690    5.8230 ca        1 B5R     -0.075000
     20 C2         -7.8910   -0.6670    6.9310 ca        1 B5R     -0.085000
     21 C3         -7.9080    0.7380    6.9350 ca        1 B5R      0.117000
     22 C8         -8.3890    1.4160    8.0880 cg        1 B5R      0.169800
     23 N8         -8.7850    1.9640    9.0350 n1        1 B5R     -0.229800
     24 C4         -7.4510    1.4410    5.8080 ca        1 B5R     -0.127300
     25 C7         -7.4490    2.9790    5.7770 c3        1 B5R      0.693200
     26 F2         -6.9980    3.5040    4.5910 f         1 B5R     -0.211633
     27 F1         -8.6880    3.5350    5.9540 f         1 B5R     -0.211633
     28 F3         -6.6490    3.5450    6.7330 f         1 B5R     -0.211633
     29 H21        -2.1510    1.6810    0.4920 ha        1 B5R      0.162000
     30 H18         2.0320    0.0200    2.6960 ha        1 B5R      0.171000
     31 H17        -0.1030    0.0950    3.9830 ha        1 B5R      0.155000
     32 H13        -2.2040   -0.9670    3.6930 h1        1 B5R      0.090200
     33 H13A       -3.3410    0.1700    4.5980 h1        1 B5R      0.090200
     34 HO11       -4.3700    1.2090    2.0840 ho        1 B5R      0.482000
     35 H12        -4.4890   -1.5830    0.7690 hc        1 B5R      0.081700
     36 H12A       -2.8820   -0.7590    0.9560 hc        1 B5R      0.081700
     37 H12B       -3.1770   -2.3570    1.7770 hc        1 B5R      0.081700
     38 HN9        -6.9770   -2.2900    3.4720 hn        1 B5R      0.475300
     39 H5         -6.6210    1.3180    3.8080 ha        1 B5R      0.194000
     40 H1         -7.4220   -2.4720    5.8470 ha        1 B5R      0.173000
     41 H2         -8.2490   -1.2200    7.8190 ha        1 B5R      0.191000
     42 H92        -6.7470   -0.8260    2.6720 hn        1 B5R      0.475300
@<TRIPOS>BOND
     1    1    2 ar  
     2    1    8 ar  
     3    1   29 1   
     4    2    3 1   
     5    2    4 ar  
     6    4    5 1   
     7    4    6 ar  
     8    6    7 ar  
     9    6   30 1   
    10    7    8 ar  
    11    7   31 1   
    12    8    9 1   
    13    9   10 1   
    14   10   11 1   
    15   10   32 1   
    16   10   33 1   
    17   11   12 1   
    18   11   13 1   
    19   11   14 1   
    20   12   34 1   
    21   13   35 1   
    22   13   36 1   
    23   13   37 1   
    24   14   15 2   
    25   14   16 1   
    26   16   17 1   
    27   16   38 1   
    28   16   42 1   
    29   17   18 ar  
    30   17   19 ar  
    31   18   24 ar  
    32   18   39 1   
    33   19   20 ar  
    34   19   40 1   
    35   20   21 ar  
    36   20   41 1   
    37   21   22 1   
    38   21   24 ar  
    39   22   23 3   
    40   24   25 1   
    41   25   26 1   
    42   25   27 1   
    43   25   28 1   
@<TRIPOS>SUBSTRUCTURE
     1 B5R         1 TEMP              0 ****  ****    0 ROOT
