@<TRIPOS>MOLECULE
B5S
   56    58     1     0     0
SMALL
bcc


@<TRIPOS>ATOM
      1 C1         -0.4400   -0.7250    0.1320 c3        1 B5S      0.109700
      2 O2          0.9860   -0.7510    0.1400 os        1 B5S     -0.323900
      3 C3          1.5980   -0.3580    1.3090 ca        1 B5S      0.183100
      4 C4          0.9120    0.0900    2.4390 ca        1 B5S     -0.240000
      5 C5          1.6680    0.4600    3.5640 ca        1 B5S      0.191100
      6 O6          0.9490    0.8890    4.6510 oh        1 B5S     -0.484100
      7 C7          3.0650    0.3990    3.5690 ca        1 B5S     -0.287000
      8 C8          3.7380   -0.0570    2.4130 ca        1 B5S      0.195600
      9 N9          5.1440   -0.1760    2.4450 nh        1 B5S     -0.642000
     10 C10         5.9990    0.2580    1.4520 ca        1 B5S      0.264600
     11 C11         5.5520    0.9560    0.2980 ca        1 B5S     -0.217000
     12 C12         6.4490    1.3550   -0.6760 ca        1 B5S     -0.025000
     13 C13         7.8190    1.0810   -0.5700 ca        1 B5S     -0.250600
     14 C14         8.7710    1.4960   -1.6320 c         1 B5S      0.733700
     15 O15         9.6560    0.7120   -2.0630 o         1 B5S     -0.719100
     16 N16         8.6330    2.7760   -2.1160 n         1 B5S     -0.443100
     17 C17         9.4140    3.3760   -3.1280 ca        1 B5S      0.037600
     18 C18        10.0250    2.6260   -4.1520 ca        1 B5S     -0.152000
     19 C19        10.7600    3.2730   -5.1440 ca        1 B5S     -0.107000
     20 C20        10.8970    4.6590   -5.1390 ca        1 B5S     -0.132000
     21 C21        10.2910    5.4080   -4.1300 ca        1 B5S     -0.107000
     22 C22         9.5560    4.7840   -3.1290 ca        1 B5S     -0.152000
     23 C23         8.2650    0.3850    0.5720 ca        1 B5S      0.200100
     24 O24         9.6310    0.1540    0.6210 os        1 B5S     -0.371900
     25 C25        10.1030   -0.7310    1.6450 c3        1 B5S      0.115400
     26 C26        11.5770   -0.9560    1.3510 c3        1 B5S     -0.114400
     27 C27        11.8250   -1.7950    0.1040 c3        1 B5S      0.108800
     28 N28        11.3630   -1.1370   -1.1440 n4        1 B5S     -0.838600
     29 C32         7.3890   -0.0120    1.5790 ca        1 B5S     -0.290000
     30 C33         3.0040   -0.4450    1.2820 ca        1 B5S     -0.221000
     31 HN28       11.5660   -1.7150   -1.9600 hn        1 B5S      0.473133
     32 HN2A       10.3370   -0.9500   -1.1010 hn        1 B5S      0.473133
     33 HN2B       11.8010   -0.2160   -1.2620 hn        1 B5S      0.473133
     34 H1         -0.8500   -1.4060    0.9170 h1        1 B5S      0.054033
     35 H1A        -0.8130    0.3170    0.2800 h1        1 B5S      0.054033
     36 H1B        -0.6970   -1.0980   -0.8920 h1        1 B5S      0.054033
     37 H4         -0.1830    0.1590    2.4790 ha        1 B5S      0.169000
     38 HO6         1.5710    1.1160    5.3600 ho        1 B5S      0.427000
     39 H7          3.6220    0.7020    4.4670 ha        1 B5S      0.140000
     40 HN9         5.5430   -0.3960    3.3310 hn        1 B5S      0.445800
     41 H11         4.4830    1.1980    0.1790 ha        1 B5S      0.171000
     42 H12         6.0660    1.8880   -1.5640 ha        1 B5S      0.152000
     43 HN16        7.9680    3.3720   -1.6700 hn        1 B5S      0.332500
     44 H18         9.9220    1.5310   -4.1780 ha        1 B5S      0.143500
     45 H19        11.2290    2.6780   -5.9420 ha        1 B5S      0.142500
     46 H20        11.4760    5.1620   -5.9280 ha        1 B5S      0.146000
     47 H21        10.3920    6.5050   -4.1230 ha        1 B5S      0.142500
     48 H22         9.0840    5.3960   -2.3450 ha        1 B5S      0.143500
     49 H25         9.5250   -1.6920    1.6190 h1        1 B5S      0.067700
     50 H25A        9.9810   -0.2380    2.6460 h1        1 B5S      0.067700
     51 H26        12.0280   -1.5070    2.2210 hc        1 B5S      0.097700
     52 H26A       12.0970    0.0360    1.2660 hc        1 B5S      0.097700
     53 H27        12.9310   -1.9980    0.0040 hx        1 B5S      0.101200
     54 H27A       11.2840   -2.7810    0.1900 hx        1 B5S      0.101200
     55 H32         7.7650   -0.5300    2.4720 ha        1 B5S      0.145000
     56 H33         3.4930   -0.8330    0.3770 ha        1 B5S      0.160000
@<TRIPOS>BOND
     1    1    2 1   
     2    1   34 1   
     3    1   35 1   
     4    1   36 1   
     5    2    3 1   
     6    3    4 ar  
     7    3   30 ar  
     8    4    5 ar  
     9    4   37 1   
    10    5    6 1   
    11    5    7 ar  
    12    6   38 1   
    13    7    8 ar  
    14    7   39 1   
    15    8    9 1   
    16    8   30 ar  
    17    9   10 1   
    18    9   40 1   
    19   10   11 ar  
    20   10   29 ar  
    21   11   12 ar  
    22   11   41 1   
    23   12   13 ar  
    24   12   42 1   
    25   13   14 1   
    26   13   23 ar  
    27   14   15 2   
    28   14   16 1   
    29   16   17 1   
    30   16   43 1   
    31   17   18 ar  
    32   17   22 ar  
    33   18   19 ar  
    34   18   44 1   
    35   19   20 ar  
    36   19   45 1   
    37   20   21 ar  
    38   20   46 1   
    39   21   22 ar  
    40   21   47 1   
    41   22   48 1   
    42   23   24 1   
    43   23   29 ar  
    44   24   25 1   
    45   25   26 1   
    46   25   49 1   
    47   25   50 1   
    48   26   27 1   
    49   26   51 1   
    50   26   52 1   
    51   27   28 1   
    52   27   53 1   
    53   27   54 1   
    54   28   31 1   
    55   28   32 1   
    56   28   33 1   
    57   29   55 1   
    58   30   56 1   
@<TRIPOS>SUBSTRUCTURE
     1 B5S         1 TEMP              0 ****  ****    0 ROOT
