@<TRIPOS>MOLECULE
B5S
   56    58     1     0     0
SMALL
bcc


@<TRIPOS>ATOM
      1 C1         -0.4320   -0.7600    0.1790 c3        1 B5S      0.109700
      2 O2          0.9940   -0.7800    0.1810 os        1 B5S     -0.323900
      3 C3          1.6100   -0.3730    1.3430 ca        1 B5S      0.183100
      4 C4          0.9270    0.0830    2.4720 ca        1 B5S     -0.240000
      5 C5          1.6860    0.4670    3.5900 ca        1 B5S      0.191100
      6 O6          0.9700    0.9030    4.6760 oh        1 B5S     -0.484100
      7 C7          3.0840    0.4120    3.5890 ca        1 B5S     -0.287000
      8 C8          3.7540   -0.0510    2.4340 ca        1 B5S      0.195600
      9 N9          5.1600   -0.1640    2.4610 nu        1 B5S     -0.641000
     10 C10         6.0080    0.2660    1.4610 ca        1 B5S      0.264600
     11 C11         5.5530    0.9510    0.3020 ca        1 B5S     -0.217000
     12 C12         6.4430    1.3450   -0.6800 ca        1 B5S     -0.025000
     13 C13         7.8160    1.0800   -0.5760 ca        1 B5S     -0.250600
     14 C14         8.7610    1.4900   -1.6460 c         1 B5S      0.733700
     15 O15         9.6490    0.7080   -2.0730 o         1 B5S     -0.719100
     16 N16         8.6140    2.7650   -2.1410 ns        1 B5S     -0.443100
     17 C17         9.3870    3.3600   -3.1630 ca        1 B5S      0.037600
     18 C18         9.9980    2.6040   -4.1820 ca        1 B5S     -0.152000
     19 C19        10.7260    3.2460   -5.1820 ca        1 B5S     -0.107000
     20 C20        10.8540    4.6330   -5.1910 ca        1 B5S     -0.132000
     21 C21        10.2470    5.3880   -4.1870 ca        1 B5S     -0.107000
     22 C22         9.5200    4.7680   -3.1770 ca        1 B5S     -0.152000
     23 C23         8.2710    0.3970    0.5700 ca        1 B5S      0.200100
     24 O24         9.6380    0.1740    0.6160 os        1 B5S     -0.371900
     25 C25        10.1190   -0.6990    1.6460 c3        1 B5S      0.115400
     26 C26        11.5930   -0.9190    1.3480 c3        1 B5S     -0.114400
     27 C27        11.8410   -1.7670    0.1080 c3        1 B5S      0.108800
     28 N28        11.3700   -1.1240   -1.1440 nz        1 B5S     -0.838600
     29 C32         7.4010    0.0040    1.5840 ca        1 B5S     -0.290000
     30 C33         3.0160   -0.4540    1.3110 ca        1 B5S     -0.221000
     31 HN28       11.5730   -1.7070   -1.9560 hn        1 B5S      0.473133
     32 HN2A       10.3430   -0.9420   -1.0990 hn        1 B5S      0.473133
     33 HN2B       11.8030   -0.2010   -1.2720 hn        1 B5S      0.473133
     34 H1         -0.8350   -1.4360    0.9720 h1        1 B5S      0.054033
     35 H1A        -0.8090    0.2820    0.3190 h1        1 B5S      0.054033
     36 H1B        -0.6920   -1.1440   -0.8400 h1        1 B5S      0.054033
     37 H4         -0.1680    0.1480    2.5160 ha        1 B5S      0.169000
     38 HO6         1.5940    1.1390    5.3800 ho        1 B5S      0.427000
     39 H7          3.6430    0.7270    4.4820 ha        1 B5S      0.140000
     40 HN9         5.5640   -0.3730    3.3470 hn        1 B5S      0.445800
     41 H11         4.4820    1.1850    0.1850 ha        1 B5S      0.171000
     42 H12         6.0540    1.8670   -1.5710 ha        1 B5S      0.152000
     43 HN16        7.9470    3.3610   -1.6990 hn        1 B5S      0.332500
     44 H18         9.9020    1.5080   -4.1970 ha        1 B5S      0.143500
     45 H19        11.1950    2.6460   -5.9770 ha        1 B5S      0.142500
     46 H20        11.4270    5.1320   -5.9870 ha        1 B5S      0.146000
     47 H21        10.3420    6.4850   -4.1910 ha        1 B5S      0.142500
     48 H22         9.0470    5.3850   -2.3970 ha        1 B5S      0.143500
     49 H25         9.9980   -0.1970    2.6430 h1        1 B5S      0.067700
     50 H25A        9.5460   -1.6630    1.6310 h1        1 B5S      0.067700
     51 H26        12.0500   -1.4590    2.2210 hc        1 B5S      0.097700
     52 H26A       12.1070    0.0750    1.2520 hc        1 B5S      0.097700
     53 H27        12.9470   -1.9640    0.0050 hx        1 B5S      0.101200
     54 H27A       11.3060   -2.7560    0.2050 hx        1 B5S      0.101200
     55 H32         7.7830   -0.5040    2.4800 ha        1 B5S      0.145000
     56 H33         3.5020   -0.8480    0.4070 ha        1 B5S      0.160000
@<TRIPOS>BOND
     1    1    2 1   
     2    1   34 1   
     3    1   35 1   
     4    1   36 1   
     5    2    3 1   
     6    3    4 ar  
     7    3   30 ar  
     8    4    5 ar  
     9    4   37 1   
    10    5    6 1   
    11    5    7 ar  
    12    6   38 1   
    13    7    8 ar  
    14    7   39 1   
    15    8    9 1   
    16    8   30 ar  
    17    9   10 1   
    18    9   40 1   
    19   10   11 ar  
    20   10   29 ar  
    21   11   12 ar  
    22   11   41 1   
    23   12   13 ar  
    24   12   42 1   
    25   13   14 1   
    26   13   23 ar  
    27   14   15 2   
    28   14   16 1   
    29   16   17 1   
    30   16   43 1   
    31   17   18 ar  
    32   17   22 ar  
    33   18   19 ar  
    34   18   44 1   
    35   19   20 ar  
    36   19   45 1   
    37   20   21 ar  
    38   20   46 1   
    39   21   22 ar  
    40   21   47 1   
    41   22   48 1   
    42   23   24 1   
    43   23   29 ar  
    44   24   25 1   
    45   25   26 1   
    46   25   49 1   
    47   25   50 1   
    48   26   27 1   
    49   26   51 1   
    50   26   52 1   
    51   27   28 1   
    52   27   53 1   
    53   27   54 1   
    54   28   31 1   
    55   28   32 1   
    56   28   33 1   
    57   29   55 1   
    58   30   56 1   
@<TRIPOS>SUBSTRUCTURE
     1 B5S         1 TEMP              0 ****  ****    0 ROOT
