@<TRIPOS>MOLECULE
B5S
   56    58     1     0     0
SMALL
bcc


@<TRIPOS>ATOM
      1 C1         -0.4360   -0.7590    0.1110 c3        1 B5S      0.109700
      2 O2          0.9900   -0.7790    0.1220 os        1 B5S     -0.323900
      3 C3          1.5980   -0.3810    1.2930 ca        1 B5S      0.183100
      4 C4          0.9070    0.0680    2.4190 ca        1 B5S     -0.240000
      5 C5          1.6580    0.4440    3.5450 ca        1 B5S      0.191100
      6 O6          0.9340    0.8740    4.6290 oh        1 B5S     -0.484100
      7 C7          3.0550    0.3880    3.5550 ca        1 B5S     -0.287000
      8 C8          3.7330   -0.0690    2.4020 ca        1 B5S      0.195600
      9 N9          5.1390   -0.1830    2.4390 nh        1 B5S     -0.641000
     10 C10         5.9960    0.2540    1.4480 ca        1 B5S      0.264600
     11 C11         5.5500    0.9470    0.2910 ca        1 B5S     -0.217000
     12 C12         6.4480    1.3480   -0.6810 ca        1 B5S     -0.025000
     13 C13         7.8190    1.0820   -0.5680 ca        1 B5S     -0.250600
     14 C14         8.7730    1.5000   -1.6280 c         1 B5S      0.733700
     15 O15         9.6640    0.7200   -2.0540 o         1 B5S     -0.719100
     16 N16         8.6300    2.7780   -2.1150 n         1 B5S     -0.443100
     17 C17         9.4120    3.3810   -3.1250 ca        1 B5S      0.037600
     18 C18        10.0310    2.6320   -4.1460 ca        1 B5S     -0.152000
     19 C19        10.7670    3.2810   -5.1350 ca        1 B5S     -0.107000
     20 C20        10.8960    4.6680   -5.1330 ca        1 B5S     -0.132000
     21 C21        10.2810    5.4160   -4.1280 ca        1 B5S     -0.107000
     22 C22         9.5450    4.7890   -3.1290 ca        1 B5S     -0.152000
     23 C23         8.2650    0.3910    0.5760 ca        1 B5S      0.200100
     24 O24         9.6320    0.1680    0.6310 os        1 B5S     -0.371900
     25 C25        10.1040   -0.7130    1.6590 c3        1 B5S      0.115400
     26 C26        11.5810   -0.9310    1.3710 c3        1 B5S     -0.114400
     27 C27        11.8380   -1.7710    0.1270 c3        1 B5S      0.108800
     28 N28        11.3770   -1.1180   -1.1240 n4        1 B5S     -0.838600
     29 C32         7.3870   -0.0090    1.5810 ca        1 B5S     -0.290000
     30 C33         3.0040   -0.4630    1.2700 ca        1 B5S     -0.221000
     31 HN28       11.5870   -1.6960   -1.9380 hn        1 B5S      0.473133
     32 HN2A       10.3500   -0.9370   -1.0860 hn        1 B5S      0.473133
     33 HN2B       11.8110   -0.1950   -1.2420 hn        1 B5S      0.473133
     34 H1         -0.8450   -1.4390    0.8960 h1        1 B5S      0.054033
     35 H1A        -0.8130    0.2830    0.2540 h1        1 B5S      0.054033
     36 H1B        -0.6880   -1.1360   -0.9130 h1        1 B5S      0.054033
     37 H4         -0.1890    0.1330    2.4550 ha        1 B5S      0.169000
     38 HO6         1.5520    1.1040    5.3390 ho        1 B5S      0.427000
     39 H7          3.6070    0.6960    4.4540 ha        1 B5S      0.140000
     40 HN9         5.5360   -0.3980    3.3270 hn        1 B5S      0.445800
     41 H11         4.4800    1.1830    0.1680 ha        1 B5S      0.171000
     42 H12         6.0660    1.8770   -1.5710 ha        1 B5S      0.152000
     43 HN16        7.9600    3.3710   -1.6730 hn        1 B5S      0.332500
     44 H18         9.9350    1.5360   -4.1690 ha        1 B5S      0.143500
     45 H19        11.2420    2.6870   -5.9310 ha        1 B5S      0.142500
     46 H20        11.4750    5.1720   -5.9200 ha        1 B5S      0.146000
     47 H21        10.3760    6.5130   -4.1230 ha        1 B5S      0.142500
     48 H22         9.0670    5.4000   -2.3480 ha        1 B5S      0.143500
     49 H25         9.9760   -0.2190    2.6580 h1        1 B5S      0.067700
     50 H25A        9.5310   -1.6770    1.6320 h1        1 B5S      0.067700
     51 H26        12.0310   -1.4780    2.2440 hc        1 B5S      0.097700
     52 H26A       12.0960    0.0630    1.2860 hc        1 B5S      0.097700
     53 H27        12.9450   -1.9680    0.0310 hx        1 B5S      0.101200
     54 H27A       11.3020   -2.7600    0.2130 hx        1 B5S      0.101200
     55 H32         7.7620   -0.5230    2.4760 ha        1 B5S      0.145000
     56 H33         3.4970   -0.8510    0.3670 ha        1 B5S      0.160000
@<TRIPOS>BOND
     1    1    2 1   
     2    1   34 1   
     3    1   35 1   
     4    1   36 1   
     5    2    3 1   
     6    3    4 ar  
     7    3   30 ar  
     8    4    5 ar  
     9    4   37 1   
    10    5    6 1   
    11    5    7 ar  
    12    6   38 1   
    13    7    8 ar  
    14    7   39 1   
    15    8    9 1   
    16    8   30 ar  
    17    9   10 1   
    18    9   40 1   
    19   10   11 ar  
    20   10   29 ar  
    21   11   12 ar  
    22   11   41 1   
    23   12   13 ar  
    24   12   42 1   
    25   13   14 1   
    26   13   23 ar  
    27   14   15 2   
    28   14   16 1   
    29   16   17 1   
    30   16   43 1   
    31   17   18 ar  
    32   17   22 ar  
    33   18   19 ar  
    34   18   44 1   
    35   19   20 ar  
    36   19   45 1   
    37   20   21 ar  
    38   20   46 1   
    39   21   22 ar  
    40   21   47 1   
    41   22   48 1   
    42   23   24 1   
    43   23   29 ar  
    44   24   25 1   
    45   25   26 1   
    46   25   49 1   
    47   25   50 1   
    48   26   27 1   
    49   26   51 1   
    50   26   52 1   
    51   27   28 1   
    52   27   53 1   
    53   27   54 1   
    54   28   31 1   
    55   28   32 1   
    56   28   33 1   
    57   29   55 1   
    58   30   56 1   
@<TRIPOS>SUBSTRUCTURE
     1 B5S         1 TEMP              0 ****  ****    0 ROOT
