@<TRIPOS>MOLECULE
B5U
   69    72     1     0     0
SMALL
bcc


@<TRIPOS>ATOM
      1 C1          9.0120    4.5930    0.0860 c3        1 B5U     -0.053800
      2 C2          7.9750    3.5390    0.0140 ca        1 B5U     -0.070300
      3 C3          6.7780    3.7730   -0.6720 ca        1 B5U     -0.128000
      4 C4          5.7950    2.7910   -0.7460 ca        1 B5U     -0.122000
      5 C5          5.9950    1.5500   -0.1260 cp        1 B5U     -0.131500
      6 C6          7.1930    1.3080    0.5550 ca        1 B5U     -0.096000
      7 C7          8.1820    2.2930    0.6310 ca        1 B5U     -0.081300
      8 C8          9.4440    2.0220    1.3590 c3        1 B5U     -0.052800
      9 C9          4.9450    0.5270   -0.1940 cp        1 B5U      0.276500
     10 C10         3.5740    0.9200   -0.0680 ca        1 B5U      0.369900
     11 N11         2.5590    0.0640   -0.1300 nb        1 B5U     -0.707000
     12 C12         2.8610   -1.2750   -0.3350 ca        1 B5U      0.624900
     13 C13         4.2560   -1.6750   -0.4370 ca        1 B5U      0.162500
     14 N14         5.2600   -0.7720   -0.3680 nb        1 B5U     -0.586000
     15 C15         4.6350   -3.1150   -0.6420 c         1 B5U      0.584600
     16 O16         3.8940   -3.9140   -1.2600 o         1 B5U     -0.642100
     17 N17         5.8070   -3.5720   -0.0990 n         1 B5U     -0.641000
     18 N18         1.8480   -2.1990   -0.4210 nh        1 B5U     -0.730300
     19 C19         0.4740   -1.9300   -0.2420 ca        1 B5U      0.104600
     20 C20        -0.2800   -2.7840    0.5980 ca        1 B5U     -0.099000
     21 C21        -1.6400   -2.5860    0.7700 ca        1 B5U     -0.170500
     22 C22        -2.2770   -1.5180    0.1090 ca        1 B5U      0.123100
     23 C23        -1.5480   -0.6680   -0.7260 ca        1 B5U     -0.170500
     24 C24        -0.1820   -0.8770   -0.9060 ca        1 B5U     -0.099000
     25 O25        -3.6300   -1.4090    0.3620 os        1 B5U     -0.328900
     26 C26        -4.3060   -0.3370   -0.3060 c3        1 B5U      0.128400
     27 C27        -5.7590   -0.4370    0.1270 c3        1 B5U     -0.088400
     28 C28        -6.5320    0.7460   -0.4510 c3        1 B5U      0.172800
     29 N29        -7.9770    0.6280   -0.3110 n3        1 B5U     -0.727600
     30 C30        -8.6680    1.6770   -1.0500 c3        1 B5U      0.166800
     31 C31       -10.1990    1.6130   -0.8940 c3        1 B5U      0.167800
     32 N32       -10.6250    1.5550    0.4960 n3        1 B5U     -0.732600
     33 C33        -9.9410    0.5030    1.2340 c3        1 B5U      0.167800
     34 C34        -8.4090    0.5560    1.0770 c3        1 B5U      0.166800
     35 C35       -12.0620    1.4790    0.6310 c3        1 B5U      0.157100
     36 H11C        9.2160    4.8620    1.1530 hc        1 B5U      0.045367
     37 H12C        9.9680    4.2260   -0.3670 hc        1 B5U      0.045367
     38 H13C        8.6950    5.5160   -0.4580 hc        1 B5U      0.045367
     39 H3          6.6130    4.7450   -1.1620 ha        1 B5U      0.133000
     40 H4          4.8650    2.9880   -1.3000 ha        1 B5U      0.132000
     41 H6          7.3610    0.3330    1.0380 ha        1 B5U      0.140000
     42 H81C        9.5790    2.7610    2.1890 hc        1 B5U      0.044700
     43 H82C        9.4510    0.9930    1.7960 hc        1 B5U      0.044700
     44 H83C       10.3180    2.1170    0.6660 hc        1 B5U      0.044700
     45 H10         3.3060    1.9800    0.0990 h4        1 B5U      0.038100
     46 H18         2.1000   -3.1560   -0.5770 hn        1 B5U      0.483800
     47 H171        6.4790   -2.9490    0.2710 hn        1 B5U      0.318000
     48 H172        6.0950   -4.4970   -0.3150 hn        1 B5U      0.318000
     49 H20         0.2090   -3.6220    1.1220 ha        1 B5U      0.145500
     50 H24         0.3720   -0.2030   -1.5780 ha        1 B5U      0.145500
     51 H21        -2.2300   -3.2480    1.4190 ha        1 B5U      0.146000
     52 H23        -2.0320    0.1670   -1.2520 ha        1 B5U      0.146000
     53 H261       -3.8560    0.6420    0.0070 h1        1 B5U      0.039700
     54 H262       -4.2030   -0.4610   -1.4160 h1        1 B5U      0.039700
     55 H271       -6.1890   -1.4090   -0.2310 hc        1 B5U      0.065700
     56 H272       -5.8120   -0.4360    1.2460 hc        1 B5U      0.065700
     57 H281       -6.1420    1.6940    0.0280 h1        1 B5U      0.031200
     58 H282       -6.3120    0.8120   -1.5560 h1        1 B5U      0.031200
     59 H301       -8.3160    2.7050   -0.7420 h1        1 B5U      0.037700
     60 H302       -8.4300    1.5420   -2.1420 h1        1 B5U      0.037700
     61 H341       -7.9910   -0.3930    1.5180 h1        1 B5U      0.037700
     62 H342       -8.0140    1.4240    1.6820 h1        1 B5U      0.037700
     63 H311      -10.6290    2.5510   -1.3460 h1        1 B5U      0.037200
     64 H312      -10.5870    0.7340   -1.4870 h1        1 B5U      0.037200
     65 H331      -10.1790    0.6390    2.3250 h1        1 B5U      0.037200
     66 H332      -10.2990   -0.5230    0.9260 h1        1 B5U      0.037200
     67 H351      -12.5030    0.5410    0.1950 h1        1 B5U      0.032367
     68 H352      -12.3240    1.5230    1.7210 h1        1 B5U      0.032367
     69 H353      -12.5190    2.3620    0.1140 h1        1 B5U      0.032367
@<TRIPOS>BOND
     1    1    2 1   
     2    1   36 1   
     3    1   37 1   
     4    1   38 1   
     5    2    3 ar  
     6    2    7 ar  
     7    3    4 ar  
     8    3   39 1   
     9    4    5 ar  
    10    4   40 1   
    11    5    6 ar  
    12    5    9 1   
    13    6    7 ar  
    14    6   41 1   
    15    7    8 1   
    16    8   42 1   
    17    8   43 1   
    18    8   44 1   
    19    9   10 ar  
    20    9   14 ar  
    21   10   11 ar  
    22   10   45 1   
    23   11   12 ar  
    24   12   13 ar  
    25   12   18 1   
    26   13   14 ar  
    27   13   15 1   
    28   15   16 2   
    29   15   17 1   
    30   17   47 1   
    31   17   48 1   
    32   18   19 1   
    33   18   46 1   
    34   19   20 ar  
    35   19   24 ar  
    36   20   21 ar  
    37   20   49 1   
    38   21   22 ar  
    39   21   51 1   
    40   22   23 ar  
    41   22   25 1   
    42   23   24 ar  
    43   23   52 1   
    44   24   50 1   
    45   25   26 1   
    46   26   27 1   
    47   26   53 1   
    48   26   54 1   
    49   27   28 1   
    50   27   55 1   
    51   27   56 1   
    52   28   29 1   
    53   28   57 1   
    54   28   58 1   
    55   29   30 1   
    56   29   34 1   
    57   30   31 1   
    58   30   59 1   
    59   30   60 1   
    60   31   32 1   
    61   31   63 1   
    62   31   64 1   
    63   32   33 1   
    64   32   35 1   
    65   33   34 1   
    66   33   65 1   
    67   33   66 1   
    68   34   61 1   
    69   34   62 1   
    70   35   67 1   
    71   35   68 1   
    72   35   69 1   
@<TRIPOS>SUBSTRUCTURE
     1 B5U         1 TEMP              0 ****  ****    0 ROOT
