@<TRIPOS>MOLECULE
B5U
   70    73     1     0     0
SMALL
bcc


@<TRIPOS>ATOM
      1 C1         -0.2660   -0.0150   -0.8520 c3        1 B5U     -0.065800
      2 C2          1.2100   -0.0430   -0.7380 ca        1 B5U     -0.040300
      3 C3          1.8230   -0.7480    0.3050 ca        1 B5U     -0.121000
      4 C4          3.2080   -0.7770    0.4280 ca        1 B5U     -0.110000
      5 C5          4.0050   -0.0980   -0.5040 cp        1 B5U     -0.184500
      6 C6          3.4010    0.6030   -1.5530 ca        1 B5U     -0.092000
      7 C7          2.0090    0.6390   -1.6750 ca        1 B5U     -0.075300
      8 C8          1.3790    1.3950   -2.7820 c3        1 B5U     -0.059800
      9 C9          5.4650   -0.1220   -0.3580 cp        1 B5U      0.356500
     10 C10         6.0250    0.0900    0.9810 ca        1 B5U      0.415900
     11 N11         7.3090    0.0960    1.2340 nb        1 B5U     -0.671000
     12 C12         8.2000   -0.1120    0.1580 ca        1 B5U      0.675900
     13 C13         7.6390   -0.3290   -1.1670 ca        1 B5U      0.044500
     14 N14         6.2700   -0.3250   -1.3840 nb        1 B5U     -0.637000
     15 C15         8.4910   -0.5610   -2.3070 c         1 B5U      0.482600
     16 O16         9.7190   -0.5780   -2.4000 o         1 B5U     -0.507100
     17 N17         7.8010   -0.8380   -3.6340 nz        1 B5U     -0.737400
     18 N18         9.5330   -0.1180    0.3940 nu        1 B5U     -0.655300
     19 C19        10.1430    0.1150    1.6570 ca        1 B5U      0.028600
     20 C20        11.1520    1.1030    1.7520 ca        1 B5U     -0.072000
     21 C21        11.7980    1.3250    2.9540 ca        1 B5U     -0.175000
     22 C22        11.4450    0.5650    4.0920 ca        1 B5U      0.167100
     23 C23        10.4480   -0.4140    4.0050 ca        1 B5U     -0.175000
     24 C24         9.8010   -0.6400    2.7930 ca        1 B5U     -0.072000
     25 O25        12.1480    0.8750    5.2270 os        1 B5U     -0.314900
     26 C26        11.8310    0.1110    6.4040 c3        1 B5U      0.126400
     27 C27        12.7580    0.6380    7.4870 c3        1 B5U     -0.089400
     28 C28        12.4150   -0.0490    8.8080 c3        1 B5U      0.175800
     29 N29        13.3990    0.1880    9.8540 n3        1 B5U     -0.728600
     30 C30        13.1710   -0.6820   11.0020 c3        1 B5U      0.166800
     31 C31        14.1580   -0.4270   12.1570 c3        1 B5U      0.167800
     32 N32        14.2260    0.9760   12.5390 n3        1 B5U     -0.732600
     33 C33        14.4770    1.8390   11.3950 c3        1 B5U      0.167800
     34 C34        13.4980    1.5910   10.2320 c3        1 B5U      0.166800
     35 C35        15.1520    1.2100   13.6240 c3        1 B5U      0.156100
     36 H11C       -0.7510   -0.6040   -0.0350 hc        1 B5U      0.057367
     37 H12C       -0.5860   -0.4420   -1.8360 hc        1 B5U      0.057367
     38 H13C       -0.6370    1.0410   -0.7960 hc        1 B5U      0.057367
     39 H3          1.2010   -1.2850    1.0380 ha        1 B5U      0.150000
     40 H4          3.6730   -1.3420    1.2500 ha        1 B5U      0.135000
     41 H6          4.0220    1.1420   -2.2840 ha        1 B5U      0.132000
     42 H81C        2.1440    1.8780   -3.4370 hc        1 B5U      0.053367
     43 H82C        0.7110    2.1950   -2.3710 hc        1 B5U      0.053367
     44 H83C        0.7530    0.7120   -3.4100 hc        1 B5U      0.053367
     45 H10         5.3400    0.2660    1.8370 h4        1 B5U      0.070100
     46 H18        10.1650   -0.1890   -0.3810 hn        1 B5U      0.478800
     47 H171        7.2170   -0.0370   -3.8920 hn        1 B5U      0.467467
     48 H172        8.5060   -1.0000   -4.3600 hn        1 B5U      0.467467
     49 H20        11.4340    1.7040    0.8720 ha        1 B5U      0.145500
     50 H24         9.0230   -1.4170    2.7430 ha        1 B5U      0.145500
     51 H21        12.5850    2.0890    3.0420 ha        1 B5U      0.162000
     52 H23        10.1650   -1.0150    4.8820 ha        1 B5U      0.162000
     53 H261       12.0160   -0.9760    6.2010 h1        1 B5U      0.045200
     54 H262       10.7540    0.2740    6.6710 h1        1 B5U      0.045200
     55 H271       12.6320    1.7480    7.5740 hc        1 B5U      0.070200
     56 H272       13.8220    0.4400    7.1980 hc        1 B5U      0.070200
     57 H281       11.3790    0.2820    9.1220 h1        1 B5U      0.030700
     58 H282       12.3740   -1.1620    8.6320 h1        1 B5U      0.030700
     59 H301       13.3140   -1.7460   10.6600 h1        1 B5U      0.037200
     60 H302       12.1180   -0.5820   11.3980 h1        1 B5U      0.037200
     61 H341       12.4900    2.0180   10.5100 h1        1 B5U      0.037200
     62 H342       13.8810    2.1590    9.3390 h1        1 B5U      0.037200
     63 H311       13.7980   -1.0110   13.0500 h1        1 B5U      0.039700
     64 H312       15.1710   -0.8310   11.8640 h1        1 B5U      0.039700
     65 H331       15.5320    1.7250   11.0090 h1        1 B5U      0.039700
     66 H332       14.3450    2.9050   11.7320 h1        1 B5U      0.039700
     67 H351       16.2190    0.9710   13.3600 h1        1 B5U      0.035033
     68 H352       15.0920    2.2890   13.9220 h1        1 B5U      0.035033
     69 H353       14.8510    0.5760   14.4980 h1        1 B5U      0.035033
     70 H173        7.2000   -1.6620   -3.5430 hn        1 B5U      0.467467
@<TRIPOS>BOND
     1    1    2 1   
     2    1   36 1   
     3    1   37 1   
     4    1   38 1   
     5    2    3 ar  
     6    2    7 ar  
     7    3    4 ar  
     8    3   39 1   
     9    4    5 ar  
    10    4   40 1   
    11    5    6 ar  
    12    5    9 1   
    13    6    7 ar  
    14    6   41 1   
    15    7    8 1   
    16    8   42 1   
    17    8   43 1   
    18    8   44 1   
    19    9   10 ar  
    20    9   14 ar  
    21   10   11 ar  
    22   10   45 1   
    23   11   12 ar  
    24   12   13 ar  
    25   12   18 1   
    26   13   14 ar  
    27   13   15 1   
    28   15   16 2   
    29   15   17 1   
    30   17   47 1   
    31   17   48 1   
    32   17   70 1   
    33   18   19 1   
    34   18   46 1   
    35   19   20 ar  
    36   19   24 ar  
    37   20   21 ar  
    38   20   49 1   
    39   21   22 ar  
    40   21   51 1   
    41   22   23 ar  
    42   22   25 1   
    43   23   24 ar  
    44   23   52 1   
    45   24   50 1   
    46   25   26 1   
    47   26   27 1   
    48   26   53 1   
    49   26   54 1   
    50   27   28 1   
    51   27   55 1   
    52   27   56 1   
    53   28   29 1   
    54   28   57 1   
    55   28   58 1   
    56   29   30 1   
    57   29   34 1   
    58   30   31 1   
    59   30   59 1   
    60   30   60 1   
    61   31   32 1   
    62   31   63 1   
    63   31   64 1   
    64   32   33 1   
    65   32   35 1   
    66   33   34 1   
    67   33   65 1   
    68   33   66 1   
    69   34   61 1   
    70   34   62 1   
    71   35   67 1   
    72   35   68 1   
    73   35   69 1   
@<TRIPOS>SUBSTRUCTURE
     1 B5U         1 TEMP              0 ****  ****    0 ROOT
