@<TRIPOS>MOLECULE
B5U
   69    66     1     0     0
SMALL
bcc


@<TRIPOS>ATOM
      1 C1         -1.4820   -5.2960   -8.4810 c3        1 B5U     -0.180000
      2 C2         -1.8480   -4.2040   -7.3940 c2        1 B5U     -0.061000
      3 C3         -3.1490   -4.0590   -6.9840 c2        1 B5U     -0.131000
      4 C4         -3.4690   -3.1430   -5.9750 c1        1 B5U     -0.099000
      5 C5         -2.4600   -2.3680   -5.3780 c1        1 B5U     -0.028000
      6 C6         -1.1620   -2.5090   -5.7850 c1        1 B5U     -0.116000
      7 C7         -0.8390   -3.4370   -6.8060 c1        1 B5U     -0.071000
      8 C8          0.5970   -3.6010   -7.2560 c3        1 B5U     -0.178000
      9 C9         -2.8370   -1.3080   -4.2430 c2        1 B5U     -0.081000
     10 C10        -2.9710   -1.7180   -2.9240 c1        1 B5U     -0.039000
     11 N11        -3.2820   -0.8040   -1.9550 n1        1 B5U     -0.167000
     12 C12        -3.4600    0.4990   -2.2840 c1        1 B5U      0.142000
     13 C13        -3.3250    0.9080   -3.6070 c1        1 B5U     -0.175000
     14 N14        -3.0170    0.0060   -4.5690 n2        1 B5U     -0.064000
     15 C15        -3.4730    2.3750   -3.9640 c2        1 B5U      0.372000
     16 O16        -3.7050    3.1820   -3.1050 o         1 B5U     -0.402000
     17 N17        -3.3860    2.7810   -5.2940 n         1 B5U     -0.400000
     18 N18        -3.7750    1.4750   -1.2520 n3        1 B5U     -0.231000
     19 C19        -2.9790    1.5250   -0.0320 c2        1 B5U      0.011000
     20 C20        -1.7210    2.1380   -0.0390 c2        1 B5U     -0.122000
     21 C21        -0.9810    2.2470    1.1560 c1        1 B5U     -0.192000
     22 C22        -1.5060    1.7450    2.3420 c1        1 B5U      0.075000
     23 C23        -2.7600    1.1350    2.3450 c1        1 B5U     -0.150000
     24 C24        -3.4950    1.0280    1.1450 c1        1 B5U     -0.079000
     25 O25        -0.7480    1.8610    3.5860 os        1 B5U     -0.211000
     26 C26         0.1520    0.7400    3.8500 c3        1 B5U     -0.018000
     27 C27         1.4270    1.2620    4.6160 c3        1 B5U     -0.235000
     28 C28         2.6220    0.4530    4.2000 c3        1 B5U     -0.059000
     29 N29         3.8830    1.0830    4.7750 n3        1 B5U     -0.257000
     30 C30         3.5610    2.3370    5.3990 c3        1 B5U     -0.099500
     31 C31         4.7640    2.9490    6.1390 c3        1 B5U     -0.074000
     32 N32         5.3800    2.0170    7.0480 n3        1 B5U     -0.245000
     33 C33         5.6990    0.7690    6.4320 c3        1 B5U     -0.074000
     34 C34         4.4990    0.1550    5.6940 c3        1 B5U     -0.099500
     35 C35         4.4970    1.7910    8.1840 c3        1 B5U     -0.128000
     36 H11C       -1.1970   -4.8390   -9.3320 hc        1 B5U      0.085000
     37 H12C       -2.2870   -5.8710   -8.6630 hc        1 B5U      0.085000
     38 H13C       -0.7400   -5.8640   -8.1420 hc        1 B5U      0.085000
     39 H3         -3.8430   -4.5890   -7.3900 ha        1 B5U      0.133000
     40 H4         -4.4230   -3.0390   -5.6770 ha        1 B5U      0.140000
     41 H6         -0.4750   -1.9840   -5.3810 ha        1 B5U      0.134000
     42 H81C        0.8740   -4.4890   -7.1030 hc        1 B5U      0.084667
     43 H82C        1.1590   -2.9980   -6.7550 hc        1 B5U      0.084667
     44 H83C        0.6730   -3.3840   -8.2710 hc        1 B5U      0.084667
     45 H10        -2.8400   -2.6790   -2.6820 ha        1 B5U      0.176000
     46 H18        -4.4960    1.9630   -1.3210 hn        1 B5U      0.261000
     47 H171       -3.4570    3.6500   -5.5020 hn        1 B5U      0.232000
     48 H172       -3.2980    2.1700   -5.9450 hn        1 B5U      0.232000
     49 H20        -1.3430    2.5030   -0.9030 ha        1 B5U      0.140000
     50 H24        -4.3340    0.6180    1.1480 ha        1 B5U      0.151000
     51 H21        -0.1020    2.6750    1.1500 ha        1 B5U      0.140000
     52 H23        -3.1440    0.7700    3.2030 ha        1 B5U      0.151000
     53 H261        0.4180    0.3470    3.0290 h1        1 B5U      0.096500
     54 H262       -0.3180    0.0590    4.4080 h1        1 B5U      0.096500
     55 H271        1.2870    1.1680    5.6310 hc        1 B5U      0.097500
     56 H272        1.5750    2.1890    4.3970 hc        1 B5U      0.097500
     57 H281        2.6780    0.4320    3.2600 h1        1 B5U      0.090000
     58 H282        2.5320   -0.4710    4.5430 h1        1 B5U      0.090000
     59 H301        3.2470    2.9840    4.6960 h1        1 B5U      0.073750
     60 H302        2.8210    2.1870    6.0560 h1        1 B5U      0.073750
     61 H341        4.7900   -0.6100    5.2150 h1        1 B5U      0.073750
     62 H342        3.8290   -0.1220    6.3580 h1        1 B5U      0.073750
     63 H311        5.3950    3.2210    5.5150 h1        1 B5U      0.097500
     64 H312        4.4620    3.7290    6.6440 h1        1 B5U      0.097500
     65 H331        6.4310    0.9110    5.7860 h1        1 B5U      0.097500
     66 H332        6.0030    0.1390    7.1260 h1        1 B5U      0.097500
     67 H351        4.8040    0.9940    8.6960 h1        1 B5U      0.071000
     68 H352        3.5540    1.6350    7.8520 h1        1 B5U      0.071000
     69 H353        4.5130    2.5790    8.7680 h1        1 B5U      0.071000
@<TRIPOS>BOND
     1    1    2 1   
     2    1   36 1   
     3    1   37 1   
     4    1   38 1   
     5    2    3 1   
     6    2    7 1   
     7    3    4 1   
     8    3   39 1   
     9    4   40 1   
    10    5    6 1   
    11    5    9 1   
    12    6   41 1   
    13    7    8 1   
    14    8   42 1   
    15    8   43 1   
    16    8   44 1   
    17    9   10 1   
    18    9   14 1   
    19   10   45 1   
    20   11   12 1   
    21   12   18 1   
    22   13   14 1   
    23   13   15 1   
    24   15   16 1   
    25   15   17 1   
    26   17   47 1   
    27   17   48 1   
    28   18   19 1   
    29   18   46 1   
    30   19   20 1   
    31   19   24 1   
    32   20   21 1   
    33   20   49 1   
    34   21   51 1   
    35   22   23 1   
    36   22   25 1   
    37   23   52 1   
    38   24   50 1   
    39   25   26 1   
    40   26   27 1   
    41   26   53 1   
    42   26   54 1   
    43   27   28 1   
    44   27   55 1   
    45   27   56 1   
    46   28   29 1   
    47   28   57 1   
    48   28   58 1   
    49   29   30 1   
    50   29   34 1   
    51   30   31 1   
    52   30   59 1   
    53   30   60 1   
    54   31   32 1   
    55   31   63 1   
    56   31   64 1   
    57   32   33 1   
    58   32   35 1   
    59   33   34 1   
    60   33   65 1   
    61   33   66 1   
    62   34   61 1   
    63   34   62 1   
    64   35   67 1   
    65   35   68 1   
    66   35   69 1   
@<TRIPOS>SUBSTRUCTURE
     1 B5U         1 TEMP              0 ****  ****    0 ROOT
