@<TRIPOS>MOLECULE
B5U
   71    74     1     0     0
SMALL
bcc


@<TRIPOS>ATOM
      1 C1         -0.1090    0.5040   -0.6790 c3        1 B5U     -0.084800
      2 C2          1.3430    0.2470   -0.5760 ca        1 B5U      0.018700
      3 C3          1.8740   -0.3570    0.5740 ca        1 B5U     -0.126000
      4 C4          3.2330   -0.6170    0.6810 ca        1 B5U     -0.079000
      5 C5          4.1020   -0.2650   -0.3700 cp        1 B5U     -0.245500
      6 C6          3.5760    0.3550   -1.5170 ca        1 B5U     -0.062000
      7 C7          2.2090    0.6050   -1.6310 ca        1 B5U     -0.078300
      8 C8          1.6650    1.2390   -2.8550 c3        1 B5U     -0.067800
      9 C9          5.5210   -0.5530   -0.2560 cp        1 B5U      0.488500
     10 C10         5.9560   -1.7120    0.5160 ca        1 B5U      0.386900
     11 N11         7.2310   -2.0360    0.6660 nb        1 B5U     -0.612000
     12 C12         8.1750   -1.2380    0.0550 ca        1 B5U      0.424900
     13 C13         7.7710   -0.1080   -0.7070 ca        1 B5U      0.256500
     14 N14         6.4520    0.2170   -0.8540 nb        1 B5U     -0.682000
     15 C15         8.7510    0.7720   -1.3900 c         1 B5U      0.475600
     16 O16         9.9600    0.5940   -1.4820 o         1 B5U     -0.436100
     17 N17         8.2280    2.0170   -2.0460 n4        1 B5U     -0.729400
     18 N18         9.5830   -1.6390    0.2630 n4        1 B5U     -0.597100
     19 C19        10.1410   -1.1200    1.5170 ca        1 B5U     -0.158400
     20 C20        11.0850   -0.0690    1.4720 ca        1 B5U     -0.051000
     21 C21        11.6620    0.3800    2.6420 ca        1 B5U     -0.177500
     22 C22        11.3060   -0.2130    3.8830 ca        1 B5U      0.228100
     23 C23        10.3620   -1.2570    3.9190 ca        1 B5U     -0.177500
     24 C24         9.7810   -1.7100    2.7430 ca        1 B5U     -0.051000
     25 O25        11.9340    0.3090    4.9620 os        1 B5U     -0.291900
     26 C26        11.6720   -0.3020    6.2490 c3        1 B5U      0.123400
     27 C27        12.5660    0.4410    7.2250 c3        1 B5U     -0.093400
     28 C28        12.3060   -0.0950    8.6350 c3        1 B5U      0.179800
     29 N29        13.2810    0.3790    9.6050 n3        1 B5U     -0.729600
     30 C30        13.2650   -0.4290   10.8190 c3        1 B5U      0.167300
     31 C31        14.2370    0.0840   11.8990 c3        1 B5U      0.168300
     32 N32        14.0660    1.5020   12.1780 n3        1 B5U     -0.732600
     33 C33        14.1290    2.3020   10.9640 c3        1 B5U      0.168300
     34 C34        13.1590    1.8040    9.8760 c3        1 B5U      0.167300
     35 C35        14.9620    1.9790   13.2070 c3        1 B5U      0.154100
     36 H11C       -0.5340   -0.0350   -1.5650 hc        1 B5U      0.075367
     37 H12C       -0.6550    0.1650    0.2360 hc        1 B5U      0.075367
     38 H13C       -0.2990    1.6000   -0.8200 hc        1 B5U      0.075367
     39 H3          1.2000   -0.6300    1.4040 ha        1 B5U      0.169000
     40 H4          3.6220   -1.0750    1.6030 ha        1 B5U      0.138000
     41 H6          4.2390    0.6290   -2.3530 ha        1 B5U      0.133000
     42 H81C        0.9170    0.5590   -3.3410 hc        1 B5U      0.064033
     43 H82C        1.1420    2.1950   -2.5960 hc        1 B5U      0.064033
     44 H83C        2.4700    1.4640   -3.5960 hc        1 B5U      0.064033
     45 H10         5.2120   -2.3840    0.9990 h4        1 B5U      0.100100
     46 H18         9.6340   -2.6740    0.2980 hn        1 B5U      0.482300
     47 H171        7.7380    2.6010   -1.3540 hn        1 B5U      0.492800
     48 H172        9.0070    2.5530   -2.4590 hn        1 B5U      0.492800
     49 H20        11.3890    0.3830    0.5120 ha        1 B5U      0.158000
     50 H24         9.0490   -2.5350    2.7890 ha        1 B5U      0.158000
     51 H21        12.4140    1.1880    2.6340 ha        1 B5U      0.186000
     52 H23        10.0830   -1.7290    4.8750 ha        1 B5U      0.186000
     53 H261       11.9330   -1.3910    6.1950 h1        1 B5U      0.056200
     54 H262       10.5870   -0.1700    6.4950 h1        1 B5U      0.056200
     55 H271       12.3460    1.5390    7.1740 hc        1 B5U      0.076200
     56 H272       13.6400    0.2980    6.9380 hc        1 B5U      0.076200
     57 H281       12.3720   -1.2210    8.6050 h1        1 B5U      0.031700
     58 H282       11.2480    0.1750    8.9280 h1        1 B5U      0.031700
     59 H301       13.5840   -1.4730   10.5420 h1        1 B5U      0.036200
     60 H302       12.2290   -0.4860   11.2640 h1        1 B5U      0.036200
     61 H341       12.1060    2.0800   10.1780 h1        1 B5U      0.036200
     62 H342       13.4020    2.3560    8.9250 h1        1 B5U      0.036200
     63 H311       14.0240   -0.4840   12.8480 h1        1 B5U      0.043700
     64 H312       15.2930   -0.1560   11.5790 h1        1 B5U      0.043700
     65 H331       15.1720    2.3290   10.5330 h1        1 B5U      0.043700
     66 H332       13.8360    3.3560   11.2290 h1        1 B5U      0.043700
     67 H351       16.0470    1.9120   12.9200 h1        1 B5U      0.039033
     68 H352       14.7990    1.3720   14.1360 h1        1 B5U      0.039033
     69 H353       14.7160    3.0510   13.4300 h1        1 B5U      0.039033
     70 H173        7.5580    1.7660   -2.7880 hn        1 B5U      0.492800
     71 H182       10.1550   -1.3080   -0.5280 hn        1 B5U      0.482300
@<TRIPOS>BOND
     1    1    2 1   
     2    1   36 1   
     3    1   37 1   
     4    1   38 1   
     5    2    3 ar  
     6    2    7 ar  
     7    3    4 ar  
     8    3   39 1   
     9    4    5 ar  
    10    4   40 1   
    11    5    6 ar  
    12    5    9 1   
    13    6    7 ar  
    14    6   41 1   
    15    7    8 1   
    16    8   42 1   
    17    8   43 1   
    18    8   44 1   
    19    9   10 ar  
    20    9   14 ar  
    21   10   11 ar  
    22   10   45 1   
    23   11   12 ar  
    24   12   13 ar  
    25   12   18 1   
    26   13   14 ar  
    27   13   15 1   
    28   15   16 2   
    29   15   17 1   
    30   17   47 1   
    31   17   48 1   
    32   17   70 1   
    33   18   19 1   
    34   18   46 1   
    35   18   71 1   
    36   19   20 ar  
    37   19   24 ar  
    38   20   21 ar  
    39   20   49 1   
    40   21   22 ar  
    41   21   51 1   
    42   22   23 ar  
    43   22   25 1   
    44   23   24 ar  
    45   23   52 1   
    46   24   50 1   
    47   25   26 1   
    48   26   27 1   
    49   26   53 1   
    50   26   54 1   
    51   27   28 1   
    52   27   55 1   
    53   27   56 1   
    54   28   29 1   
    55   28   57 1   
    56   28   58 1   
    57   29   30 1   
    58   29   34 1   
    59   30   31 1   
    60   30   59 1   
    61   30   60 1   
    62   31   32 1   
    63   31   63 1   
    64   31   64 1   
    65   32   33 1   
    66   32   35 1   
    67   33   34 1   
    68   33   65 1   
    69   33   66 1   
    70   34   61 1   
    71   34   62 1   
    72   35   67 1   
    73   35   68 1   
    74   35   69 1   
@<TRIPOS>SUBSTRUCTURE
     1 B5U         1 TEMP              0 ****  ****    0 ROOT
