@<TRIPOS>MOLECULE
B5U
   70    73     1     0     0
SMALL
bcc


@<TRIPOS>ATOM
      1 C1         -0.2650    0.0020   -0.8570 c3        1 B5U     -0.065800
      2 C2          1.2110   -0.0300   -0.7420 ca        1 B5U     -0.040300
      3 C3          1.8210   -0.7340    0.3040 ca        1 B5U     -0.121000
      4 C4          3.2060   -0.7670    0.4270 ca        1 B5U     -0.110000
      5 C5          4.0050   -0.0930   -0.5060 cp        1 B5U     -0.184500
      6 C6          3.4050    0.6070   -1.5570 ca        1 B5U     -0.092000
      7 C7          2.0120    0.6470   -1.6800 ca        1 B5U     -0.075300
      8 C8          1.3850    1.4020   -2.7900 c3        1 B5U     -0.059800
      9 C9          5.4650   -0.1200   -0.3590 cp        1 B5U      0.356500
     10 C10         6.0250    0.0940    0.9800 ca        1 B5U      0.415900
     11 N11         7.3090    0.0960    1.2340 nb        1 B5U     -0.671000
     12 C12         8.2000   -0.1170    0.1580 ca        1 B5U      0.675900
     13 C13         7.6390   -0.3360   -1.1660 ca        1 B5U      0.044500
     14 N14         6.2700   -0.3280   -1.3840 nb        1 B5U     -0.637000
     15 C15         8.4920   -0.5730   -2.3040 c         1 B5U      0.482600
     16 O16         9.7200   -0.5940   -2.3970 o         1 B5U     -0.507100
     17 N17         7.8010   -0.8520   -3.6310 n4        1 B5U     -0.737400
     18 N18         9.5330   -0.1260    0.3950 nh        1 B5U     -0.655300
     19 C19        10.1430    0.1080    1.6590 ca        1 B5U      0.028600
     20 C20        11.1540    1.0930    1.7520 ca        1 B5U     -0.072000
     21 C21        11.8000    1.3160    2.9540 ca        1 B5U     -0.175000
     22 C22        11.4450    0.5600    4.0930 ca        1 B5U      0.167100
     23 C23        10.4450   -0.4170    4.0080 ca        1 B5U     -0.175000
     24 C24         9.7980   -0.6430    2.7960 ca        1 B5U     -0.072000
     25 O25        12.1480    0.8700    5.2280 os        1 B5U     -0.314900
     26 C26        11.8290    0.1090    6.4060 c3        1 B5U      0.126400
     27 C27        12.7570    0.6350    7.4880 c3        1 B5U     -0.089400
     28 C28        12.4120   -0.0480    8.8100 c3        1 B5U      0.175800
     29 N29        13.3960    0.1870    9.8570 n3        1 B5U     -0.728600
     30 C30        13.1670   -0.6800   11.0060 c3        1 B5U      0.166800
     31 C31        14.1530   -0.4260   12.1600 c3        1 B5U      0.167800
     32 N32        14.2260    0.9770   12.5400 n3        1 B5U     -0.732600
     33 C33        14.4790    1.8380   11.3950 c3        1 B5U      0.167800
     34 C34        13.4990    1.5900   10.2320 c3        1 B5U      0.166800
     35 C35        15.1520    1.2110   13.6250 c3        1 B5U      0.156100
     36 H11C       -0.6330    1.0580   -0.8030 hc        1 B5U      0.057367
     37 H12C       -0.7520   -0.5840   -0.0400 hc        1 B5U      0.057367
     38 H13C       -0.5850   -0.4260   -1.8410 hc        1 B5U      0.057367
     39 H3          1.1970   -1.2670    1.0380 ha        1 B5U      0.150000
     40 H4          3.6680   -1.3310    1.2520 ha        1 B5U      0.135000
     41 H6          4.0270    1.1430   -2.2890 ha        1 B5U      0.132000
     42 H81C        2.1520    1.8810   -3.4460 hc        1 B5U      0.053367
     43 H82C        0.7180    2.2040   -2.3820 hc        1 B5U      0.053367
     44 H83C        0.7590    0.7180   -3.4170 hc        1 B5U      0.053367
     45 H10         5.3400    0.2740    1.8350 h4        1 B5U      0.070100
     46 H18        10.1650   -0.2010   -0.3790 hn        1 B5U      0.478800
     47 H171        7.2190   -0.0510   -3.8920 hn        1 B5U      0.467467
     48 H172        7.1980   -1.6740   -3.5390 hn        1 B5U      0.467467
     49 H20        11.4390    1.6910    0.8710 ha        1 B5U      0.145500
     50 H24         9.0170   -1.4190    2.7470 ha        1 B5U      0.145500
     51 H21        12.5900    2.0780    3.0410 ha        1 B5U      0.162000
     52 H23        10.1600   -1.0150    4.8860 ha        1 B5U      0.162000
     53 H261       12.0110   -0.9790    6.2060 h1        1 B5U      0.045200
     54 H262       10.7530    0.2750    6.6730 h1        1 B5U      0.045200
     55 H271       13.8210    0.4340    7.2000 hc        1 B5U      0.070200
     56 H272       12.6340    1.7460    7.5740 hc        1 B5U      0.070200
     57 H281       11.3770    0.2850    9.1230 h1        1 B5U      0.030700
     58 H282       12.3680   -1.1620    8.6360 h1        1 B5U      0.030700
     59 H301       13.3060   -1.7450   10.6650 h1        1 B5U      0.037200
     60 H302       12.1140   -0.5770   11.4010 h1        1 B5U      0.037200
     61 H341       13.8840    2.1560    9.3380 h1        1 B5U      0.037200
     62 H342       12.4920    2.0210   10.5090 h1        1 B5U      0.037200
     63 H311       13.7920   -1.0070   13.0540 h1        1 B5U      0.039700
     64 H312       15.1650   -0.8330   11.8680 h1        1 B5U      0.039700
     65 H331       14.3500    2.9050   11.7300 h1        1 B5U      0.039700
     66 H332       15.5340    1.7210   11.0090 h1        1 B5U      0.039700
     67 H351       14.8490    0.5790   14.5000 h1        1 B5U      0.035033
     68 H352       15.0950    2.2910   13.9210 h1        1 B5U      0.035033
     69 H353       16.2190    0.9680   13.3610 h1        1 B5U      0.035033
     70 H173        8.5070   -1.0180   -4.3570 hn        1 B5U      0.467467
@<TRIPOS>BOND
     1    1    2 1   
     2    1   36 1   
     3    1   37 1   
     4    1   38 1   
     5    2    3 ar  
     6    2    7 ar  
     7    3    4 ar  
     8    3   39 1   
     9    4    5 ar  
    10    4   40 1   
    11    5    6 ar  
    12    5    9 1   
    13    6    7 ar  
    14    6   41 1   
    15    7    8 1   
    16    8   42 1   
    17    8   43 1   
    18    8   44 1   
    19    9   10 ar  
    20    9   14 ar  
    21   10   11 ar  
    22   10   45 1   
    23   11   12 ar  
    24   12   13 ar  
    25   12   18 1   
    26   13   14 ar  
    27   13   15 1   
    28   15   16 2   
    29   15   17 1   
    30   17   47 1   
    31   17   48 1   
    32   17   70 1   
    33   18   19 1   
    34   18   46 1   
    35   19   20 ar  
    36   19   24 ar  
    37   20   21 ar  
    38   20   49 1   
    39   21   22 ar  
    40   21   51 1   
    41   22   23 ar  
    42   22   25 1   
    43   23   24 ar  
    44   23   52 1   
    45   24   50 1   
    46   25   26 1   
    47   26   27 1   
    48   26   53 1   
    49   26   54 1   
    50   27   28 1   
    51   27   55 1   
    52   27   56 1   
    53   28   29 1   
    54   28   57 1   
    55   28   58 1   
    56   29   30 1   
    57   29   34 1   
    58   30   31 1   
    59   30   59 1   
    60   30   60 1   
    61   31   32 1   
    62   31   63 1   
    63   31   64 1   
    64   32   33 1   
    65   32   35 1   
    66   33   34 1   
    67   33   65 1   
    68   33   66 1   
    69   34   61 1   
    70   34   62 1   
    71   35   67 1   
    72   35   68 1   
    73   35   69 1   
@<TRIPOS>SUBSTRUCTURE
     1 B5U         1 TEMP              0 ****  ****    0 ROOT
