@<TRIPOS>MOLECULE
B60
   22    23     1     0     0
SMALL
bcc


@<TRIPOS>ATOM
      1 O2          1.5540   -2.6300   -0.1440 o         1 B60     -0.605500
      2 C1          1.1820   -1.4480   -0.0780 c         1 B60      0.749700
      3 C4         -0.1800   -0.9290   -0.0960 cc        1 B60     -0.194600
      4 C7         -0.3890    0.4810    0.0000 cd        1 B60      0.454600
      5 N6          0.6680    1.3860    0.0800 nd        1 B60     -0.738300
      6 C5          1.9250    0.8850    0.1210 cc        1 B60      0.716800
      7 N8          2.9900    1.7810    0.3280 nh        1 B60     -0.903800
      8 N3          2.2180   -0.4760    0.0200 n         1 B60     -0.510400
      9 N9         -1.2310   -1.8440   -0.2040 ne        1 B60     -0.453300
     10 C10        -2.4330   -1.3710   -0.2220 c2        1 B60      0.323200
     11 C11        -2.8120    0.0850   -0.1330 c3        1 B60      0.151500
     12 N12        -1.6810    0.9790    0.0190 nh        1 B60     -0.661400
     13 C13        -1.9520    2.3890    0.0680 c3        1 B60      0.214100
     14 HN8         2.7590    2.7480    0.2680 hn        1 B60      0.427800
     15 HN8A        3.8660    1.5310   -0.0700 hn        1 B60      0.427800
     16 H10        -3.2740   -2.0790   -0.3130 h4        1 B60      0.034800
     17 H11        -3.3850    0.3730   -1.0640 h1        1 B60      0.045200
     18 H13        -3.0600    2.5540    0.1300 h1        1 B60      0.047367
     19 H13A       -1.4650    2.8470    0.9700 h1        1 B60      0.047367
     20 H13B       -1.5570    2.9000   -0.8510 h1        1 B60      0.047367
     21 H8          3.1550   -0.8080    0.0890 hn        1 B60      0.333500
     22 H9         -3.5000    0.2320    0.7520 h1        1 B60      0.045200
@<TRIPOS>BOND
     1    1    2 2   
     2    2    3 1   
     3    2    8 1   
     4    3    4 2   
     5    3    9 1   
     6    4    5 1   
     7    4   12 1   
     8    5    6 2   
     9    6    7 1   
    10    6    8 1   
    11    7   14 1   
    12    7   15 1   
    13    8   21 1   
    14    9   10 2   
    15   10   11 1   
    16   10   16 1   
    17   11   12 1   
    18   11   17 1   
    19   11   22 1   
    20   12   13 1   
    21   13   18 1   
    22   13   19 1   
    23   13   20 1   
@<TRIPOS>SUBSTRUCTURE
     1 B60         1 TEMP              0 ****  ****    0 ROOT
