@<TRIPOS>MOLECULE
B60
   22    19     1     0     0
SMALL
bcc


@<TRIPOS>ATOM
      1 O2         -3.2540   -0.0470   -1.1840 o         1 B60     -0.330000
      2 C1         -2.0400   -0.0470   -1.1840 c1        1 B60      0.388000
      3 C4         -1.2980   -0.0470    0.1010 c2        1 B60     -0.316000
      4 C7          0.1730    0.0530    0.0960 c1        1 B60      0.232000
      5 N6          0.8760    0.1580   -1.1530 n1        1 B60     -0.310000
      6 C5          0.1280    0.2410   -2.4090 c1        1 B60      0.270000
      7 N8          0.8170    0.4650   -3.6300 n3        1 B60     -0.342000
      8 N3         -1.3280    0.0380   -2.4150 n1        1 B60     -0.350000
      9 N9         -1.9890   -0.0700    1.4400 n2        1 B60     -0.025000
     10 C10        -1.1750    0.1830    2.6260 c1        1 B60     -0.169000
     11 C11         0.2200    0.5970    2.4130 c3        1 B60     -0.010000
     12 N12         0.8120   -0.0220    1.3090 n3        1 B60     -0.264000
     13 C13         1.8720   -0.9520    1.4990 c3        1 B60     -0.062000
     14 HN8         0.3510    0.5290   -4.4110 hn        1 B60      0.223000
     15 HN8A        1.7270    0.5210   -3.6360 hn        1 B60      0.223000
     16 H10        -1.4530   -0.1700    3.4930 DU        1 B60      0.164000
     17 H11         0.2020    1.5730    2.4450 h1        1 B60      0.084500
     18 H13         1.7760   -1.3830    2.3700 h1        1 B60      0.086667
     19 H13A        1.8410   -1.6290    0.7960 h1        1 B60      0.086667
     20 H13B        2.7280   -0.4830    1.4610 h1        1 B60      0.086667
     21 H8         -1.7880    0.0900   -3.2000 hn        1 B60      0.247000
     22 H9          0.8040    0.4040    3.1720 h1        1 B60      0.084500
@<TRIPOS>BOND
     1    1    2 1   
     2    2    3 1   
     3    3    4 1   
     4    3    9 1   
     5    4   12 1   
     6    5    6 1   
     7    6    7 1   
     8    7   14 1   
     9    7   15 1   
    10    8   21 1   
    11    9   10 1   
    12   10   11 1   
    13   11   12 1   
    14   11   17 1   
    15   11   22 1   
    16   12   13 1   
    17   13   18 1   
    18   13   19 1   
    19   13   20 1   
@<TRIPOS>SUBSTRUCTURE
     1 B60         1 TEMP              0 ****  ****    0 ROOT
