@<TRIPOS>MOLECULE
B60
   23    24     1     0     0
SMALL
bcc


@<TRIPOS>ATOM
      1 O2         -0.1080    0.2610   -0.1780 o         1 B60     -0.509500
      2 C1          1.1060    0.1600   -0.0110 c         1 B60      0.744700
      3 C4          1.8830    0.1710    1.2270 cc        1 B60     -0.095600
      4 C7          3.2970    0.0380    1.1970 cd        1 B60      0.402600
      5 N6          3.9830   -0.1070   -0.0310 nd        1 B60     -0.622300
      6 C5          3.2480   -0.1130   -1.1330 cc        1 B60      0.562800
      7 N8          4.0250   -0.2710   -2.4150 nz        1 B60     -0.809600
      8 N3          1.8760    0.0080   -1.2240 ns        1 B60     -0.497400
      9 N9          1.1660    0.3170    2.4240 ne        1 B60     -0.475300
     10 C10         1.8460    0.3280    3.5230 c2        1 B60      0.401200
     11 C11         3.3440    0.1980    3.6420 c3        1 B60      0.129500
     12 N12         4.0280    0.0500    2.3650 nh        1 B60     -0.642400
     13 C13         5.4590   -0.0820    2.3850 c3        1 B60      0.201100
     14 HN8         5.0320   -0.3500   -2.2040 hn        1 B60      0.483133
     15 HN8A        3.8710    0.5500   -3.0130 hn        1 B60      0.483133
     16 H10         1.2930    0.4430    4.4760 h4        1 B60      0.067800
     17 H11         3.7520    1.1160    4.1610 h1        1 B60      0.077700
     18 H13         5.9380    0.7550    1.8080 h1        1 B60      0.062033
     19 H13A        5.7690   -1.0630    1.9330 h1        1 B60      0.062033
     20 H13B        5.8210   -0.0430    3.4470 h1        1 B60      0.062033
     21 H8          1.3810   -0.0050   -2.0910 hn        1 B60      0.351500
     22 H9          3.5840   -0.7030    4.2820 h1        1 B60      0.077700
     23 H83         3.7160   -1.1220   -2.9010 hn        1 B60      0.483133
@<TRIPOS>BOND
     1    1    2 2   
     2    2    3 1   
     3    2    8 1   
     4    3    4 2   
     5    3    9 1   
     6    4    5 1   
     7    4   12 1   
     8    5    6 2   
     9    6    7 1   
    10    6    8 1   
    11    7   14 1   
    12    7   15 1   
    13    7   23 1   
    14    8   21 1   
    15    9   10 2   
    16   10   11 1   
    17   10   16 1   
    18   11   12 1   
    19   11   17 1   
    20   11   22 1   
    21   12   13 1   
    22   13   18 1   
    23   13   19 1   
    24   13   20 1   
@<TRIPOS>SUBSTRUCTURE
     1 B60         1 TEMP              0 ****  ****    0 ROOT
