@<TRIPOS>MOLECULE
B60
   23    24     1     0     0
SMALL
bcc


@<TRIPOS>ATOM
      1 O2         -0.1210    0.2080   -0.1480 o         1 B60     -0.509500
      2 C1          1.0950    0.1250    0.0080 c         1 B60      0.744700
      3 C4          1.8840    0.1540    1.2400 cc        1 B60     -0.095600
      4 C7          3.3000    0.0410    1.1960 cd        1 B60      0.402600
      5 N6          3.9760   -0.1040   -0.0370 nd        1 B60     -0.622300
      6 C5          3.2300   -0.1270   -1.1320 cc        1 B60      0.562800
      7 N8          3.9980   -0.2830   -2.4200 n4        1 B60     -0.809600
      8 N3          1.8560   -0.0250   -1.2100 n         1 B60     -0.497400
      9 N9          1.1760    0.2980    2.4420 ne        1 B60     -0.475300
     10 C10         1.8660    0.3250    3.5350 c2        1 B60      0.401200
     11 C11         3.3670    0.2170    3.6400 c3        1 B60      0.129500
     12 N12         4.0400    0.0710    2.3580 nh        1 B60     -0.642400
     13 C13         5.4740   -0.0430    2.3640 c3        1 B60      0.201100
     14 HN8         5.0080   -0.3470   -2.2180 hn        1 B60      0.483133
     15 HN8A        3.8260    0.5320   -3.0220 hn        1 B60      0.483133
     16 H10         1.3210    0.4380    4.4920 h4        1 B60      0.067800
     17 H11         3.6260   -0.6760    4.2840 h1        1 B60      0.077700
     18 H13         5.8450    0.0100    3.4230 h1        1 B60      0.062033
     19 H13A        5.9360    0.7960    1.7770 h1        1 B60      0.062033
     20 H13B        5.7920   -1.0230    1.9180 h1        1 B60      0.062033
     21 H8          1.3530   -0.0500   -2.0730 hn        1 B60      0.351500
     22 H9          3.7670    1.1440    4.1490 h1        1 B60      0.077700
     23 H83         3.6960   -1.1410   -2.8970 hn        1 B60      0.483133
@<TRIPOS>BOND
     1    1    2 2   
     2    2    3 1   
     3    2    8 1   
     4    3    4 2   
     5    3    9 1   
     6    4    5 1   
     7    4   12 1   
     8    5    6 2   
     9    6    7 1   
    10    6    8 1   
    11    7   14 1   
    12    7   15 1   
    13    7   23 1   
    14    8   21 1   
    15    9   10 2   
    16   10   11 1   
    17   10   16 1   
    18   11   12 1   
    19   11   17 1   
    20   11   22 1   
    21   12   13 1   
    22   13   18 1   
    23   13   19 1   
    24   13   20 1   
@<TRIPOS>SUBSTRUCTURE
     1 B60         1 TEMP              0 ****  ****    0 ROOT
