@<TRIPOS>MOLECULE
B60
   23    24     1     0     0
SMALL
bcc


@<TRIPOS>ATOM
      1 O2         -0.1120    0.2890   -0.1490 o         1 B60     -0.509500
      2 C1          1.1020    0.1780    0.0090 c         1 B60      0.744700
      3 C4          1.8890    0.1880    1.2420 cc        1 B60     -0.095600
      4 C7          3.3020    0.0420    1.2010 cd        1 B60      0.402600
      5 N6          3.9770   -0.1150   -0.0320 nd        1 B60     -0.622300
      6 C5          3.2330   -0.1180   -1.1280 cc        1 B60      0.562800
      7 N8          3.9990   -0.2880   -2.4160 n4        1 B60     -0.809600
      8 N3          1.8620    0.0140   -1.2080 n         1 B60     -0.497400
      9 N9          1.1830    0.3450    2.4440 ne        1 B60     -0.475300
     10 C10         1.8710    0.3540    3.5370 c2        1 B60      0.401200
     11 C11         3.3690    0.2110    3.6450 c3        1 B60      0.129500
     12 N12         4.0410    0.0510    2.3640 nh        1 B60     -0.642400
     13 C13         5.4720   -0.0930    2.3720 c3        1 B60      0.201100
     14 HN8         5.0070   -0.3760   -2.2120 hn        1 B60      0.483133
     15 HN8A        3.8470    0.5310   -3.0150 hn        1 B60      0.483133
     16 H10         1.3270    0.4780    4.4940 h4        1 B60      0.067800
     17 H11         3.7890    1.1280    4.1570 h1        1 B60      0.077700
     18 H13         5.9530    0.7390    1.7900 h1        1 B60      0.062033
     19 H13A        5.7690   -1.0770    1.9210 h1        1 B60      0.062033
     20 H13B        5.8410   -0.0540    3.4320 h1        1 B60      0.062033
     21 H8          1.3600    0.0030   -2.0720 hn        1 B60      0.351500
     22 H9          3.6060   -0.6890    4.2870 h1        1 B60      0.077700
     23 H83         3.6790   -1.1380   -2.8950 hn        1 B60      0.483133
@<TRIPOS>BOND
     1    1    2 2   
     2    2    3 1   
     3    2    8 1   
     4    3    4 2   
     5    3    9 1   
     6    4    5 1   
     7    4   12 1   
     8    5    6 2   
     9    6    7 1   
    10    6    8 1   
    11    7   14 1   
    12    7   15 1   
    13    7   23 1   
    14    8   21 1   
    15    9   10 2   
    16   10   11 1   
    17   10   16 1   
    18   11   12 1   
    19   11   17 1   
    20   11   22 1   
    21   12   13 1   
    22   13   18 1   
    23   13   19 1   
    24   13   20 1   
@<TRIPOS>SUBSTRUCTURE
     1 B60         1 TEMP              0 ****  ****    0 ROOT
