@<TRIPOS>MOLECULE
B61
   36    37     1     0     0
SMALL
bcc


@<TRIPOS>ATOM
      1 O2          0.8040   -2.4990   -0.4190 o         1 B61     -0.518500
      2 C1          1.7010   -1.6810   -0.2220 c         1 B61      0.741700
      3 C4          2.1420   -1.0600    1.0280 cc        1 B61     -0.075600
      4 C7          3.2300   -0.1470    1.0360 cd        1 B61      0.389600
      5 N6          3.8780    0.2180   -0.1660 nd        1 B61     -0.615300
      6 C5          3.4460   -0.3560   -1.2800 cc        1 B61      0.550800
      7 N8          4.1680    0.0640   -2.5340 n4        1 B61     -0.807600
      8 N3          2.4230   -1.2750   -1.4030 n         1 B61     -0.498400
      9 N9          1.4330   -1.4060    2.1830 ne        1 B61     -0.506300
     10 C10         1.8280   -0.8950    3.3130 c2        1 B61      0.435300
     11 C17         1.1310   -1.2030    4.6070 c3        1 B61     -0.114700
     12 C23         0.0870   -0.1490    5.0030 c3        1 B61      0.156800
     13 O24         0.7960    1.0850    5.1370 oh        1 B61     -0.624800
     14 C25        -1.0060   -0.0120    3.9520 c3        1 B61     -0.126100
     15 C26        -0.5230   -0.5450    6.3450 c3        1 B61     -0.126100
     16 C11         3.0220    0.0310    3.4700 c3        1 B61      0.123500
     17 N12         3.6810    0.3870    2.2220 nh        1 B61     -0.638400
     18 C13         4.6860    1.4150    2.2710 c3        1 B61      0.201100
     19 HN8         4.9000    0.7520   -2.2990 hn        1 B61      0.481800
     20 HN8A        3.5020    0.4920   -3.1860 hn        1 B61      0.481800
     21 H17         0.6110   -2.1960    4.5490 hc        1 B61      0.082700
     22 H17A        1.9080   -1.2580    5.4170 hc        1 B61      0.082700
     23 HO24        0.1670    1.7360    5.4730 ho        1 B61      0.416000
     24 H25        -1.4390   -1.0120    3.7150 hc        1 B61      0.052533
     25 H25A       -1.8190    0.6540    4.3300 hc        1 B61      0.052533
     26 H25B       -0.5900    0.4340    3.0180 hc        1 B61      0.052533
     27 H26        -1.2730    0.2170    6.6640 hc        1 B61      0.052533
     28 H26A        0.2720   -0.6100    7.1260 hc        1 B61      0.052533
     29 H26B       -1.0320   -1.5340    6.2580 hc        1 B61      0.052533
     30 H11         3.7860   -0.4760    4.1300 h1        1 B61      0.091200
     31 H13         4.8830    1.6880    3.3430 h1        1 B61      0.060033
     32 H13A        4.3460    2.3320    1.7200 h1        1 B61      0.060033
     33 H13B        5.6410    1.0440    1.8120 h1        1 B61      0.060033
     34 H16         2.1510   -1.6770   -2.2760 hn        1 B61      0.349500
     35 H171        2.6750    0.9760    3.9880 h1        1 B61      0.091200
     36 H83         4.6060   -0.7570   -2.9670 hn        1 B61      0.481800
@<TRIPOS>BOND
     1    1    2 2   
     2    2    3 1   
     3    2    8 1   
     4    3    4 2   
     5    3    9 1   
     6    4    5 1   
     7    4   17 1   
     8    5    6 2   
     9    6    7 1   
    10    6    8 1   
    11    7   19 1   
    12    7   20 1   
    13    7   36 1   
    14    8   34 1   
    15    9   10 2   
    16   10   11 1   
    17   10   16 1   
    18   11   12 1   
    19   11   21 1   
    20   11   22 1   
    21   12   13 1   
    22   12   14 1   
    23   12   15 1   
    24   13   23 1   
    25   14   24 1   
    26   14   25 1   
    27   14   26 1   
    28   15   27 1   
    29   15   28 1   
    30   15   29 1   
    31   16   17 1   
    32   16   30 1   
    33   16   35 1   
    34   17   18 1   
    35   18   31 1   
    36   18   32 1   
    37   18   33 1   
@<TRIPOS>SUBSTRUCTURE
     1 B61         1 TEMP              0 ****  ****    0 ROOT
