@<TRIPOS>MOLECULE
B61
   35    36     1     0     0
SMALL
bcc


@<TRIPOS>ATOM
      1 O2          1.1400   -2.9340   -0.7660 o         1 B61     -0.606500
      2 C1          1.5630   -1.8040   -0.4810 c         1 B61      0.748700
      3 C4          0.8050   -0.5630   -0.3530 cc        1 B61     -0.185600
      4 C7          1.4880    0.6330    0.0200 cd        1 B61      0.451600
      5 N6          2.8680    0.6730    0.2150 nd        1 B61     -0.737300
      6 C5          3.5540   -0.4880    0.1050 cc        1 B61      0.717800
      7 N8          4.9260   -0.4820    0.4180 nh        1 B61     -0.903800
      8 N3          2.9640   -1.7030   -0.2520 n         1 B61     -0.510400
      9 N9         -0.5650   -0.6110   -0.6070 ne        1 B61     -0.474300
     10 C10        -1.2490    0.4880   -0.4880 c2        1 B61      0.333300
     11 C17        -2.7190    0.5480   -0.7770 c3        1 B61     -0.137700
     12 C23        -3.5900   -0.2820    0.1800 c3        1 B61      0.163800
     13 O24        -3.5880   -1.6530   -0.2000 oh        1 B61     -0.601800
     14 C25        -3.1370   -0.1290    1.6260 c3        1 B61     -0.105100
     15 C26        -5.0440    0.1690    0.0390 c3        1 B61     -0.105100
     16 C11        -0.6560    1.8260   -0.0870 c3        1 B61      0.153500
     17 N12         0.7620    1.7970    0.2060 nh        1 B61     -0.658400
     18 C13         1.3990    3.0500    0.5030 c3        1 B61      0.213100
     19 HN8         5.3370    0.4160    0.5440 hn        1 B61      0.428800
     20 HN8A        5.4950   -1.1470   -0.0520 hn        1 B61      0.428800
     21 H17        -3.0540    1.6170   -0.7230 hc        1 B61      0.064200
     22 H17A       -2.9080    0.1800   -1.8220 hc        1 B61      0.064200
     23 HO24       -2.6750   -1.9670   -0.1620 ho        1 B61      0.424000
     24 H25        -3.0970    0.9500    1.9030 hc        1 B61      0.043200
     25 H25A       -3.8530   -0.6540    2.3020 hc        1 B61      0.043200
     26 H25B       -2.1250   -0.5770    1.7690 hc        1 B61      0.043200
     27 H26        -5.3530    0.1320   -1.0320 hc        1 B61      0.043200
     28 H26A       -5.7050   -0.5140    0.6230 hc        1 B61      0.043200
     29 H26B       -5.1550    1.2090    0.4230 hc        1 B61      0.043200
     30 H11        -0.8450    2.5700   -0.9170 h1        1 B61      0.046700
     31 H13         2.0370    2.9520    1.4220 h1        1 B61      0.048367
     32 H13A        2.0500    3.3790   -0.3520 h1        1 B61      0.048367
     33 H13B        0.6150    3.8320    0.6870 h1        1 B61      0.048367
     34 H16         3.4970   -2.5450   -0.2860 hn        1 B61      0.334500
     35 H171       -1.1960    2.1940    0.8360 h1        1 B61      0.046700
@<TRIPOS>BOND
     1    1    2 2   
     2    2    3 1   
     3    2    8 1   
     4    3    4 2   
     5    3    9 1   
     6    4    5 1   
     7    4   17 1   
     8    5    6 2   
     9    6    7 1   
    10    6    8 1   
    11    7   19 1   
    12    7   20 1   
    13    8   34 1   
    14    9   10 2   
    15   10   11 1   
    16   10   16 1   
    17   11   12 1   
    18   11   21 1   
    19   11   22 1   
    20   12   13 1   
    21   12   14 1   
    22   12   15 1   
    23   13   23 1   
    24   14   24 1   
    25   14   25 1   
    26   14   26 1   
    27   15   27 1   
    28   15   28 1   
    29   15   29 1   
    30   16   17 1   
    31   16   30 1   
    32   16   35 1   
    33   17   18 1   
    34   18   31 1   
    35   18   32 1   
    36   18   33 1   
@<TRIPOS>SUBSTRUCTURE
     1 B61         1 TEMP              0 ****  ****    0 ROOT
