@<TRIPOS>MOLECULE
B61
   35    32     1     0     0
SMALL
bcc


@<TRIPOS>ATOM
      1 O2         -2.0760    0.4510   -2.9750 o         1 B61     -0.332000
      2 C1         -0.8950    0.2990   -2.9630 c1        1 B61      0.387000
      3 C4         -0.1790    0.1250   -1.6710 c2        1 B61     -0.310000
      4 C7          1.2890    0.1440   -1.6450 c1        1 B61      0.226000
      5 N6          2.0260    0.1870   -2.8820 n1        1 B61     -0.308000
      6 C5          1.3070    0.3060   -4.1680 c1        1 B61      0.270000
      7 N8          2.0190    0.2920   -5.3690 n3        1 B61     -0.342000
      8 N3         -0.1530    0.3530   -4.1910 n1        1 B61     -0.350000
      9 N9         -0.9010    0.1830   -0.3450 n2        1 B61     -0.035000
     10 C10        -0.0900    0.4130    0.8650 c1        1 B61     -0.113000
     11 C17        -0.7870    0.7240    2.2280 c2        1 B61     -0.134000
     12 C23        -1.7620   -0.4330    2.5900 c3        1 B61      0.084000
     13 O24        -1.7610   -1.3740    1.5780 oh        1 B61     -0.333000
     14 C25        -1.3140   -1.0760    3.8680 c3        1 B61     -0.225000
     15 C26        -3.1920    0.1310    2.7700 c3        1 B61     -0.225000
     16 C11         1.3370    0.7290    0.6750 c3        1 B61     -0.018000
     17 N12         1.9060    0.0470   -0.4080 n3        1 B61     -0.256000
     18 C13         3.2270   -0.4430   -0.3190 c3        1 B61     -0.066000
     19 HN8         2.8980    0.1710   -5.3610 hn        1 B61      0.223500
     20 HN8A        1.5630    0.3030   -6.1740 hn        1 B61      0.223500
     21 H17        -0.0960    0.8100    2.9400 ha        1 B61      0.102500
     22 H17A       -1.2870    1.5660    2.1560 ha        1 B61      0.102500
     23 HO24       -2.3130   -2.0650    1.8050 ho        1 B61      0.204000
     24 H25        -2.0060   -1.6780    4.1880 hc        1 B61      0.086833
     25 H25A       -0.4810   -1.5870    3.7050 hc        1 B61      0.086833
     26 H25B       -1.1470   -0.3870    4.5370 hc        1 B61      0.086833
     27 H26        -3.5150    0.5090    1.8980 hc        1 B61      0.086833
     28 H26A       -3.1820    0.8290    3.4420 hc        1 B61      0.086833
     29 H26B       -3.7930   -0.5890    3.0560 hc        1 B61      0.086833
     30 H11         1.9580    0.5660    1.4240 h1        1 B61      0.095500
     31 H13         3.8560    0.2910   -0.4470 h1        1 B61      0.088333
     32 H13A        3.3690   -0.8450    0.5650 h1        1 B61      0.088333
     33 H13B        3.3680   -1.1090   -1.0000 h1        1 B61      0.088333
     34 H16        -0.5860    0.4260   -4.9720 hn        1 B61      0.248000
     35 H171        1.3930    1.7280    0.6020 h1        1 B61      0.095500
@<TRIPOS>BOND
     1    1    2 1   
     2    2    3 1   
     3    3    4 1   
     4    3    9 1   
     5    4   17 1   
     6    5    6 1   
     7    6    7 1   
     8    7   19 1   
     9    7   20 1   
    10    8   34 1   
    11    9   10 1   
    12   10   16 1   
    13   11   12 1   
    14   11   21 1   
    15   11   22 1   
    16   12   13 1   
    17   12   14 1   
    18   12   15 1   
    19   13   23 1   
    20   14   24 1   
    21   14   25 1   
    22   14   26 1   
    23   15   27 1   
    24   15   28 1   
    25   15   29 1   
    26   16   17 1   
    27   16   30 1   
    28   16   35 1   
    29   17   18 1   
    30   18   31 1   
    31   18   32 1   
    32   18   33 1   
@<TRIPOS>SUBSTRUCTURE
     1 B61         1 TEMP              0 ****  ****    0 ROOT
