@<TRIPOS>MOLECULE
B61
   36    37     1     0     0
SMALL
bcc


@<TRIPOS>ATOM
      1 O2          0.6740   -2.3740   -0.4690 o         1 B61     -0.518500
      2 C1          1.6170   -1.6130   -0.2550 c         1 B61      0.741700
      3 C4          2.0920   -1.0460    1.0080 cc        1 B61     -0.075600
      4 C7          3.2310   -0.1980    1.0340 cd        1 B61      0.389600
      5 N6          3.9000    0.1540   -0.1590 nd        1 B61     -0.615300
      6 C5          3.4370   -0.3700   -1.2850 cc        1 B61      0.550800
      7 N8          4.1840    0.0330   -2.5300 nz        1 B61     -0.807600
      8 N3          2.3620   -1.2260   -1.4280 ns        1 B61     -0.498400
      9 N9          1.3610   -1.3730    2.1550 ne        1 B61     -0.506300
     10 C10         1.7850   -0.9100    3.2960 c2        1 B61      0.435300
     11 C17         1.0690   -1.2030    4.5820 c3        1 B61     -0.114700
     12 C23         0.0870   -0.0980    5.0000 c3        1 B61      0.156800
     13 O24         0.8670    1.0900    5.1590 oh        1 B61     -0.624800
     14 C25        -0.9940    0.1240    3.9520 c3        1 B61     -0.126100
     15 C26        -0.5460   -0.4850    6.3330 c3        1 B61     -0.126100
     16 C11         3.0300   -0.0590    3.4720 c3        1 B61      0.123500
     17 N12         3.7120    0.2830    2.2320 nh        1 B61     -0.638400
     18 C13         4.7740    1.2500    2.3030 c3        1 B61      0.201100
     19 HN8         4.5730   -0.8030   -2.9800 hn        1 B61      0.481800
     20 HN8A        3.5440    0.5130   -3.1730 hn        1 B61      0.481800
     21 H17         1.8400   -1.3200    5.3910 hc        1 B61      0.082700
     22 H17A        0.4910   -2.1630    4.5040 hc        1 B61      0.082700
     23 HO24        0.2770    1.7690    5.5070 ho        1 B61      0.416000
     24 H25        -0.5520    0.5630    3.0260 hc        1 B61      0.052533
     25 H25A       -1.4850   -0.8450    3.6950 hc        1 B61      0.052533
     26 H25B       -1.7680    0.8280    4.3430 hc        1 B61      0.052533
     27 H26        -1.2510    0.3140    6.6670 hc        1 B61      0.052533
     28 H26A       -1.1110   -1.4400    6.2270 hc        1 B61      0.052533
     29 H26B        0.2430   -0.6100    7.1130 hc        1 B61      0.052533
     30 H11         2.7390    0.8940    4.0100 h1        1 B61      0.091200
     31 H13         4.4870    2.1970    1.7720 h1        1 B61      0.060033
     32 H13A        5.7070    0.8350    1.8340 h1        1 B61      0.060033
     33 H13B        4.9860    1.4870    3.3800 h1        1 B61      0.060033
     34 H16         2.0690   -1.5920   -2.3090 hn        1 B61      0.349500
     35 H171        3.7630   -0.6240    4.1220 h1        1 B61      0.091200
     36 H83         4.9550    0.6720   -2.2800 hn        1 B61      0.481800
@<TRIPOS>BOND
     1    1    2 2   
     2    2    3 1   
     3    2    8 1   
     4    3    4 2   
     5    3    9 1   
     6    4    5 1   
     7    4   17 1   
     8    5    6 2   
     9    6    7 1   
    10    6    8 1   
    11    7   19 1   
    12    7   20 1   
    13    7   36 1   
    14    8   34 1   
    15    9   10 2   
    16   10   11 1   
    17   10   16 1   
    18   11   12 1   
    19   11   21 1   
    20   11   22 1   
    21   12   13 1   
    22   12   14 1   
    23   12   15 1   
    24   13   23 1   
    25   14   24 1   
    26   14   25 1   
    27   14   26 1   
    28   15   27 1   
    29   15   28 1   
    30   15   29 1   
    31   16   17 1   
    32   16   30 1   
    33   16   35 1   
    34   17   18 1   
    35   18   31 1   
    36   18   32 1   
    37   18   33 1   
@<TRIPOS>SUBSTRUCTURE
     1 B61         1 TEMP              0 ****  ****    0 ROOT
