@<TRIPOS>MOLECULE
B61
   36    37     1     0     0
SMALL
bcc


@<TRIPOS>ATOM
      1 O2          0.7570   -2.4800   -0.4270 o         1 B61     -0.518500
      2 C1          1.6730   -1.6830   -0.2270 c         1 B61      0.741700
      3 C4          2.1240   -1.0720    1.0250 cc        1 B61     -0.075600
      4 C7          3.2330   -0.1850    1.0350 cd        1 B61      0.389600
      5 N6          3.8930    0.1640   -0.1650 nd        1 B61     -0.615300
      6 C5          3.4510   -0.4000   -1.2800 cc        1 B61      0.550800
      7 N8          4.1880    0.0030   -2.5310 n4        1 B61     -0.807600
      8 N3          2.4070   -1.2950   -1.4060 n         1 B61     -0.498400
      9 N9          1.4030   -1.4010    2.1770 ne        1 B61     -0.506300
     10 C10         1.8060   -0.8980    3.3080 c2        1 B61      0.435300
     11 C17         1.0970   -1.1880    4.5990 c3        1 B61     -0.114700
     12 C23         0.0760   -0.1100    4.9910 c3        1 B61      0.156800
     13 O24         0.8120    1.1080    5.1250 oh        1 B61     -0.624800
     14 C25        -1.0100    0.0510    3.9360 c3        1 B61     -0.126100
     15 C26        -0.5460   -0.4900    6.3320 c3        1 B61     -0.126100
     16 C11         3.0200   -0.0010    3.4680 c3        1 B61      0.123500
     17 N12         3.6930    0.3390    2.2230 nh        1 B61     -0.638400
     18 C13         4.7210    1.3430    2.2750 c3        1 B61      0.201100
     19 HN8         3.5330    0.4460   -3.1860 hn        1 B61      0.481800
     20 HN8A        4.9350    0.6730   -2.2940 hn        1 B61      0.481800
     21 H17         1.8690   -1.2610    5.4120 hc        1 B61      0.082700
     22 H17A        0.5540   -2.1700    4.5410 hc        1 B61      0.082700
     23 HO24        0.1980    1.7730    5.4580 ho        1 B61      0.416000
     24 H25        -1.8090    0.7350    4.3100 hc        1 B61      0.052533
     25 H25A       -0.5820    0.4840    3.0020 hc        1 B61      0.052533
     26 H25B       -1.4650   -0.9400    3.7000 hc        1 B61      0.052533
     27 H26        -1.0770   -1.4670    6.2450 hc        1 B61      0.052533
     28 H26A        0.2440   -0.5700    7.1150 hc        1 B61      0.052533
     29 H26B       -1.2800    0.2900    6.6470 hc        1 B61      0.052533
     30 H11         3.7710   -0.5250    4.1320 h1        1 B61      0.091200
     31 H13         4.4030    2.2690    1.7230 h1        1 B61      0.060033
     32 H13A        4.9210    1.6110    3.3470 h1        1 B61      0.060033
     33 H13B        5.6680    0.9510    1.8170 h1        1 B61      0.060033
     34 H16         2.1300   -1.6900   -2.2800 hn        1 B61      0.349500
     35 H171        2.6940    0.9540    3.9850 h1        1 B61      0.091200
     36 H83         4.6070   -0.8290   -2.9630 hn        1 B61      0.481800
@<TRIPOS>BOND
     1    1    2 2   
     2    2    3 1   
     3    2    8 1   
     4    3    4 2   
     5    3    9 1   
     6    4    5 1   
     7    4   17 1   
     8    5    6 2   
     9    6    7 1   
    10    6    8 1   
    11    7   19 1   
    12    7   20 1   
    13    7   36 1   
    14    8   34 1   
    15    9   10 2   
    16   10   11 1   
    17   10   16 1   
    18   11   12 1   
    19   11   21 1   
    20   11   22 1   
    21   12   13 1   
    22   12   14 1   
    23   12   15 1   
    24   13   23 1   
    25   14   24 1   
    26   14   25 1   
    27   14   26 1   
    28   15   27 1   
    29   15   28 1   
    30   15   29 1   
    31   16   17 1   
    32   16   30 1   
    33   16   35 1   
    34   17   18 1   
    35   18   31 1   
    36   18   32 1   
    37   18   33 1   
@<TRIPOS>SUBSTRUCTURE
     1 B61         1 TEMP              0 ****  ****    0 ROOT
