@<TRIPOS>MOLECULE
B62
   25    26     1     0     0
SMALL
bcc


@<TRIPOS>ATOM
      1 O12        -0.0920   -0.0070    0.1070 o         1 B62     -0.569500
      2 C1          1.1470   -0.0020    0.0560 c         1 B62      0.688700
      3 N2          1.8710    0.0920    1.2540 n         1 B62     -0.469400
      4 C6          1.9470   -0.1000   -1.1990 cc        1 B62      0.098800
      5 N7          1.2880   -0.2230   -2.3790 nh        1 B62     -0.702000
      6 C8          2.0290   -0.3900   -3.6140 c3        1 B62      0.182500
      7 C11         2.2040   -1.8490   -4.0270 c3        1 B62     -0.121100
      8 C9          3.4200    0.3020   -3.5130 c3        1 B62      0.157800
      9 N10         4.1610    0.0510   -2.3000 nh        1 B62     -0.672000
     10 C5          3.3670   -0.0330   -1.1220 cd        1 B62      0.174600
     11 N4          4.0160    0.0350    0.0970 nd        1 B62     -0.493300
     12 C3          3.2740    0.0950    1.1990 cc        1 B62      0.389800
     13 N13         4.0170    0.1530    2.4910 n4        1 B62     -0.773600
     14 HN2         1.3660    0.1670    2.1110 hn        1 B62      0.352500
     15 HN7         0.2910   -0.2490   -2.3920 hn        1 B62      0.480800
     16 H8          1.4380    0.1380   -4.4220 h1        1 B62      0.090700
     17 H11         2.6810   -1.8820   -5.0370 hc        1 B62      0.058700
     18 H11A        2.8520   -2.4020   -3.3060 hc        1 B62      0.058700
     19 H11B        1.2160   -2.3680   -4.0890 hc        1 B62      0.058700
     20 H9          3.2640    1.4180   -3.5800 h1        1 B62      0.085700
     21 H9A         4.0420   -0.0200   -4.3930 h1        1 B62      0.085700
     22 HN10        4.8140   -0.7070   -2.3720 hn        1 B62      0.409800
     23 HN13        5.0310    0.1440    2.3010 hn        1 B62      0.476133
     24 HN1A        3.7740   -0.6580    3.0690 hn        1 B62      0.476133
     25 H133        3.7750    1.0210    2.9830 hn        1 B62      0.476133
@<TRIPOS>BOND
     1    1    2 2   
     2    2    3 1   
     3    2    4 1   
     4    3   12 1   
     5    3   14 1   
     6    4    5 1   
     7    4   10 2   
     8    5    6 1   
     9    5   15 1   
    10    6    7 1   
    11    6    8 1   
    12    6   16 1   
    13    7   17 1   
    14    7   18 1   
    15    7   19 1   
    16    8    9 1   
    17    8   20 1   
    18    8   21 1   
    19    9   10 1   
    20    9   22 1   
    21   10   11 1   
    22   11   12 2   
    23   12   13 1   
    24   13   23 1   
    25   13   24 1   
    26   13   25 1   
@<TRIPOS>SUBSTRUCTURE
     1 B62         1 TEMP              0 ****  ****    0 ROOT
