@<TRIPOS>MOLECULE
B62
   24    25     1     0     0
SMALL
bcc


@<TRIPOS>ATOM
      1 O12         0.8440   -2.6490   -0.0650 o         1 B62     -0.648500
      2 C1          0.8940   -1.4060    0.0290 c         1 B62      0.713700
      3 N2          2.1520   -0.7870   -0.1290 n         1 B62     -0.490400
      4 C6         -0.2400   -0.5200    0.2770 cc        1 B62     -0.175200
      5 N7         -1.5050   -1.0870    0.5710 nh        1 B62     -0.646000
      6 C8         -2.6160   -0.2390    0.1470 c3        1 B62      0.152500
      7 C11        -2.8970   -0.2160   -1.3530 c3        1 B62     -0.130100
      8 C9         -2.4280    1.2120    0.6640 c3        1 B62      0.208800
      9 N10        -1.0910    1.7400    0.5800 nh        1 B62     -0.733000
     10 C5         -0.0330    0.8730    0.2960 cd        1 B62      0.381600
     11 N4          1.2280    1.4410    0.0800 nd        1 B62     -0.699300
     12 C3          2.2640    0.6130   -0.1360 cc        1 B62      0.663800
     13 N13         3.5330    1.1650   -0.4590 nh        1 B62     -0.882800
     14 HN2         2.9340   -1.3660   -0.3420 hn        1 B62      0.336500
     15 HN7        -1.5770   -2.0110    0.1790 hn        1 B62      0.393800
     16 H8         -3.5300   -0.6600    0.6660 h1        1 B62      0.069700
     17 H11        -3.0610   -1.2520   -1.7380 hc        1 B62      0.042367
     18 H11A       -3.8160    0.3830   -1.5570 hc        1 B62      0.042367
     19 H11B       -2.0440    0.2370   -1.9120 hc        1 B62      0.042367
     20 H9         -3.1350    1.8830    0.0990 h1        1 B62      0.051200
     21 H9A        -2.7210    1.2340    1.7550 h1        1 B62      0.051200
     22 HN10       -1.0050    2.6780    0.2570 hn        1 B62      0.429800
     23 HN13        4.3020    0.6980   -0.0290 hn        1 B62      0.411800
     24 HN1A        3.5740    2.1580   -0.3610 hn        1 B62      0.411800
@<TRIPOS>BOND
     1    1    2 2   
     2    2    3 1   
     3    2    4 1   
     4    3   12 1   
     5    3   14 1   
     6    4    5 1   
     7    4   10 2   
     8    5    6 1   
     9    5   15 1   
    10    6    7 1   
    11    6    8 1   
    12    6   16 1   
    13    7   17 1   
    14    7   18 1   
    15    7   19 1   
    16    8    9 1   
    17    8   20 1   
    18    8   21 1   
    19    9   10 1   
    20    9   22 1   
    21   10   11 1   
    22   11   12 2   
    23   12   13 1   
    24   13   23 1   
    25   13   24 1   
@<TRIPOS>SUBSTRUCTURE
     1 B62         1 TEMP              0 ****  ****    0 ROOT
