@<TRIPOS>MOLECULE
B62
   24    24     1     0     0
SMALL
bcc


@<TRIPOS>ATOM
      1 O12        -2.6960    0.4420    1.4480 o         1 B62     -0.589500
      2 C1         -1.4820    0.4420    1.4480 c1        1 B62      0.658600
      3 N2         -0.7540    0.4420    2.7070 n2        1 B62     -0.866100
      4 C6         -0.7530    0.3330    0.1900 ce        1 B62     -0.287700
      5 N7         -1.2900    0.5310   -1.0730 nh        1 B62     -0.660000
      6 C8         -0.4930   -0.0660   -2.2640 c3        1 B62      0.163500
      7 C11        -0.6290   -1.7080   -2.2050 c3        1 B62     -0.092100
      8 C9          0.6870    0.2180   -2.2730 c3        1 B62      0.163800
      9 N10         1.4360   -0.1690   -1.0210 nh        1 B62     -0.786200
     10 C5          0.8600    0.2350    0.2140 ce        1 B62      0.654500
     11 N4          1.5400    0.3000    1.4440 nf        1 B62     -0.771000
     12 C3          0.7740    0.5230    2.7100 cf        1 B62      0.875200
     13 N13         1.4670    0.7690    3.9230 nh        1 B62     -0.882800
     14 HN2        -1.2100    0.5790    3.4850 hn        1 B62      0.492400
     15 HN7        -1.8820    1.2100   -1.2160 hn        1 B62      0.388800
     16 H8         -0.8940    0.2500   -3.0960 h1        1 B62      0.058700
     17 H11        -1.5710   -1.9590   -2.2590 hc        1 B62      0.043033
     18 H11A       -0.2540   -2.0360   -1.3650 hc        1 B62      0.043033
     19 H11B       -0.1430   -2.1020   -2.9540 hc        1 B62      0.043033
     20 H9          0.7710    1.1820   -2.3960 h1        1 B62      0.053200
     21 H9A         1.1060   -0.2290   -3.0330 h1        1 B62      0.053200
     22 HN10        2.0340   -0.8570   -1.0420 hn        1 B62      0.421800
     23 HN13        1.0020    0.9710    4.6810 hn        1 B62      0.411300
     24 HN1A        2.3760    0.6980    3.9510 hn        1 B62      0.411300
@<TRIPOS>BOND
     1    1    2 2   
     2    2    4 2   
     3    3   12 2   
     4    3   14 1   
     5    4    5 1   
     6    4   10 1   
     7    5    6 1   
     8    5   15 1   
     9    6    7 1   
    10    6    8 1   
    11    6   16 1   
    12    7   17 1   
    13    7   18 1   
    14    7   19 1   
    15    8    9 1   
    16    8   20 1   
    17    8   21 1   
    18    9   10 1   
    19    9   22 1   
    20   10   11 2   
    21   11   12 1   
    22   12   13 1   
    23   13   23 1   
    24   13   24 1   
@<TRIPOS>SUBSTRUCTURE
     1 B62         1 TEMP              0 ****  ****    0 ROOT
