@<TRIPOS>MOLECULE
B62
   25    26     1     0     0
SMALL
bcc


@<TRIPOS>ATOM
      1 O12        -0.0880    0.0040    0.1120 o         1 B62     -0.569500
      2 C1          1.1510    0.0050    0.0580 c         1 B62      0.688700
      3 N2          1.8770    0.0990    1.2550 n         1 B62     -0.469400
      4 C6          1.9480   -0.0970   -1.1980 cc        1 B62      0.098800
      5 N7          1.2860   -0.2200   -2.3760 nh        1 B62     -0.702000
      6 C8          2.0250   -0.3920   -3.6120 c3        1 B62      0.182500
      7 C11         2.1930   -1.8520   -4.0240 c3        1 B62     -0.121100
      8 C9          3.4170    0.2960   -3.5150 c3        1 B62      0.157800
      9 N10         4.1600    0.0430   -2.3030 nh        1 B62     -0.672000
     10 C5          3.3680   -0.0350   -1.1240 cd        1 B62      0.174600
     11 N4          4.0200    0.0320    0.0940 nd        1 B62     -0.493300
     12 C3          3.2810    0.0970    1.1970 cc        1 B62      0.389800
     13 N13         4.0260    0.1560    2.4870 n4        1 B62     -0.773600
     14 HN2         1.3740    0.1770    2.1120 hn        1 B62      0.352500
     15 HN7         0.2900   -0.2430   -2.3870 hn        1 B62      0.480800
     16 H8          1.4330    0.1380   -4.4200 h1        1 B62      0.090700
     17 H11         1.2040   -2.3680   -4.0830 hc        1 B62      0.058700
     18 H11A        2.6670   -1.8870   -5.0350 hc        1 B62      0.058700
     19 H11B        2.8410   -2.4060   -3.3040 hc        1 B62      0.058700
     20 H9          4.0360   -0.0300   -4.3960 h1        1 B62      0.085700
     21 H9A         3.2650    1.4120   -3.5840 h1        1 B62      0.085700
     22 HN10        4.8100   -0.7170   -2.3760 hn        1 B62      0.409800
     23 HN13        3.7800   -0.6530    3.0680 hn        1 B62      0.476133
     24 HN1A        5.0400    0.1420    2.2960 hn        1 B62      0.476133
     25 H133        3.7890    1.0250    2.9780 hn        1 B62      0.476133
@<TRIPOS>BOND
     1    1    2 2   
     2    2    3 1   
     3    2    4 1   
     4    3   12 1   
     5    3   14 1   
     6    4    5 1   
     7    4   10 2   
     8    5    6 1   
     9    5   15 1   
    10    6    7 1   
    11    6    8 1   
    12    6   16 1   
    13    7   17 1   
    14    7   18 1   
    15    7   19 1   
    16    8    9 1   
    17    8   20 1   
    18    8   21 1   
    19    9   10 1   
    20    9   22 1   
    21   10   11 1   
    22   11   12 2   
    23   12   13 1   
    24   13   23 1   
    25   13   24 1   
    26   13   25 1   
@<TRIPOS>SUBSTRUCTURE
     1 B62         1 TEMP              0 ****  ****    0 ROOT
