@<TRIPOS>MOLECULE
B62
   25    26     1     0     0
SMALL
bcc


@<TRIPOS>ATOM
      1 O12        -0.0880    0.0010    0.1130 o         1 B62     -0.569500
      2 C1          1.1500    0.0030    0.0590 c         1 B62      0.688700
      3 N2          1.8770    0.0950    1.2560 ns        1 B62     -0.469400
      4 C6          1.9480   -0.0980   -1.1980 cc        1 B62      0.098800
      5 N7          1.2860   -0.2200   -2.3760 nu        1 B62     -0.702000
      6 C8          2.0250   -0.3890   -3.6120 c3        1 B62      0.182500
      7 C11         2.1940   -1.8490   -4.0260 c3        1 B62     -0.121100
      8 C9          3.4170    0.2990   -3.5140 c3        1 B62      0.157800
      9 N10         4.1600    0.0450   -2.3030 nu        1 B62     -0.672000
     10 C5          3.3680   -0.0350   -1.1240 cd        1 B62      0.174600
     11 N4          4.0200    0.0310    0.0950 nd        1 B62     -0.493300
     12 C3          3.2800    0.0940    1.1980 cc        1 B62      0.389800
     13 N13         4.0250    0.1510    2.4880 nz        1 B62     -0.773600
     14 HN2         1.3740    0.1720    2.1130 hn        1 B62      0.352500
     15 HN7         0.2890   -0.2430   -2.3870 hn        1 B62      0.480800
     16 H8          1.4330    0.1410   -4.4200 h1        1 B62      0.090700
     17 H11         1.2050   -2.3650   -4.0850 hc        1 B62      0.058700
     18 H11A        2.8420   -2.4030   -3.3060 hc        1 B62      0.058700
     19 H11B        2.6690   -1.8830   -5.0370 hc        1 B62      0.058700
     20 H9          4.0360   -0.0250   -4.3960 h1        1 B62      0.085700
     21 H9A         3.2640    1.4150   -3.5820 h1        1 B62      0.085700
     22 HN10        4.8100   -0.7140   -2.3760 hn        1 B62      0.409800
     23 HN13        3.7880    1.0200    2.9800 hn        1 B62      0.476133
     24 HN1A        5.0390    0.1380    2.2970 hn        1 B62      0.476133
     25 H133        3.7800   -0.6590    3.0670 hn        1 B62      0.476133
@<TRIPOS>BOND
     1    1    2 2   
     2    2    3 1   
     3    2    4 1   
     4    3   12 1   
     5    3   14 1   
     6    4    5 1   
     7    4   10 2   
     8    5    6 1   
     9    5   15 1   
    10    6    7 1   
    11    6    8 1   
    12    6   16 1   
    13    7   17 1   
    14    7   18 1   
    15    7   19 1   
    16    8    9 1   
    17    8   20 1   
    18    8   21 1   
    19    9   10 1   
    20    9   22 1   
    21   10   11 1   
    22   11   12 2   
    23   12   13 1   
    24   13   23 1   
    25   13   24 1   
    26   13   25 1   
@<TRIPOS>SUBSTRUCTURE
     1 B62         1 TEMP              0 ****  ****    0 ROOT
