@<TRIPOS>MOLECULE
B63
   39    41     1     0     0
SMALL
bcc


@<TRIPOS>ATOM
      1 O3         -6.5690   -0.8830    2.5600 o         1 B63     -0.833300
      2 C15        -6.5790   -0.5910    1.3300 c         1 B63      0.909200
      3 O2         -7.5580   -0.8000    0.5590 o         1 B63     -0.833300
      4 C12        -5.3320    0.0510    0.7410 ca        1 B63     -0.136600
      5 C11        -4.2250    0.3230    1.5490 ca        1 B63     -0.091500
      6 C10        -3.0760    0.9030    1.0210 ca        1 B63     -0.187000
      7 C13        -5.2710    0.3770   -0.6160 ca        1 B63     -0.091500
      8 C14        -4.1280    0.9490   -1.1640 ca        1 B63     -0.187000
      9 C9         -3.0070    1.2240   -0.3510 ca        1 B63      0.066600
     10 N6         -1.8630    1.8850   -0.8840 nh        1 B63     -0.710600
     11 C2         -0.6070    1.1780   -0.7210 c3        1 B63      0.174800
     12 C1          0.5950    2.1270   -0.8250 c3        1 B63     -0.115700
     13 C3          1.8510    1.4030   -0.4390 c2        1 B63      0.352300
     14 C4          2.0630    1.3290    1.0650 c3        1 B63      0.140500
     15 N2          3.2360    0.5890    1.4630 nh        1 B63     -0.745000
     16 C5          4.0450   -0.0100    0.5200 cc        1 B63      0.432600
     17 N5          5.1040   -0.7990    0.9750 nc        1 B63     -0.731300
     18 C8          5.9460   -1.3040    0.0490 cd        1 B63      0.697800
     19 N4          7.0890   -2.0130    0.4910 nh        1 B63     -0.892800
     20 N3          5.7830   -1.1180   -1.3260 n         1 B63     -0.510400
     21 C7          4.7080   -0.3440   -1.8480 c         1 B63      0.748700
     22 O1          4.6810   -0.2250   -3.0830 o         1 B63     -0.611500
     23 C6          3.7820    0.2030   -0.8620 cd        1 B63     -0.171600
     24 N1          2.6590    0.8970   -1.3240 nf        1 B63     -0.473300
     25 H11        -4.2870    0.0670    2.6190 ha        1 B63      0.151000
     26 H10        -2.2260    1.1200    1.6840 ha        1 B63      0.106000
     27 H13        -6.1530    0.1640   -1.2430 ha        1 B63      0.151000
     28 H14        -4.1060    1.1930   -2.2360 ha        1 B63      0.106000
     29 HN6        -2.0060    2.1220   -1.8480 hn        1 B63      0.362800
     30 H2         -0.5980    0.6860    0.2920 h1        1 B63      0.038200
     31 H2A        -0.4730    0.3610   -1.4880 h1        1 B63      0.038200
     32 H1          0.6700    2.5300   -1.8690 hc        1 B63      0.063200
     33 H1A         0.4620    3.0010   -0.1330 hc        1 B63      0.063200
     34 HN4         7.0980   -2.2120    1.4690 hn        1 B63      0.416300
     35 HN4A        7.3530   -2.7860   -0.0790 hn        1 B63      0.416300
     36 H4          2.1660    2.3810    1.4650 h1        1 B63      0.054700
     37 H141        3.3120    0.3280    2.4180 hn        1 B63      0.448800
     38 H15         6.4530   -1.4710   -1.9740 hn        1 B63      0.330500
     39 H16         1.1470    0.8690    1.5410 h1        1 B63      0.054700
@<TRIPOS>BOND
     1    1    2 1   
     2    2    3 1   
     3    2    4 1   
     4    4    5 ar  
     5    4    7 ar  
     6    5    6 ar  
     7    5   25 1   
     8    6    9 ar  
     9    6   26 1   
    10    7    8 ar  
    11    7   27 1   
    12    8    9 ar  
    13    8   28 1   
    14    9   10 1   
    15   10   11 1   
    16   10   29 1   
    17   11   12 1   
    18   11   30 1   
    19   11   31 1   
    20   12   13 1   
    21   12   32 1   
    22   12   33 1   
    23   13   14 1   
    24   13   24 2   
    25   14   15 1   
    26   14   36 1   
    27   14   39 1   
    28   15   16 1   
    29   15   37 1   
    30   16   17 1   
    31   16   23 2   
    32   17   18 2   
    33   18   19 1   
    34   18   20 1   
    35   19   34 1   
    36   19   35 1   
    37   20   21 1   
    38   20   38 1   
    39   21   22 2   
    40   21   23 1   
    41   23   24 1   
@<TRIPOS>SUBSTRUCTURE
     1 B63         1 TEMP              0 ****  ****    0 ROOT
