@<TRIPOS>MOLECULE
B63
   39    37     1     0     0
SMALL
bcc


@<TRIPOS>ATOM
      1 O3         -2.0210    6.7730    4.4850 o         1 B63     -0.569500
      2 C15        -2.7350    5.7280    4.5740 c1        1 B63      0.358000
      3 O2         -3.8620    5.7790    5.1570 o         1 B63     -0.569500
      4 C12        -2.2850    4.4190    3.8670 c1        1 B63     -0.123000
      5 C11        -1.7320    3.3740    4.6150 c2        1 B63     -0.084000
      6 C10        -1.3170    2.2040    3.9770 c1        1 B63     -0.199000
      7 C13        -2.4200    4.2910    2.4840 c1        1 B63     -0.087000
      8 C14        -2.0060    3.1240    1.8470 c2        1 B63     -0.195000
      9 C9         -1.4530    2.0790    2.5910 c2        1 B63     -0.003000
     10 N6         -1.1300    0.8380    1.9510 n3        1 B63     -0.266000
     11 C2         -0.2960    0.8300    0.7740 c3        1 B63     -0.062000
     12 C1          0.5520   -0.4690    0.7500 c3        1 B63     -0.121000
     13 C3          0.7980   -0.8940   -0.7110 c2        1 B63     -0.087000
     14 C4          2.0570   -0.5380   -1.3770 c3        1 B63     -0.020000
     15 N2          2.7250   -1.6510   -1.9140 n3        1 B63     -0.301000
     16 C5          2.0300   -2.4900   -2.7650 c2        1 B63      0.211000
     17 N5          2.6800   -3.2410   -3.8100 n2        1 B63     -0.304000
     18 C8          1.9750   -4.3530   -4.4670 c1        1 B63      0.253000
     19 N4          2.6430   -5.1310   -5.4520 n2        1 B63     -0.332000
     20 N3          0.5630   -4.5940   -4.1860 n         1 B63     -0.350000
     21 C7         -0.1170   -3.8140   -3.1820 c2        1 B63      0.387000
     22 O1         -1.3130   -3.9520   -3.0140 o         1 B63     -0.333000
     23 C6          0.6170   -2.7540   -2.4460 c2        1 B63     -0.293000
     24 N1          0.0020   -1.9730   -1.3030 n2        1 B63     -0.041000
     25 H11        -1.6360    3.4640    5.5940 ha        1 B63      0.151000
     26 H10        -0.9470    1.4510    4.5100 DU        1 B63      0.128000
     27 H13        -2.8060    5.0230    1.9600 DU        1 B63      0.128000
     28 H14        -2.1030    3.0360    0.8670 ha        1 B63      0.105000
     29 HN6        -1.4360    0.0550    2.2970 hn        1 B63      0.160000
     30 H2         -0.8640    0.8650   -0.0320 h1        1 B63      0.079000
     31 H2A         0.3020    1.6130    0.7890 h1        1 B63      0.079000
     32 H1          1.4160   -0.3060    1.1940 hc        1 B63      0.101500
     33 H1A         0.0720   -1.1810    1.2220 hc        1 B63      0.101500
     34 HN4         3.5600   -5.0830   -5.5330 hn        1 B63      0.212000
     35 HN4A        2.1670   -5.6810   -5.9970 hn        1 B63      0.212000
     36 H4          1.9410    0.1650   -2.0580 h1        1 B63      0.093000
     37 H141        3.6360   -1.7120   -1.8530 hn        1 B63      0.243000
     38 H15         0.1000   -5.2210   -4.6720 hn        1 B63      0.245000
     39 H16         2.6400   -0.0720   -0.7340 h1        1 B63      0.093000
@<TRIPOS>BOND
     1    1    2 1   
     2    2    3 1   
     3    4    5 1   
     4    4    7 1   
     5    5    6 1   
     6    5   25 1   
     7    6    9 1   
     8    7    8 1   
     9    8    9 1   
    10    8   28 1   
    11    9   10 1   
    12   10   11 1   
    13   10   29 1   
    14   11   12 1   
    15   11   30 1   
    16   11   31 1   
    17   12   13 1   
    18   12   32 1   
    19   12   33 1   
    20   13   14 1   
    21   13   24 1   
    22   14   15 1   
    23   14   36 1   
    24   14   39 1   
    25   15   16 1   
    26   15   37 1   
    27   16   17 1   
    28   16   23 1   
    29   17   18 1   
    30   18   20 1   
    31   19   34 1   
    32   19   35 1   
    33   20   21 1   
    34   20   38 1   
    35   21   22 1   
    36   21   23 1   
    37   23   24 1   
@<TRIPOS>SUBSTRUCTURE
     1 B63         1 TEMP              0 ****  ****    0 ROOT
