@<TRIPOS>MOLECULE
B63
   41    43     1     0     0
SMALL
bcc


@<TRIPOS>ATOM
      1 O3          0.1000   -0.4640   -0.0930 o         1 B63     -0.775800
      2 C15         1.0570   -1.1670   -0.4980 c         1 B63      0.912200
      3 O2          1.3650   -2.3320   -0.1480 o         1 B63     -0.775800
      4 C12         1.9530   -0.5300   -1.5820 ca        1 B63     -0.068600
      5 C11         3.0390   -1.2460   -2.1020 ca        1 B63     -0.091000
      6 C10         3.7960   -0.7280   -3.1440 ca        1 B63     -0.128000
      7 C13         1.6590    0.7470   -2.0760 ca        1 B63     -0.091000
      8 C14         2.3990    1.2920   -3.1190 ca        1 B63     -0.128000
      9 C9          3.4560    0.5370   -3.6610 ca        1 B63     -0.133400
     10 N6          4.1850    1.0520   -4.8270 n4        1 B63     -0.610400
     11 C2          3.4610    0.6780   -6.0790 c3        1 B63      0.099800
     12 C1          4.2730    0.8970   -7.3520 c3        1 B63     -0.137700
     13 C3          3.4740    0.4240   -8.5360 c2        1 B63      0.377300
     14 C4          4.1950   -0.5810   -9.4190 c3        1 B63      0.142500
     15 N2          3.3810   -1.0980  -10.4990 nh        1 B63     -0.728000
     16 C5          2.1000   -0.6490  -10.6880 cc        1 B63      0.418600
     17 N5          1.3320   -1.2120  -11.7320 nc        1 B63     -0.627300
     18 C8          0.1030   -0.7360  -11.8920 cd        1 B63      0.583800
     19 N4         -0.6890   -1.3800  -13.0010 n4        1 B63     -0.810600
     20 N3         -0.5040    0.2630  -11.1610 n         1 B63     -0.493400
     21 C7          0.2180    0.8820  -10.0740 c         1 B63      0.746700
     22 O1         -0.3850    1.7720   -9.4800 o         1 B63     -0.499500
     23 C6          1.5650    0.3570   -9.8420 cd        1 B63     -0.105600
     24 N1          2.2690    0.8690   -8.7490 nf        1 B63     -0.471300
     25 H11         3.2610   -2.2370   -1.6640 ha        1 B63      0.194000
     26 H10         4.6410   -1.3020   -3.5500 ha        1 B63      0.126500
     27 H13         0.8160    1.2980   -1.6190 ha        1 B63      0.194000
     28 H14         2.1520    2.2910   -3.5080 ha        1 B63      0.126500
     29 HN6         4.2560    2.0720   -4.7580 hn        1 B63      0.442300
     30 H2          2.5070    1.2840   -6.1040 hx        1 B63      0.122200
     31 H2A         3.1770   -0.4110   -5.9880 hx        1 B63      0.122200
     32 H1          4.5190    1.9860   -7.4860 hc        1 B63      0.081700
     33 H1A         5.2400    0.3280   -7.3100 hc        1 B63      0.081700
     34 HN4        -1.5290   -1.8250  -12.6070 hn        1 B63      0.488800
     35 HN4A       -0.9590   -0.6670  -13.6900 hn        1 B63      0.488800
     36 H4          5.1060   -0.0820   -9.8670 h1        1 B63      0.077700
     37 H141        3.7540   -1.8420  -11.0470 hn        1 B63      0.478800
     38 H15        -1.4360    0.5810  -11.3360 hn        1 B63      0.359500
     39 H16         4.5450   -1.4480   -8.7850 h1        1 B63      0.077700
     40 H62         5.1290    0.6550   -4.8330 hn        1 B63      0.442300
     41 H43        -0.1150   -2.1000  -13.4680 hn        1 B63      0.488800
@<TRIPOS>BOND
     1    1    2 1   
     2    2    3 1   
     3    2    4 1   
     4    4    5 ar  
     5    4    7 ar  
     6    5    6 ar  
     7    5   25 1   
     8    6    9 ar  
     9    6   26 1   
    10    7    8 ar  
    11    7   27 1   
    12    8    9 ar  
    13    8   28 1   
    14    9   10 1   
    15   10   11 1   
    16   10   29 1   
    17   10   40 1   
    18   11   12 1   
    19   11   30 1   
    20   11   31 1   
    21   12   13 1   
    22   12   32 1   
    23   12   33 1   
    24   13   14 1   
    25   13   24 2   
    26   14   15 1   
    27   14   36 1   
    28   14   39 1   
    29   15   16 1   
    30   15   37 1   
    31   16   17 1   
    32   16   23 2   
    33   17   18 2   
    34   18   19 1   
    35   18   20 1   
    36   19   34 1   
    37   19   35 1   
    38   19   41 1   
    39   20   21 1   
    40   20   38 1   
    41   21   22 2   
    42   21   23 1   
    43   23   24 1   
@<TRIPOS>SUBSTRUCTURE
     1 B63         1 TEMP              0 ****  ****    0 ROOT
