@<TRIPOS>MOLECULE
B63
   40    42     1     0     0
SMALL
bcc


@<TRIPOS>ATOM
      1 O3         -1.6230   -0.5590   -4.9820 oh        1 B63     -0.601100
      2 C15        -0.6560   -0.8840   -4.0680 c         1 B63      0.651700
      3 O2         -1.0380   -1.6980   -3.2230 o         1 B63     -0.510000
      4 C12         0.6780   -0.2840   -4.2060 ca        1 B63     -0.219600
      5 C11         0.8230    1.0380   -4.6420 ca        1 B63     -0.045000
      6 C10         2.0810    1.5700   -4.8820 ca        1 B63     -0.181000
      7 C13         1.8180   -1.0490   -3.9430 ca        1 B63     -0.045000
      8 C14         3.0820   -0.5390   -4.2060 ca        1 B63     -0.181000
      9 C9          3.2380    0.7710   -4.7250 ca        1 B63      0.177600
     10 N6          4.5210    1.2770   -4.9940 nh        1 B63     -0.721600
     11 C2          4.7320    2.1250   -6.1410 c3        1 B63      0.193800
     12 C1          5.1600    1.4350   -7.4380 c3        1 B63     -0.137700
     13 C3          4.1190    0.6010   -8.1180 c2        1 B63      0.321300
     14 C4          4.7320   -0.3370   -9.1480 c3        1 B63      0.153500
     15 N2          3.7670   -1.0880   -9.9060 nh        1 B63     -0.750000
     16 C5          2.4230   -1.0210   -9.6120 cc        1 B63      0.457600
     17 N5          1.5610   -1.8310  -10.3440 nc        1 B63     -0.744300
     18 C8          0.2410   -1.7760  -10.0380 cd        1 B63      0.734800
     19 N4         -0.6250   -2.6630  -10.6840 nh        1 B63     -0.915800
     20 N3         -0.2880   -0.9110   -9.0750 n         1 B63     -0.511400
     21 C7          0.5490   -0.0600   -8.3020 c         1 B63      0.762700
     22 O1         -0.0370    0.6400   -7.4580 o         1 B63     -0.641500
     23 C6          1.9750   -0.1200   -8.5980 cd        1 B63     -0.190600
     24 N1          2.8460    0.6950   -7.8720 nf        1 B63     -0.454300
     25 H11        -0.0680    1.6610   -4.8240 ha        1 B63      0.143500
     26 H10         2.1580    2.6110   -5.2280 ha        1 B63      0.136500
     27 H13         1.7040   -2.0700   -3.5440 ha        1 B63      0.143500
     28 H14         3.9640   -1.1690   -4.0160 ha        1 B63      0.136500
     29 HN6         5.2330    0.5780   -4.9030 hn        1 B63      0.387800
     30 H2          3.8150    2.7440   -6.3420 h1        1 B63      0.064700
     31 H2A         5.5670    2.8310   -5.8530 h1        1 B63      0.064700
     32 H1          5.4750    2.2380   -8.1600 hc        1 B63      0.054200
     33 H1A         6.0570    0.7860   -7.2430 hc        1 B63      0.054200
     34 HN4        -0.2530   -3.1800  -11.4480 hn        1 B63      0.440300
     35 HN4A       -1.2530    0.0250   -5.6640 ho        1 B63      0.447000
     36 H4          5.4250   -1.0560   -8.6160 h1        1 B63      0.044700
     37 H141        4.1030   -1.7280  -10.5870 hn        1 B63      0.455800
     38 H15        -1.2600   -0.9240   -8.8500 hn        1 B63      0.337500
     39 H16         5.3570    0.2710   -9.8670 h1        1 B63      0.044700
     40 H43        -1.5880   -2.4320  -10.7270 hn        1 B63      0.440300
@<TRIPOS>BOND
     1    1    2 1   
     2    1   35 1   
     3    2    3 2   
     4    2    4 1   
     5    4    5 ar  
     6    4    7 ar  
     7    5    6 ar  
     8    5   25 1   
     9    6    9 ar  
    10    6   26 1   
    11    7    8 ar  
    12    7   27 1   
    13    8    9 ar  
    14    8   28 1   
    15    9   10 1   
    16   10   11 1   
    17   10   29 1   
    18   11   12 1   
    19   11   30 1   
    20   11   31 1   
    21   12   13 1   
    22   12   32 1   
    23   12   33 1   
    24   13   14 1   
    25   13   24 2   
    26   14   15 1   
    27   14   36 1   
    28   14   39 1   
    29   15   16 1   
    30   15   37 1   
    31   16   17 1   
    32   16   23 2   
    33   17   18 2   
    34   18   19 1   
    35   18   20 1   
    36   19   34 1   
    37   19   40 1   
    38   20   21 1   
    39   20   38 1   
    40   21   22 2   
    41   21   23 1   
    42   23   24 1   
@<TRIPOS>SUBSTRUCTURE
     1 B63         1 TEMP              0 ****  ****    0 ROOT
