@<TRIPOS>MOLECULE
B64
   32    33     1     0     0
SMALL
bcc


@<TRIPOS>ATOM
      1 C1          1.5850    0.8650   -1.3190 c         1 B64      0.885800
      2 C2          0.9760    0.1060   -0.1490 ce        1 B64     -0.085200
      3 C3          1.3770    0.2920    1.1170 cf        1 B64     -0.300200
      4 O1          1.1230    0.6000   -2.4630 o         1 B64     -0.815800
      5 O2          2.5010    1.7010   -1.0850 o         1 B64     -0.815800
      6 O7         -0.1300   -1.2950    2.1160 o         1 B64     -0.618100
      7 N8          1.3000   -0.1510    3.5190 n         1 B64     -0.454100
      8 C9          0.9100   -0.7050    4.7090 cc        1 B64      0.169600
      9 C10         1.4690   -0.3710    5.9680 cd        1 B64     -0.291700
     10 S11         0.7570   -1.2410    7.2170 ss        1 B64      0.068200
     11 C12        -0.2850   -2.0680    6.2010 cd        1 B64     -0.000100
     12 C13        -0.1210   -1.7060    4.8760 cc        1 B64     -0.198000
     13 C14         2.5190    0.5940    6.1470 c         1 B64      0.690700
     14 O15         2.9180    0.7680    7.4570 os        1 B64     -0.451900
     15 C16         3.9580    1.7190    7.6770 c3        1 B64      0.132700
     16 O17         3.1040    1.2800    5.2980 o         1 B64     -0.569000
     17 C18        -1.2230   -3.0300    6.6810 cd        1 B64     -0.042100
     18 C19        -1.4480   -3.3730    8.0080 cc        1 B64     -0.164000
     19 C20        -2.4550   -4.3720    8.1320 cc        1 B64     -0.157000
     20 C21        -2.9520   -4.7470    6.8990 cd        1 B64     -0.197100
     21 S22        -2.2230   -3.9180    5.6580 ss        1 B64      0.093200
     22 CS1         0.7780   -0.4490    2.2370 c         1 B64      0.681300
     23 H2          0.1810   -0.6110   -0.4120 ha        1 B64      0.123000
     24 H3          2.1770    1.0220    1.3300 ha        1 B64      0.161000
     25 HN8         2.0310    0.5350    3.5640 hn        1 B64      0.353500
     26 H13        -0.6900   -2.1110    4.0310 ha        1 B64      0.200000
     27 H16         3.6310    2.7300    7.3340 h1        1 B64      0.045033
     28 H16A        4.1110    1.6920    8.7840 h1        1 B64      0.045033
     29 H16B        4.8800    1.4110    7.1290 h1        1 B64      0.045033
     30 H19        -0.9240   -2.9360    8.8610 ha        1 B64      0.153000
     31 H20        -2.7800   -4.7790    9.0910 ha        1 B64      0.146000
     32 H21        -3.7280   -5.4920    6.7360 h4        1 B64      0.167000
@<TRIPOS>BOND
     1    1    2 1   
     2    1    4 1   
     3    1    5 1   
     4    2    3 2   
     5    2   23 1   
     6    3   22 1   
     7    3   24 1   
     8    6   22 2   
     9    7    8 1   
    10    7   22 1   
    11    7   25 1   
    12    8    9 2   
    13    8   12 1   
    14    9   10 1   
    15    9   13 1   
    16   10   11 1   
    17   11   12 2   
    18   11   17 1   
    19   12   26 1   
    20   13   14 1   
    21   13   16 2   
    22   14   15 1   
    23   15   27 1   
    24   15   28 1   
    25   15   29 1   
    26   17   18 2   
    27   17   21 1   
    28   18   19 1   
    29   18   30 1   
    30   19   20 2   
    31   19   31 1   
    32   20   21 1   
    33   20   32 1   
@<TRIPOS>SUBSTRUCTURE
     1 B64         1 TEMP              0 ****  ****    0 ROOT
