@<TRIPOS>MOLECULE
B64
   32    33     1     0     0
SMALL
bcc


@<TRIPOS>ATOM
      1 C1          1.5200    0.9650   -1.2980 c         1 B64      0.885800
      2 C2          0.9180    0.1920   -0.1340 ce        1 B64     -0.085200
      3 C3          1.3390    0.3500    1.1290 cf        1 B64     -0.300200
      4 O1          1.0390    0.7260   -2.4400 o         1 B64     -0.815800
      5 O2          2.4500    1.7850   -1.0630 o         1 B64     -0.815800
      6 O7         -0.1730   -1.2360    2.1220 o         1 B64     -0.618100
      7 N8          1.2920   -0.1360    3.5240 ns        1 B64     -0.454100
      8 C9          0.9110   -0.7070    4.7100 cc        1 B64      0.169600
      9 C10         1.4920   -0.4030    5.9660 cd        1 B64     -0.291700
     10 S11         0.7870   -1.2850    7.2100 ss        1 B64      0.068200
     11 C12        -0.2800   -2.0810    6.1940 cd        1 B64     -0.000100
     12 C13        -0.1300   -1.6970    4.8740 cc        1 B64     -0.198000
     13 C14         2.5570    0.5460    6.1480 c         1 B64      0.690700
     14 O15         2.9770    0.6920    7.4550 os        1 B64     -0.451900
     15 C16         4.0320    1.6250    7.6770 c3        1 B64      0.132700
     16 O17         3.1390    1.2400    5.3030 o         1 B64     -0.569000
     17 C18        -1.2230   -3.0410    6.6700 cd        1 B64     -0.042100
     18 C19        -1.4250   -3.4130    7.9930 cc        1 B64     -0.164000
     19 C20        -2.4460   -4.3990    8.1140 cc        1 B64     -0.157000
     20 C21        -2.9750   -4.7330    6.8830 cd        1 B64     -0.197100
     21 S22        -2.2600   -3.8850    5.6480 ss        1 B64      0.093200
     22 CS1         0.7470   -0.4040    2.2440 c         1 B64      0.681300
     23 H2          0.1100   -0.5090   -0.3980 ha        1 B64      0.123000
     24 H3          2.1520    1.0650    1.3440 ha        1 B64      0.161000
     25 HN8         2.0320    0.5400    3.5710 hn        1 B64      0.353500
     26 H13        -0.7160   -2.0800    4.0300 ha        1 B64      0.200000
     27 H16         4.9420    1.3150    7.1090 h1        1 B64      0.045033
     28 H16A        3.7140    2.6460    7.3560 h1        1 B64      0.045033
     29 H16B        4.2000    1.5760    8.7800 h1        1 B64      0.045033
     30 H19        -0.8750   -3.0070    8.8450 ha        1 B64      0.153000
     31 H20        -2.7560   -4.8240    9.0690 ha        1 B64      0.146000
     32 H21        -3.7670   -5.4620    6.7190 h4        1 B64      0.167000
@<TRIPOS>BOND
     1    1    2 1   
     2    1    4 1   
     3    1    5 1   
     4    2    3 2   
     5    2   23 1   
     6    3   22 1   
     7    3   24 1   
     8    6   22 2   
     9    7    8 1   
    10    7   22 1   
    11    7   25 1   
    12    8    9 2   
    13    8   12 1   
    14    9   10 1   
    15    9   13 1   
    16   10   11 1   
    17   11   12 2   
    18   11   17 1   
    19   12   26 1   
    20   13   14 1   
    21   13   16 2   
    22   14   15 1   
    23   15   27 1   
    24   15   28 1   
    25   15   29 1   
    26   17   18 2   
    27   17   21 1   
    28   18   19 1   
    29   18   30 1   
    30   19   20 2   
    31   19   31 1   
    32   20   21 1   
    33   20   32 1   
@<TRIPOS>SUBSTRUCTURE
     1 B64         1 TEMP              0 ****  ****    0 ROOT
