@<TRIPOS>MOLECULE
B64
   33    34     1     0     0
SMALL
bcc


@<TRIPOS>ATOM
      1 C1          0.4200    0.8000   -0.1840 c         1 B64      0.620300
      2 C2          1.8300    0.4750    0.1090 ce        1 B64     -0.172200
      3 C3          2.3100   -0.1580    1.1800 cf        1 B64     -0.183200
      4 O1          0.0050    1.9220   -0.4820 o         1 B64     -0.482000
      5 O2         -0.5340   -0.1680   -0.2090 oh        1 B64     -0.572100
      6 O7          0.5360   -1.5240    2.0140 o         1 B64     -0.599100
      7 N8          1.8360   -0.3820    3.5570 n         1 B64     -0.435100
      8 C9          1.2180   -0.8040    4.7250 cc        1 B64      0.120600
      9 C10         1.6430   -0.4120    6.0170 cd        1 B64     -0.276700
     10 S11         0.6820   -1.0860    7.2050 ss        1 B64      0.172200
     11 C12        -0.2920   -1.9020    6.1280 cd        1 B64      0.000900
     12 C13         0.0850   -1.6790    4.8090 cc        1 B64     -0.197000
     13 C14         2.7670    0.4610    6.2610 c         1 B64      0.692700
     14 O15         3.0060    0.7280    7.5850 os        1 B64     -0.437900
     15 C16         4.1070    1.5920    7.8720 c3        1 B64      0.130700
     16 O17         3.5270    0.9850    5.4330 o         1 B64     -0.580000
     17 C18        -1.3830   -2.7190    6.5450 cd        1 B64     -0.073100
     18 C19        -1.5790   -3.2400    7.8200 cc        1 B64     -0.146000
     19 C20        -2.7740   -4.0110    7.8970 cc        1 B64     -0.154000
     20 C21        -3.4320   -4.0450    6.6830 cd        1 B64     -0.178100
     21 S22        -2.6320   -3.1800    5.5150 ss        1 B64      0.093200
     22 CS1         1.4740   -0.7420    2.2690 c         1 B64      0.664300
     23 H2          2.5230    0.8660   -0.6610 ha        1 B64      0.169000
     24 H3          3.3980   -0.3080    1.3010 ha        1 B64      0.162000
     25 HN8         2.6020    0.2580    3.6720 hn        1 B64      0.361500
     26 H13        -0.4080   -2.1120    3.9310 ha        1 B64      0.195000
     27 H16         5.0550    1.1380    7.4950 h1        1 B64      0.053367
     28 H16A        3.9430    2.5890    7.3960 h1        1 B64      0.053367
     29 H16B        4.0990    1.6620    8.9870 h1        1 B64      0.053367
     30 H19        -0.9060   -3.0890    8.6670 ha        1 B64      0.155000
     31 H20        -3.1090   -4.5060    8.8100 ha        1 B64      0.157000
     32 H21        -4.3670   -4.5720    6.4940 h4        1 B64      0.176000
     33 H82        -0.1790   -1.0110    0.1170 ho        1 B64      0.455000
@<TRIPOS>BOND
     1    1    2 1   
     2    1    4 2   
     3    1    5 1   
     4    2    3 2   
     5    2   23 1   
     6    3   22 1   
     7    3   24 1   
     8    5   33 1   
     9    6   22 2   
    10    7    8 1   
    11    7   22 1   
    12    7   25 1   
    13    8    9 2   
    14    8   12 1   
    15    9   10 1   
    16    9   13 1   
    17   10   11 1   
    18   11   12 2   
    19   11   17 1   
    20   12   26 1   
    21   13   14 1   
    22   13   16 2   
    23   14   15 1   
    24   15   27 1   
    25   15   28 1   
    26   15   29 1   
    27   17   18 2   
    28   17   21 1   
    29   18   19 1   
    30   18   30 1   
    31   19   20 2   
    32   19   31 1   
    33   20   21 1   
    34   20   32 1   
@<TRIPOS>SUBSTRUCTURE
     1 B64         1 TEMP              0 ****  ****    0 ROOT
