@<TRIPOS>MOLECULE
B64
   32    33     1     0     0
SMALL
bcc


@<TRIPOS>ATOM
      1 C1          4.2560   -0.9940    0.9260 c         1 B64      0.890800
      2 C2          4.6130   -0.5100   -0.4630 ce        1 B64     -0.124200
      3 C3          3.8380    0.0910   -1.3670 cf        1 B64     -0.276200
      4 O1          4.9250   -0.5160    1.8810 o         1 B64     -0.817300
      5 O2          3.3520   -1.8710    1.0560 o         1 B64     -0.817300
      6 O7          1.9540    1.5140   -1.6570 o         1 B64     -0.642100
      7 N8          1.5640   -0.5630   -0.7130 n         1 B64     -0.434100
      8 C9          0.2250   -0.4080   -0.4400 cc        1 B64      0.155600
      9 C10        -0.6190   -1.4540   -0.0060 cd        1 B64     -0.256700
     10 S11        -2.1760   -0.9180    0.3030 ss        1 B64      0.060200
     11 C12        -1.8480    0.6590   -0.1640 cd        1 B64     -0.025100
     12 C13        -0.5270    0.8240   -0.5380 cc        1 B64     -0.184000
     13 C14        -0.1810   -2.8250    0.1200 c         1 B64      0.691700
     14 O15        -0.8620   -3.5510    1.0780 os        1 B64     -0.452900
     15 C16        -0.3720   -4.8660    1.3270 c3        1 B64      0.130700
     16 O17         0.6800   -3.4250   -0.5280 o         1 B64     -0.531000
     17 C18        -2.8390    1.6840   -0.1510 cd        1 B64     -0.018100
     18 C19        -4.2140    1.5080   -0.0640 cc        1 B64     -0.174000
     19 C20        -4.9090    2.7520   -0.0740 cc        1 B64     -0.156000
     20 C21        -4.0380    3.8190   -0.1690 cd        1 B64     -0.202100
     21 S22        -2.4530    3.3220   -0.2390 ss        1 B64      0.073200
     22 CS1         2.4020    0.4240   -1.2390 c         1 B64      0.691300
     23 H2          5.6840   -0.6550   -0.6940 ha        1 B64      0.112000
     24 H3          4.2490    0.4530   -2.3250 ha        1 B64      0.122000
     25 HN8         2.0110   -1.4010   -0.3420 hn        1 B64      0.398500
     26 H13        -0.0730    1.7620   -0.8770 ha        1 B64      0.192000
     27 H16        -0.9820   -5.2170    2.1960 h1        1 B64      0.045033
     28 H16A       -0.5370   -5.5090    0.4290 h1        1 B64      0.045033
     29 H16B        0.7160   -4.8310    1.5780 h1        1 B64      0.045033
     30 H19        -4.7130    0.5400    0.0020 ha        1 B64      0.152000
     31 H20        -5.9950    2.8290   -0.0140 ha        1 B64      0.143000
     32 H21        -4.3300    4.8670   -0.1970 h4        1 B64      0.162000
@<TRIPOS>BOND
     1    1    2 1   
     2    1    4 1   
     3    1    5 1   
     4    2    3 2   
     5    2   23 1   
     6    3   22 1   
     7    3   24 1   
     8    6   22 2   
     9    7    8 1   
    10    7   22 1   
    11    7   25 1   
    12    8    9 2   
    13    8   12 1   
    14    9   10 1   
    15    9   13 1   
    16   10   11 1   
    17   11   12 2   
    18   11   17 1   
    19   12   26 1   
    20   13   14 1   
    21   13   16 2   
    22   14   15 1   
    23   15   27 1   
    24   15   28 1   
    25   15   29 1   
    26   17   18 2   
    27   17   21 1   
    28   18   19 1   
    29   18   30 1   
    30   19   20 2   
    31   19   31 1   
    32   20   21 1   
    33   20   32 1   
@<TRIPOS>SUBSTRUCTURE
     1 B64         1 TEMP              0 ****  ****    0 ROOT
