@<TRIPOS>MOLECULE
B64
   32    26     1     0     0
SMALL
bcc


@<TRIPOS>ATOM
      1 C1         -6.0730    2.1210   -0.5420 c1        1 B64      0.336000
      2 C2         -4.5990    2.0250   -0.7080 c1        1 B64     -0.066000
      3 C3         -3.9240    0.9290   -0.2330 c1        1 B64     -0.281000
      4 O1         -6.5520    2.8020    0.3870 o         1 B64     -0.550500
      5 O2         -6.8260    1.4530   -1.2740 o         1 B64     -0.550500
      6 O7         -1.8460    1.3670   -1.3610 o         1 B64     -0.379000
      7 N8         -1.6190    0.0130    0.4860 n         1 B64     -0.308000
      8 C9         -0.2370   -0.1630    0.2680 c2        1 B64      0.177000
      9 C10         0.6920   -0.8660    1.1650 c1        1 B64     -0.541000
     10 S11         2.1280   -0.6900    0.5960 ss        1 B64      0.608000
     11 C12         2.0190    0.1630   -0.7040 c2        1 B64     -0.270000
     12 C13         0.6080    0.4870   -0.9130 c1        1 B64     -0.198000
     13 C14         0.3200   -1.6250    2.4250 c1        1 B64      0.391000
     14 O15         0.8720   -2.9310    2.6610 os        1 B64     -0.290000
     15 C16         0.6950   -3.4060    4.0070 c3        1 B64     -0.057000
     16 O17        -0.3810   -1.0960    3.2730 o         1 B64     -0.380000
     17 C18         3.0970    0.5190   -1.5650 c2        1 B64     -0.312000
     18 C19         3.8770   -0.3930   -2.3690 c1        1 B64     -0.164000
     19 C20         5.0040    0.4310   -3.1060 c1        1 B64     -0.157000
     20 C21         4.8730    1.8260   -2.7240 c1        1 B64     -0.467000
     21 S22         3.6870    1.9420   -1.7540 ss        1 B64      0.634000
     22 CS1        -2.3880    0.8270   -0.4100 c2        1 B64      0.356000
     23 H2         -4.1160    2.7240   -1.1930 ha        1 B64      0.123000
     24 H3         -4.4260    0.1880    0.2270 DU        1 B64      0.165400
     25 HN8        -2.0090   -0.3260    1.2450 hn        1 B64      0.267000
     26 H13         0.2460    1.0120   -1.6550 DU        1 B64      0.165400
     27 H16         1.0180   -4.3510    4.0720 h1        1 B64      0.084333
     28 H16A        1.2140   -2.8370    4.6290 h1        1 B64      0.084333
     29 H16B       -0.2590   -3.3680    4.2470 h1        1 B64      0.084333
     30 H19         3.7280   -1.3840   -2.4460 DU        1 B64      0.165400
     31 H20         5.7020    0.0490   -3.7400 DU        1 B64      0.165400
     32 H21         5.4750    2.5560   -2.9900 DU        1 B64      0.165400
@<TRIPOS>BOND
     1    1    4 1   
     2    1    5 1   
     3    2    3 1   
     4    2   23 1   
     5    3   22 1   
     6    6   22 1   
     7    7    8 1   
     8    7   22 1   
     9    7   25 1   
    10    8    9 1   
    11    8   12 1   
    12    9   10 1   
    13   10   11 1   
    14   11   12 1   
    15   11   17 1   
    16   13   14 1   
    17   13   16 1   
    18   14   15 1   
    19   15   27 1   
    20   15   28 1   
    21   15   29 1   
    22   17   18 1   
    23   17   21 1   
    24   18   19 1   
    25   19   20 1   
    26   20   21 1   
@<TRIPOS>SUBSTRUCTURE
     1 B64         1 TEMP              0 ****  ****    0 ROOT
