@<TRIPOS>MOLECULE
B65
   41    42     1     0     0
SMALL
bcc


@<TRIPOS>ATOM
      1 CAL         0.0000    0.0000    0.0000 ca        1 B65     -0.235000
      2 CAH         1.3810    0.0000    0.0000 ca        1 B65     -0.148000
      3 CAG         2.0730    0.0000    1.1980 ca        1 B65     -0.138000
      4 CAI         1.3860   -0.0000    2.3970 ca        1 B65     -0.148000
      5 CAM         0.0040   -0.0000    2.4020 ca        1 B65     -0.235000
      6 CAU        -0.6930   -0.0000    1.2020 ca        1 B65      0.183100
      7 OAS        -2.0520   -0.0000    1.2040 os        1 B65     -0.232200
      8 CAV        -2.6920   -0.0120    0.0050 ca        1 B65      0.089100
      9 CAO        -3.0190   -1.2190   -0.5960 ca        1 B65     -0.119000
     10 CAN        -3.0250    1.1840   -0.6170 ca        1 B65     -0.165000
     11 CAJ        -3.6750    1.1690   -1.8340 ca        1 B65     -0.111000
     12 CAK        -3.9950   -0.0360   -2.4350 ca        1 B65     -0.093000
     13 CAT        -3.6700   -1.2280   -1.8150 ca        1 B65     -0.020300
     14 CAQ        -4.0250   -2.5380   -2.4690 c3        1 B65      0.020900
     15 CAP        -5.4170   -2.9750   -2.0110 c3        1 B65     -0.118400
     16 CAR        -5.7790   -4.3060   -2.6750 c3        1 B65      0.060600
     17 CAW        -7.1710   -4.7440   -2.2170 c3        1 B65     -0.012100
     18 PAX        -7.5400   -6.3980   -2.8900 p5        1 B65      0.506700
     19 OAB        -9.0060   -6.8570   -2.4080 o         1 B65     -0.670500
     20 OAC        -7.4960   -6.3450   -4.4980 o         1 B65     -0.670500
     21 OAA        -6.5330   -7.3650   -2.3990 o         1 B65     -0.670500
     22 SAY        -8.4050   -3.5570   -2.8180 s6        1 B65      0.951800
     23 OAF        -9.7190   -4.0380   -2.5720 o         1 B65     -0.688200
     24 OAE        -8.0340   -2.2300   -2.4670 o         1 B65     -0.688200
     25 OAD        -8.2670   -3.5980   -4.3320 o         1 B65     -0.688200
     26 HAL        -0.5420    0.0000   -0.9380 ha        1 B65      0.112000
     27 HAH         1.9220    0.0000   -0.9380 ha        1 B65      0.077500
     28 HAG         3.1570    0.0000    1.1960 ha        1 B65      0.069000
     29 HAI         1.9300   -0.0000    3.3330 ha        1 B65      0.077500
     30 HAM        -0.5350   -0.0010    3.3420 ha        1 B65      0.112000
     31 HAO        -2.7650   -2.1530   -0.1100 ha        1 B65      0.121000
     32 HAN        -2.7750    2.1270   -0.1470 ha        1 B65      0.092000
     33 HAJ        -3.9330    2.1020   -2.3210 ha        1 B65      0.082000
     34 HAK        -4.4860   -0.0450   -3.4000 ha        1 B65      0.121000
     35 HAQ        -3.2990   -3.2910   -2.1870 hc        1 B65      0.008200
     36 HAQA       -4.0200   -2.4170   -3.5450 hc        1 B65      0.008200
     37 HAP        -5.4220   -3.0960   -0.9350 hc        1 B65      0.052700
     38 HAPA       -6.1430   -2.2220   -2.2930 hc        1 B65      0.052700
     39 HAR        -5.7740   -4.1850   -3.7510 hc        1 B65      0.012700
     40 HARA       -5.0530   -5.0590   -2.3930 hc        1 B65      0.012700
     41 HAW        -7.2010   -4.7790   -1.1340 h1        1 B65      0.026700
@<TRIPOS>BOND
     1    1    2 ar  
     2    1    6 ar  
     3    1   26 1   
     4    2    3 ar  
     5    2   27 1   
     6    3    4 ar  
     7    3   28 1   
     8    4    5 ar  
     9    4   29 1   
    10    5    6 ar  
    11    5   30 1   
    12    6    7 1   
    13    7    8 1   
    14    8    9 ar  
    15    8   10 ar  
    16    9   13 ar  
    17    9   31 1   
    18   10   11 ar  
    19   10   32 1   
    20   11   12 ar  
    21   11   33 1   
    22   12   13 ar  
    23   12   34 1   
    24   13   14 1   
    25   14   15 1   
    26   14   35 1   
    27   14   36 1   
    28   15   16 1   
    29   15   37 1   
    30   15   38 1   
    31   16   17 1   
    32   16   39 1   
    33   16   40 1   
    34   17   18 1   
    35   17   22 1   
    36   17   41 1   
    37   18   19 1   
    38   18   20 1   
    39   18   21 1   
    40   22   23 1   
    41   22   24 1   
    42   22   25 1   
@<TRIPOS>SUBSTRUCTURE
     1 B65         1 TEMP              0 ****  ****    0 ROOT
