@<TRIPOS>MOLECULE
B66
   45    41     1     0     0
SMALL
bcc


@<TRIPOS>ATOM
      1 C17         4.1160   -0.3750   -2.6770 c1        1 B66     -0.166000
      2 C18         5.5250   -0.1690   -2.6790 c1        1 B66     -0.041000
      3 C21         6.0450    1.0100   -2.2170 c1        1 B66     -0.167000
      4 N19         7.4970    1.1250   -1.9980 n2        1 B66      0.464400
      5 O20         8.3220    0.1150   -2.3780 o         1 B66     -0.307200
      6 O19         7.9670    2.1620   -1.5840 o         1 B66     -0.307200
      7 C20         5.1910    2.0120   -1.7440 c2        1 B66     -0.032000
      8 C19         3.7870    1.8060   -1.7420 c1        1 B66     -0.212000
      9 C16         3.2650    0.6240   -2.2050 c1        1 B66      0.112000
     10 O14         1.8370    0.4360   -2.2500 os        1 B66     -0.203000
     11 C13         1.3140   -0.1380   -1.1210 c3        1 B66     -0.043000
     12 C11        -0.2270   -0.2420   -1.2630 c3        1 B66      0.067000
     13 O11        -0.7170    0.9050   -1.8910 oh        1 B66     -0.327000
     14 C12        -0.5750   -1.4530   -2.0870 c3        1 B66     -0.203000
     15 C10        -0.8490   -0.3750    0.1200 c3        1 B66      0.100000
     16 O10        -0.6660    0.7950    0.8150 oh        1 B66     -0.366000
     17 N9         -2.2240   -0.6380    0.0000 n3        1 B66     -0.317000
     18 C6         -3.0420   -0.7800    1.2040 c2        1 B66      0.100000
     19 C5         -3.4530    0.3350    1.8820 c2        1 B66     -0.157000
     20 C1         -3.4970   -2.0070    1.5750 c1        1 B66     -0.193000
     21 C2         -4.3800   -2.1300    2.6440 c1        1 B66     -0.052000
     22 C3         -4.7930   -1.0110    3.3240 c1        1 B66     -0.008000
     23 C8         -5.7270   -1.1440    4.4790 c1        1 B66     -0.110000
     24 N8         -6.4450   -1.2490    5.3660 n1        1 B66     -0.003000
     25 C4         -4.3390    0.2150    2.9550 c2        1 B66     -0.076000
     26 C7         -4.8260    1.4820    3.7100 c3        1 B66      0.464000
     27 F2         -4.3190    2.5930    3.1150 f         1 B66     -0.156667
     28 F3         -6.2110    1.5310    3.6760 f         1 B66     -0.156667
     29 F1         -4.3840    1.4260    5.0570 f         1 B66     -0.156667
     30 H17         3.7400   -1.2300   -3.0130 ha        1 B66      0.163000
     31 H18         6.1490   -0.9040   -3.0250 ha        1 B66      0.174000
     32 H20         5.5720    2.8760   -1.4050 ha        1 B66      0.173000
     33 H19         3.2300    2.4620   -1.4330 ha        1 B66      0.173000
     34 H13         1.7060   -1.0700   -0.9990 h1        1 B66      0.115500
     35 H13A        1.5330    0.4100   -0.3480 h1        1 B66      0.115500
     36 HO11       -0.1230    1.5160   -1.8670 ho        1 B66      0.221000
     37 H12        -0.0470   -2.2130   -1.7840 hc        1 B66      0.099667
     38 H12A       -1.4450   -1.6380   -1.9920 hc        1 B66      0.099667
     39 H12B       -0.3870   -1.2810   -3.0040 hc        1 B66      0.099667
     40 HN9        -2.5970   -0.8130   -0.8450 hn        1 B66      0.229000
     41 H5         -3.1370    1.1800    1.6260 ha        1 B66      0.164000
     42 H1         -3.2150   -2.7700    1.1110 ha        1 B66      0.140000
     43 H2         -4.6910   -2.9710    2.8970 ha        1 B66      0.155000
     44 H15        -0.4250   -1.1010    0.5930 h2        1 B66      0.111000
     45 H16        -0.0590    0.6820    1.4010 ho        1 B66      0.220000
@<TRIPOS>BOND
     1    1    9 1   
     2    1   30 1   
     3    2    3 1   
     4    2   31 1   
     5    3    7 1   
     6    4    5 2   
     7    4    6 2   
     8    7    8 1   
     9    7   32 1   
    10    8   33 1   
    11    9   10 1   
    12   10   11 1   
    13   11   12 1   
    14   11   34 1   
    15   11   35 1   
    16   12   13 1   
    17   12   14 1   
    18   12   15 1   
    19   13   36 1   
    20   14   37 1   
    21   14   38 1   
    22   14   39 1   
    23   15   16 1   
    24   15   17 1   
    25   15   44 1   
    26   16   45 1   
    27   17   18 1   
    28   17   40 1   
    29   18   19 1   
    30   18   20 1   
    31   19   25 1   
    32   19   41 1   
    33   20   42 1   
    34   21   22 1   
    35   21   43 1   
    36   22   25 1   
    37   23   24 1   
    38   25   26 1   
    39   26   27 1   
    40   26   28 1   
    41   26   29 1   
@<TRIPOS>SUBSTRUCTURE
     1 B66         1 TEMP              0 ****  ****    0 ROOT
