@<TRIPOS>MOLECULE
B66
   45    46     1     0     0
SMALL
bcc


@<TRIPOS>ATOM
      1 C17        -5.5330   -1.5050   -0.1150 ca        1 B66     -0.193000
      2 C18        -6.8570   -1.1120    0.0050 ca        1 B66     -0.031000
      3 C21        -7.1660    0.2520    0.1640 ca        1 B66     -0.213200
      4 N19        -8.5830    0.6710    0.2920 no        1 B66      0.319200
      5 O20        -9.4430   -0.1680    0.2590 o         1 B66     -0.209000
      6 O19        -8.8340    1.8400    0.4250 o         1 B66     -0.209000
      7 C20        -6.1490    1.2190    0.2020 ca        1 B66     -0.031000
      8 C19        -4.8200    0.8260    0.0810 ca        1 B66     -0.193000
      9 C16        -4.5130   -0.5320   -0.0770 ca        1 B66      0.171100
     10 O14        -3.2380   -1.0340   -0.2110 os        1 B66     -0.336900
     11 C13        -2.1720   -0.0760   -0.1530 c3        1 B66      0.093400
     12 C11        -0.8750   -0.8990   -0.2610 c3        1 B66      0.125800
     13 O11        -0.8390   -1.8930    0.7550 oh        1 B66     -0.612800
     14 C12        -0.7450   -1.5170   -1.6410 c3        1 B66     -0.121100
     15 C10         0.3150    0.0640    0.0720 c3        1 B66      0.411300
     16 O10         0.1250    0.6080    1.3730 oh        1 B66     -0.619800
     17 N9          1.5900   -0.5990   -0.1110 nh        1 B66     -0.762600
     18 C6          2.7880    0.0920    0.0870 ca        1 B66      0.181600
     19 C5          4.0090   -0.6290    0.0470 ca        1 B66     -0.155000
     20 C1          2.8460    1.4950    0.2520 ca        1 B66     -0.165000
     21 C2          4.0700    2.1450    0.3350 ca        1 B66     -0.061000
     22 C3          5.2740    1.4290    0.2740 ca        1 B66     -0.011000
     23 C8          6.5030    2.1360    0.3610 cg        1 B66      0.222800
     24 N8          7.5030    2.7260    0.4330 n1        1 B66     -0.334800
     25 C4          5.2270    0.0330    0.1350 ca        1 B66     -0.091300
     26 C7          6.5170   -0.7900    0.0780 c3        1 B66      0.685200
     27 F2          6.3230   -2.1470   -0.0260 f         1 B66     -0.230300
     28 F3          7.3300   -0.4930   -0.9870 f         1 B66     -0.230300
     29 F1          7.3240   -0.6580    1.1810 f         1 B66     -0.230300
     30 H17        -5.2680   -2.5650   -0.2410 ha        1 B66      0.159000
     31 H18        -7.6660   -1.8640   -0.0230 ha        1 B66      0.175000
     32 H20        -6.4020    2.2870    0.3270 ha        1 B66      0.175000
     33 H19        -4.0290    1.5900    0.1120 ha        1 B66      0.159000
     34 H13        -2.2570    0.6370   -1.0120 h1        1 B66      0.068200
     35 H13A       -2.2050    0.4700    0.8260 h1        1 B66      0.068200
     36 HO11       -1.6000   -2.4720    0.6160 ho        1 B66      0.434000
     37 H12        -0.4920   -0.7310   -2.3920 hc        1 B66      0.058367
     38 H12A        0.0550   -2.2950   -1.6470 hc        1 B66      0.058367
     39 H12B       -1.7110   -1.9980   -1.9310 hc        1 B66      0.058367
     40 HN9         1.6020   -1.5540    0.1830 hn        1 B66      0.424800
     41 H5          4.0000   -1.7270   -0.0620 ha        1 B66      0.160000
     42 H1          1.9180    2.0830    0.3380 ha        1 B66      0.157000
     43 H2          4.0970    3.2400    0.4580 ha        1 B66      0.154000
     44 H15         0.2660    0.9620   -0.6140 h2        1 B66      0.096700
     45 H16         0.0090   -0.1200    2.0000 ho        1 B66      0.427000
@<TRIPOS>BOND
     1    1    2 ar  
     2    1    9 ar  
     3    1   30 1   
     4    2    3 ar  
     5    2   31 1   
     6    3    4 1   
     7    3    7 ar  
     8    4    5 1   
     9    4    6 1   
    10    7    8 ar  
    11    7   32 1   
    12    8    9 ar  
    13    8   33 1   
    14    9   10 1   
    15   10   11 1   
    16   11   12 1   
    17   11   34 1   
    18   11   35 1   
    19   12   13 1   
    20   12   14 1   
    21   12   15 1   
    22   13   36 1   
    23   14   37 1   
    24   14   38 1   
    25   14   39 1   
    26   15   16 1   
    27   15   17 1   
    28   15   44 1   
    29   16   45 1   
    30   17   18 1   
    31   17   40 1   
    32   18   19 ar  
    33   18   20 ar  
    34   19   25 ar  
    35   19   41 1   
    36   20   21 ar  
    37   20   42 1   
    38   21   22 ar  
    39   21   43 1   
    40   22   23 1   
    41   22   25 ar  
    42   23   24 3   
    43   25   26 1   
    44   26   27 1   
    45   26   28 1   
    46   26   29 1   
@<TRIPOS>SUBSTRUCTURE
     1 B66         1 TEMP              0 ****  ****    0 ROOT
