@<TRIPOS>MOLECULE
B66
   45    46     1     0     0
SMALL
bcc


@<TRIPOS>ATOM
      1 C17        -0.0610    0.4080    0.0120 ca        1 B66     -0.193500
      2 C18         1.2930    0.6990   -0.0510 ca        1 B66     -0.031000
      3 C21         2.0550    0.7200    1.1320 ca        1 B66     -0.215200
      4 N19         3.5040    1.0310    1.0640 no        1 B66      0.319200
      5 O20         4.0000    1.2620   -0.0070 o         1 B66     -0.211000
      6 O19         4.1460    1.0430    2.0810 o         1 B66     -0.211000
      7 C20         1.4610    0.4510    2.3750 ca        1 B66     -0.031000
      8 C19         0.1030    0.1570    2.4400 ca        1 B66     -0.193500
      9 C16        -0.6560    0.1360    1.2620 ca        1 B66      0.174100
     10 O14        -2.0010   -0.1480    1.2050 os        1 B66     -0.336900
     11 C13        -2.6480   -0.3990    2.4620 c3        1 B66      0.097400
     12 C11        -4.1380   -0.5950    2.1240 c3        1 B66      0.166800
     13 O11        -4.6660    0.5940    1.5560 oh        1 B66     -0.592800
     14 C12        -4.3330   -1.7760    1.1860 c3        1 B66     -0.128100
     15 C10        -4.9070   -0.8490    3.4670 c3        1 B66      0.410300
     16 O10        -4.4210    0.1310    4.3840 oh        1 B66     -0.615800
     17 N9         -6.3440   -0.8220    3.2730 nh        1 B66     -0.753600
     18 C6         -7.2070   -1.0710    4.3410 ca        1 B66      0.178600
     19 C5         -8.5660   -0.6740    4.2400 ca        1 B66     -0.155000
     20 C1         -6.8060   -1.7820    5.4960 ca        1 B66     -0.194000
     21 C2         -7.7260   -2.0960    6.4880 ca        1 B66     -0.053000
     22 C3         -9.0680   -1.7100    6.3770 ca        1 B66     -0.013000
     23 C8         -9.9740   -2.0510    7.4160 cg        1 B66      0.220800
     24 N8        -10.7070   -2.3370    8.2730 n1        1 B66     -0.330800
     25 C4         -9.4760   -0.9940    5.2390 ca        1 B66     -0.084300
     26 C7        -10.9320   -0.5480    5.0780 c3        1 B66      0.685200
     27 F2        -11.1920    0.1440    3.9190 f         1 B66     -0.228633
     28 F3        -11.8390   -1.5780    5.0580 f         1 B66     -0.228633
     29 F1        -11.3780    0.2910    6.0690 f         1 B66     -0.228633
     30 H17        -0.6760    0.3850   -0.8990 ha        1 B66      0.159000
     31 H18         1.7720    0.9140   -1.0230 ha        1 B66      0.174000
     32 H20         2.0680    0.4720    3.2980 ha        1 B66      0.174000
     33 H19        -0.3560   -0.0510    3.4170 ha        1 B66      0.159000
     34 H13        -2.2240   -1.3240    2.9280 h1        1 B66      0.070700
     35 H13A       -2.5190    0.4880    3.1370 h1        1 B66      0.070700
     36 HO11       -4.1490    0.7740    0.7580 ho        1 B66      0.427000
     37 H12        -4.0350   -2.7250    1.6900 hc        1 B66      0.058033
     38 H12A       -5.4020   -1.8490    0.8730 hc        1 B66      0.058033
     39 H12B       -3.7010   -1.6380    0.2750 hc        1 B66      0.058033
     40 HN9        -6.6510   -0.1100    2.6390 hn        1 B66      0.437800
     41 H5         -8.9120   -0.1100    3.3570 ha        1 B66      0.165000
     42 H1         -5.7630   -2.1110    5.6210 ha        1 B66      0.140000
     43 H2         -7.3960   -2.6580    7.3780 ha        1 B66      0.154000
     44 H15        -4.6170   -1.8780    3.8400 h2        1 B66      0.058700
     45 H16        -4.8690    0.0070    5.2310 ho        1 B66      0.414000
@<TRIPOS>BOND
     1    1    2 ar  
     2    1    9 ar  
     3    1   30 1   
     4    2    3 ar  
     5    2   31 1   
     6    3    4 1   
     7    3    7 ar  
     8    4    5 1   
     9    4    6 1   
    10    7    8 ar  
    11    7   32 1   
    12    8    9 ar  
    13    8   33 1   
    14    9   10 1   
    15   10   11 1   
    16   11   12 1   
    17   11   34 1   
    18   11   35 1   
    19   12   13 1   
    20   12   14 1   
    21   12   15 1   
    22   13   36 1   
    23   14   37 1   
    24   14   38 1   
    25   14   39 1   
    26   15   16 1   
    27   15   17 1   
    28   15   44 1   
    29   16   45 1   
    30   17   18 1   
    31   17   40 1   
    32   18   19 ar  
    33   18   20 ar  
    34   19   25 ar  
    35   19   41 1   
    36   20   21 ar  
    37   20   42 1   
    38   21   22 ar  
    39   21   43 1   
    40   22   23 1   
    41   22   25 ar  
    42   23   24 3   
    43   25   26 1   
    44   26   27 1   
    45   26   28 1   
    46   26   29 1   
@<TRIPOS>SUBSTRUCTURE
     1 B66         1 TEMP              0 ****  ****    0 ROOT
