@<TRIPOS>MOLECULE
B66
   45    46     1     0     0
SMALL
bcc


@<TRIPOS>ATOM
      1 C17         0.0050    0.5570    0.1310 ca        1 B66     -0.193000
      2 C18         1.3830    0.7000    0.0740 ca        1 B66     -0.031000
      3 C21         2.1620    0.3710    1.1990 ca        1 B66     -0.213200
      4 N19         3.6370    0.5230    1.1370 no        1 B66      0.319200
      5 O20         4.1380    0.9280    0.1220 o         1 B66     -0.209000
      6 O19         4.2920    0.2370    2.1030 o         1 B66     -0.209000
      7 C20         1.5620   -0.1000    2.3770 ca        1 B66     -0.031000
      8 C19         0.1790   -0.2440    2.4350 ca        1 B66     -0.193000
      9 C16        -0.5970    0.0840    1.3150 ca        1 B66      0.171100
     10 O14        -1.9680   -0.0230    1.2570 os        1 B66     -0.336900
     11 C13        -2.6180   -0.4790    2.4520 c3        1 B66      0.093400
     12 C11        -4.1250   -0.4440    2.1380 c3        1 B66      0.125800
     13 O11        -4.5060    0.8580    1.7120 oh        1 B66     -0.612800
     14 C12        -4.4810   -1.4910    1.0990 c3        1 B66     -0.121100
     15 C10        -4.8860   -0.6660    3.4890 c3        1 B66      0.411300
     16 O10        -4.5010    0.3440    4.4130 oh        1 B66     -0.619800
     17 N9         -6.3160   -0.7580    3.2740 nh        1 B66     -0.762600
     18 C6         -7.1840   -1.0020    4.3420 ca        1 B66      0.181600
     19 C5         -8.5830   -0.9330    4.1160 ca        1 B66     -0.155000
     20 C1         -6.7320   -1.3910    5.6240 ca        1 B66     -0.165000
     21 C2         -7.6390   -1.7290    6.6190 ca        1 B66     -0.061000
     22 C3         -9.0210   -1.6790    6.3840 ca        1 B66     -0.011000
     23 C8         -9.9130   -2.0350    7.4300 cg        1 B66      0.222800
     24 N8        -10.6330   -2.3300    8.2940 n1        1 B66     -0.334800
     25 C4         -9.4800   -1.2710    5.1220 ca        1 B66     -0.091300
     26 C7        -10.9800   -1.1880    4.8250 c3        1 B66      0.685200
     27 F2        -11.2890   -0.7420    3.5610 f         1 B66     -0.230300
     28 F3        -11.6420   -2.3870    4.9200 f         1 B66     -0.230300
     29 F1        -11.6760   -0.3400    5.6500 f         1 B66     -0.230300
     30 H17        -0.6250    0.8070   -0.7360 ha        1 B66      0.159000
     31 H18         1.8670    1.0690   -0.8480 ha        1 B66      0.175000
     32 H20         2.1830   -0.3540    3.2540 ha        1 B66      0.175000
     33 H19        -0.2830   -0.6120    3.3620 ha        1 B66      0.159000
     34 H13        -2.3820    0.2150    3.3010 h1        1 B66      0.068200
     35 H13A       -2.2900   -1.5240    2.6860 h1        1 B66      0.068200
     36 HO11       -4.0060    1.0540    0.9080 ho        1 B66      0.434000
     37 H12        -4.4420   -2.5100    1.5510 hc        1 B66      0.058367
     38 H12A       -5.5080   -1.3110    0.6990 hc        1 B66      0.058367
     39 H12B       -3.7550   -1.4420    0.2500 hc        1 B66      0.058367
     40 HN9        -6.6680   -0.1290    2.5820 hn        1 B66      0.424800
     41 H5         -8.9700   -0.6160    3.1330 ha        1 B66      0.160000
     42 H1         -5.6540   -1.4070    5.8510 ha        1 B66      0.157000
     43 H2         -7.2690   -2.0340    7.6110 ha        1 B66      0.154000
     44 H15        -4.5240   -1.6280    3.9620 h2        1 B66      0.096700
     45 H16        -4.6490    1.2100    4.0070 ho        1 B66      0.427000
@<TRIPOS>BOND
     1    1    2 ar  
     2    1    9 ar  
     3    1   30 1   
     4    2    3 ar  
     5    2   31 1   
     6    3    4 1   
     7    3    7 ar  
     8    4    5 1   
     9    4    6 1   
    10    7    8 ar  
    11    7   32 1   
    12    8    9 ar  
    13    8   33 1   
    14    9   10 1   
    15   10   11 1   
    16   11   12 1   
    17   11   34 1   
    18   11   35 1   
    19   12   13 1   
    20   12   14 1   
    21   12   15 1   
    22   13   36 1   
    23   14   37 1   
    24   14   38 1   
    25   14   39 1   
    26   15   16 1   
    27   15   17 1   
    28   15   44 1   
    29   16   45 1   
    30   17   18 1   
    31   17   40 1   
    32   18   19 ar  
    33   18   20 ar  
    34   19   25 ar  
    35   19   41 1   
    36   20   21 ar  
    37   20   42 1   
    38   21   22 ar  
    39   21   43 1   
    40   22   23 1   
    41   22   25 ar  
    42   23   24 3   
    43   25   26 1   
    44   26   27 1   
    45   26   28 1   
    46   26   29 1   
@<TRIPOS>SUBSTRUCTURE
     1 B66         1 TEMP              0 ****  ****    0 ROOT
