@<TRIPOS>MOLECULE
B66
   45    46     1     0     0
SMALL
bcc


@<TRIPOS>ATOM
      1 C17        -0.0690    0.2880    0.0060 ca        1 B66     -0.193500
      2 C18         1.2870    0.5700   -0.0500 ca        1 B66     -0.031000
      3 C21         2.0430    0.5890    1.1370 ca        1 B66     -0.215200
      4 N19         3.4940    0.8890    1.0750 no        1 B66      0.319200
      5 O20         3.9980    1.1130    0.0070 o         1 B66     -0.211000
      6 O19         4.1300    0.9000    2.0960 o         1 B66     -0.211000
      7 C20         1.4400    0.3290    2.3770 ca        1 B66     -0.031000
      8 C19         0.0790    0.0450    2.4360 ca        1 B66     -0.193500
      9 C16        -0.6740    0.0250    1.2530 ca        1 B66      0.174100
     10 O14        -2.0200   -0.2500    1.1900 os        1 B66     -0.336900
     11 C13        -2.6750   -0.4930    2.4450 c3        1 B66      0.097400
     12 C11        -4.1650   -0.6800    2.1000 c3        1 B66      0.166800
     13 O11        -4.6820    0.5110    1.5250 oh        1 B66     -0.592800
     14 C12        -4.3620   -1.8630    1.1640 c3        1 B66     -0.128100
     15 C10        -4.9420   -0.9260    3.4390 c3        1 B66      0.410300
     16 O10        -4.4540    0.0530    4.3560 oh        1 B66     -0.615800
     17 N9         -6.3780   -0.8910    3.2380 nu        1 B66     -0.753600
     18 C6         -7.2480   -1.1310    4.3020 ca        1 B66      0.178600
     19 C5         -8.6040   -0.7250    4.1940 ca        1 B66     -0.155000
     20 C1         -6.8580   -1.8420    5.4610 ca        1 B66     -0.194000
     21 C2         -7.7840   -2.1480    6.4490 ca        1 B66     -0.053000
     22 C3         -9.1240   -1.7520    6.3300 ca        1 B66     -0.013000
     23 C8        -10.0370   -2.0850    7.3650 cg        1 B66      0.220800
     24 N8        -10.7760   -2.3640    8.2190 n1        1 B66     -0.330800
     25 C4         -9.5210   -1.0370    5.1890 ca        1 B66     -0.084300
     26 C7        -10.9730   -0.5810    5.0200 c3        1 B66      0.685200
     27 F2        -11.2230    0.1090    3.8570 f         1 B66     -0.228633
     28 F3        -11.8870   -1.6040    4.9980 f         1 B66     -0.228633
     29 F1        -11.4180    0.2650    6.0060 f         1 B66     -0.228633
     30 H17        -0.6800    0.2670   -0.9080 ha        1 B66      0.159000
     31 H18         1.7720    0.7780   -1.0200 ha        1 B66      0.174000
     32 H20         2.0420    0.3480    3.3030 ha        1 B66      0.174000
     33 H19        -0.3860   -0.1570    3.4110 ha        1 B66      0.159000
     34 H13        -2.5450    0.3950    3.1180 h1        1 B66      0.070700
     35 H13A       -2.2600   -1.4190    2.9150 h1        1 B66      0.070700
     36 HO11       -4.1600    0.6860    0.7310 ho        1 B66      0.427000
     37 H12        -4.0720   -2.8120    1.6710 hc        1 B66      0.058033
     38 H12A       -3.7250   -1.7310    0.2560 hc        1 B66      0.058033
     39 H12B       -5.4300   -1.9290    0.8460 hc        1 B66      0.058033
     40 HN9        -6.6770   -0.1790    2.6000 hn        1 B66      0.437800
     41 H5         -8.9410   -0.1600    3.3070 ha        1 B66      0.165000
     42 H1         -5.8170   -2.1780    5.5920 ha        1 B66      0.140000
     43 H2         -7.4630   -2.7090    7.3410 ha        1 B66      0.154000
     44 H15        -4.6600   -1.9560    3.8170 h2        1 B66      0.058700
     45 H16        -4.9080   -0.0670    5.2010 ho        1 B66      0.414000
@<TRIPOS>BOND
     1    1    2 ar  
     2    1    9 ar  
     3    1   30 1   
     4    2    3 ar  
     5    2   31 1   
     6    3    4 1   
     7    3    7 ar  
     8    4    5 1   
     9    4    6 1   
    10    7    8 ar  
    11    7   32 1   
    12    8    9 ar  
    13    8   33 1   
    14    9   10 1   
    15   10   11 1   
    16   11   12 1   
    17   11   34 1   
    18   11   35 1   
    19   12   13 1   
    20   12   14 1   
    21   12   15 1   
    22   13   36 1   
    23   14   37 1   
    24   14   38 1   
    25   14   39 1   
    26   15   16 1   
    27   15   17 1   
    28   15   44 1   
    29   16   45 1   
    30   17   18 1   
    31   17   40 1   
    32   18   19 ar  
    33   18   20 ar  
    34   19   25 ar  
    35   19   41 1   
    36   20   21 ar  
    37   20   42 1   
    38   21   22 ar  
    39   21   43 1   
    40   22   23 1   
    41   22   25 ar  
    42   23   24 3   
    43   25   26 1   
    44   26   27 1   
    45   26   28 1   
    46   26   29 1   
@<TRIPOS>SUBSTRUCTURE
     1 B66         1 TEMP              0 ****  ****    0 ROOT
