@<TRIPOS>MOLECULE
B67
   42    43     1     0     0
SMALL
bcc


@<TRIPOS>ATOM
      1 F1         -5.3340    2.7180   -0.2620 f         1 B67     -0.221967
      2 C7         -5.8530    1.5400    0.2260 c3        1 B67      0.695200
      3 F2         -6.2830    1.8680    1.4850 f         1 B67     -0.221967
      4 F3         -6.9830    1.3460   -0.5230 f         1 B67     -0.221967
      5 C4         -4.8680    0.3630    0.1880 ca        1 B67     -0.076300
      6 C5         -3.5920    0.5860   -0.3130 ca        1 B67     -0.159000
      7 C3         -5.2250   -0.9180    0.6450 ca        1 B67     -0.173200
      8 N8         -6.5780   -1.2100    1.1910 no        1 B67      0.317200
      9 O2         -6.8120   -2.3300    1.5600 o         1 B67     -0.194500
     10 O1         -7.3930   -0.3320    1.2500 o         1 B67     -0.194500
     11 C2         -4.2860   -1.9610    0.5900 ca        1 B67     -0.043000
     12 C1         -3.0100   -1.7410    0.0870 ca        1 B67     -0.154000
     13 C6         -2.6350   -0.4620   -0.3770 ca        1 B67      0.114600
     14 N9         -1.3790   -0.1750   -0.9180 n         1 B67     -0.450100
     15 C10        -0.2650   -1.0020   -0.9270 c         1 B67      0.678100
     16 O10        -0.2610   -2.1620   -0.4830 o         1 B67     -0.577100
     17 C11         1.0090   -0.4360   -1.5980 c3        1 B67      0.078800
     18 O11         1.0830    0.9530   -1.3060 oh        1 B67     -0.607800
     19 C12         0.9200   -0.6700   -3.0990 c3        1 B67     -0.129100
     20 C13         2.2240   -1.1690   -1.0000 c3        1 B67      0.106400
     21 O14         3.3950   -0.4830   -1.4820 os        1 B67     -0.324900
     22 C16         4.2780   -0.0750   -0.5040 ca        1 B67      0.061100
     23 C17         4.9230   -0.9940    0.3470 ca        1 B67      0.106900
     24 F17         4.5980   -2.3030    0.3140 f         1 B67     -0.101900
     25 C18         5.9160   -0.5380    1.2510 ca        1 B67      0.089400
     26 F18         6.5350   -1.4100    2.0720 f         1 B67     -0.093900
     27 C19         6.2630    0.8360    1.2840 ca        1 B67      0.097900
     28 F19         7.2140    1.2690    2.1360 f         1 B67     -0.092900
     29 C20         5.6120    1.7540    0.4240 ca        1 B67      0.089400
     30 F20         5.9430    3.0610    0.4580 f         1 B67     -0.093900
     31 C21         4.6090    1.2970   -0.4650 ca        1 B67      0.106900
     32 F21         3.9770    2.1680   -1.2780 f         1 B67     -0.101900
     33 H5         -3.3300    1.6000   -0.6640 ha        1 B67      0.167000
     34 H2         -4.5630   -2.9700    0.9490 ha        1 B67      0.183000
     35 H1         -2.2980   -2.5850    0.0600 ha        1 B67      0.191000
     36 HN9        -1.2280    0.7710   -1.2090 hn        1 B67      0.346500
     37 HO11        1.8990    1.2810   -1.7150 ho        1 B67      0.440000
     38 H12         0.1190   -0.0320   -3.5420 hc        1 B67      0.063700
     39 H12A        1.8970   -0.4060   -3.5730 hc        1 B67      0.063700
     40 H12B        0.6950   -1.7430   -3.3090 hc        1 B67      0.063700
     41 H13         2.1750   -1.1790    0.1170 h1        1 B67      0.086200
     42 H13A        2.2870   -2.2180   -1.3930 h1        1 B67      0.086200
@<TRIPOS>BOND
     1    1    2 1   
     2    2    3 1   
     3    2    4 1   
     4    2    5 1   
     5    5    6 ar  
     6    5    7 ar  
     7    6   13 ar  
     8    6   33 1   
     9    7    8 1   
    10    7   11 ar  
    11    8    9 1   
    12    8   10 1   
    13   11   12 ar  
    14   11   34 1   
    15   12   13 ar  
    16   12   35 1   
    17   13   14 1   
    18   14   15 1   
    19   14   36 1   
    20   15   16 2   
    21   15   17 1   
    22   17   18 1   
    23   17   19 1   
    24   17   20 1   
    25   18   37 1   
    26   19   38 1   
    27   19   39 1   
    28   19   40 1   
    29   20   21 1   
    30   20   41 1   
    31   20   42 1   
    32   21   22 1   
    33   22   23 ar  
    34   22   31 ar  
    35   23   24 1   
    36   23   25 ar  
    37   25   26 1   
    38   25   27 ar  
    39   27   28 1   
    40   27   29 ar  
    41   29   30 1   
    42   29   31 ar  
    43   31   32 1   
@<TRIPOS>SUBSTRUCTURE
     1 B67         1 TEMP              0 ****  ****    0 ROOT
