@<TRIPOS>MOLECULE
B67
   42    43     1     0     0
SMALL
bcc


@<TRIPOS>ATOM
      1 F1         -0.1000    0.4620    0.5170 f         1 B67     -0.221967
      2 C7          1.2480    0.2800    0.3040 c3        1 B67      0.695200
      3 F2          1.7620    0.1340    1.5650 f         1 B67     -0.221967
      4 F3          1.3230   -0.9560   -0.2810 f         1 B67     -0.221967
      5 C4          1.9060    1.4000   -0.5140 ca        1 B67     -0.076300
      6 C5          1.1130    2.4540   -0.9460 ca        1 B67     -0.159000
      7 C3          3.2770    1.3810   -0.8300 ca        1 B67     -0.173200
      8 N8          4.1700    0.2750   -0.3910 no        1 B67      0.317200
      9 O2          5.3310    0.3250   -0.7000 o         1 B67     -0.194500
     10 O1          3.7180   -0.6300    0.2540 o         1 B67     -0.194500
     11 C2          3.8300    2.4310   -1.5800 ca        1 B67     -0.043000
     12 C1          3.0390    3.4860   -2.0160 ca        1 B67     -0.154000
     13 C6          1.6610    3.5200   -1.7090 ca        1 B67      0.114600
     14 N9          0.8020    4.5360   -2.1350 ns        1 B67     -0.450100
     15 C10         1.1570    5.7300   -2.7460 c         1 B67      0.678100
     16 O10         2.3230    6.0330   -3.0460 o         1 B67     -0.577100
     17 C11        -0.0010    6.6850   -3.1200 c3        1 B67      0.078800
     18 O11        -0.9880    6.6060   -2.1000 oh        1 B67     -0.607800
     19 C12        -0.5760    6.2590   -4.4630 c3        1 B67     -0.129100
     20 C13         0.5690    8.1140   -3.1970 c3        1 B67      0.106400
     21 O14        -0.5580    8.9990   -3.3370 os        1 B67     -0.324900
     22 C16        -0.6150   10.0230   -2.4140 ca        1 B67      0.061100
     23 C17         0.3950   11.0020   -2.3250 ca        1 B67      0.106900
     24 F17         1.5200   10.8930   -3.0610 f         1 B67     -0.101900
     25 C18         0.2300   12.1040   -1.4490 ca        1 B67      0.089400
     26 F18         1.1940   13.0420   -1.3540 f         1 B67     -0.093900
     27 C19        -0.9530   12.2240   -0.6790 ca        1 B67      0.097900
     28 F19        -1.1150   13.2770    0.1470 f         1 B67     -0.092900
     29 C20        -1.9660   11.2380   -0.7750 ca        1 B67      0.089400
     30 F20        -3.0910   11.3510   -0.0400 f         1 B67     -0.093900
     31 C21        -1.7890   10.1280   -1.6380 ca        1 B67      0.106900
     32 F21        -2.7450    9.1800   -1.7250 f         1 B67     -0.101900
     33 H5          0.0400    2.4520   -0.6860 ha        1 B67      0.167000
     34 H2          4.9070    2.4200   -1.8300 ha        1 B67      0.183000
     35 H1          3.5090    4.2950   -2.6030 ha        1 B67      0.191000
     36 HN9        -0.1550    4.4550   -1.8500 hn        1 B67      0.346500
     37 HO11       -1.6900    7.2290   -2.3410 ho        1 B67      0.440000
     38 H12         0.2400    6.1640   -5.2190 hc        1 B67      0.063700
     39 H12A       -1.1030    5.2800   -4.3630 hc        1 B67      0.063700
     40 H12B       -1.3060    7.0290   -4.8140 hc        1 B67      0.063700
     41 H13         1.1770    8.3500   -2.2880 h1        1 B67      0.086200
     42 H13A        1.1910    8.2430   -4.1210 h1        1 B67      0.086200
@<TRIPOS>BOND
     1    1    2 1   
     2    2    3 1   
     3    2    4 1   
     4    2    5 1   
     5    5    6 ar  
     6    5    7 ar  
     7    6   13 ar  
     8    6   33 1   
     9    7    8 1   
    10    7   11 ar  
    11    8    9 1   
    12    8   10 1   
    13   11   12 ar  
    14   11   34 1   
    15   12   13 ar  
    16   12   35 1   
    17   13   14 1   
    18   14   15 1   
    19   14   36 1   
    20   15   16 2   
    21   15   17 1   
    22   17   18 1   
    23   17   19 1   
    24   17   20 1   
    25   18   37 1   
    26   19   38 1   
    27   19   39 1   
    28   19   40 1   
    29   20   21 1   
    30   20   41 1   
    31   20   42 1   
    32   21   22 1   
    33   22   23 ar  
    34   22   31 ar  
    35   23   24 1   
    36   23   25 ar  
    37   25   26 1   
    38   25   27 ar  
    39   27   28 1   
    40   27   29 ar  
    41   29   30 1   
    42   29   31 ar  
    43   31   32 1   
@<TRIPOS>SUBSTRUCTURE
     1 B67         1 TEMP              0 ****  ****    0 ROOT
