@<TRIPOS>MOLECULE
B67
   42    43     1     0     0
SMALL
bcc


@<TRIPOS>ATOM
      1 F1         -0.1050    0.4550    0.5040 f         1 B67     -0.221967
      2 C7          1.2430    0.2740    0.2940 c3        1 B67      0.695200
      3 F2          1.7540    0.1250    1.5560 f         1 B67     -0.221967
      4 F3          1.3190   -0.9610   -0.2940 f         1 B67     -0.221967
      5 C4          1.9030    1.3960   -0.5200 ca        1 B67     -0.076300
      6 C5          1.1110    2.4510   -0.9510 ca        1 B67     -0.159000
      7 C3          3.2740    1.3770   -0.8320 ca        1 B67     -0.173200
      8 N8          4.1660    0.2710   -0.3940 no        1 B67      0.317200
      9 O2          5.3280    0.3220   -0.7010 o         1 B67     -0.194500
     10 O1          3.7120   -0.6360    0.2470 o         1 B67     -0.194500
     11 C2          3.8290    2.4290   -1.5790 ca        1 B67     -0.043000
     12 C1          3.0390    3.4850   -2.0140 ca        1 B67     -0.154000
     13 C6          1.6610    3.5190   -1.7100 ca        1 B67      0.114600
     14 N9          0.8020    4.5360   -2.1350 n         1 B67     -0.450100
     15 C10         1.1590    5.7320   -2.7430 c         1 B67      0.678100
     16 O10         2.3260    6.0350   -3.0400 o         1 B67     -0.577100
     17 C11         0.0010    6.6870   -3.1180 c3        1 B67      0.079800
     18 O11        -0.9870    6.6070   -2.0990 oh        1 B67     -0.607800
     19 C12        -0.5720    6.2620   -4.4630 c3        1 B67     -0.129100
     20 C13         0.5720    8.1160   -3.1920 c3        1 B67      0.106400
     21 O14        -0.5550    9.0010   -3.3330 os        1 B67     -0.324900
     22 C16        -0.6140   10.0250   -2.4110 ca        1 B67      0.060100
     23 C17         0.3970   11.0040   -2.3210 ca        1 B67      0.106900
     24 F17         1.5230   10.8950   -3.0550 f         1 B67     -0.101900
     25 C18         0.2300   12.1070   -1.4450 ca        1 B67      0.089400
     26 F18         1.1940   13.0450   -1.3490 f         1 B67     -0.093900
     27 C19        -0.9540   12.2260   -0.6760 ca        1 B67      0.097900
     28 F19        -1.1170   13.2790    0.1500 f         1 B67     -0.092900
     29 C20        -1.9660   11.2390   -0.7730 ca        1 B67      0.089400
     30 F20        -3.0920   11.3530   -0.0400 f         1 B67     -0.093900
     31 C21        -1.7880   10.1300   -1.6360 ca        1 B67      0.106900
     32 F21        -2.7440    9.1810   -1.7250 f         1 B67     -0.101900
     33 H5          0.0370    2.4490   -0.6930 ha        1 B67      0.167000
     34 H2          4.9070    2.4190   -1.8260 ha        1 B67      0.183000
     35 H1          3.5100    4.2960   -2.5980 ha        1 B67      0.191000
     36 HN9        -0.1550    4.4540   -1.8520 hn        1 B67      0.346500
     37 HO11       -1.6890    7.2300   -2.3410 ho        1 B67      0.440000
     38 H12        -1.0990    5.2840   -4.3640 hc        1 B67      0.063700
     39 H12A       -1.3010    7.0330   -4.8130 hc        1 B67      0.063700
     40 H12B        0.2450    6.1680   -5.2170 hc        1 B67      0.063700
     41 H13         1.1960    8.2450   -4.1150 h1        1 B67      0.086200
     42 H13A        1.1780    8.3510   -2.2820 h1        1 B67      0.086200
@<TRIPOS>BOND
     1    1    2 1   
     2    2    3 1   
     3    2    4 1   
     4    2    5 1   
     5    5    6 ar  
     6    5    7 ar  
     7    6   13 ar  
     8    6   33 1   
     9    7    8 1   
    10    7   11 ar  
    11    8    9 1   
    12    8   10 1   
    13   11   12 ar  
    14   11   34 1   
    15   12   13 ar  
    16   12   35 1   
    17   13   14 1   
    18   14   15 1   
    19   14   36 1   
    20   15   16 2   
    21   15   17 1   
    22   17   18 1   
    23   17   19 1   
    24   17   20 1   
    25   18   37 1   
    26   19   38 1   
    27   19   39 1   
    28   19   40 1   
    29   20   21 1   
    30   20   41 1   
    31   20   42 1   
    32   21   22 1   
    33   22   23 ar  
    34   22   31 ar  
    35   23   24 1   
    36   23   25 ar  
    37   25   26 1   
    38   25   27 ar  
    39   27   28 1   
    40   27   29 ar  
    41   29   30 1   
    42   29   31 ar  
    43   31   32 1   
@<TRIPOS>SUBSTRUCTURE
     1 B67         1 TEMP              0 ****  ****    0 ROOT
