@<TRIPOS>MOLECULE
B67
   42    39     1     0     0
SMALL
bcc


@<TRIPOS>ATOM
      1 F1         -6.0350    1.5640   -3.1370 f         1 B67     -0.150667
      2 C7         -5.4220    1.9430   -2.0090 c3        1 B67      0.474000
      3 F2         -6.3400    2.2720   -1.0910 f         1 B67     -0.150667
      4 F3         -4.6410    3.0020   -2.2590 f         1 B67     -0.150667
      5 C4         -4.5750    0.8030   -1.4890 c2        1 B67     -0.069000
      6 C5         -3.2070    0.8000   -1.7140 c1        1 B67     -0.159000
      7 C3         -5.1500   -0.1850   -0.7040 c2        1 B67     -0.128000
      8 N8         -6.5590   -0.2310   -0.5440 no        1 B67      0.572000
      9 O2         -7.2660    0.5850   -1.1170 o         1 B67     -0.344500
     10 O1         -7.1290   -1.2230    0.2020 o         1 B67     -0.344500
     11 C2         -4.3580   -1.1750   -0.1460 c1        1 B67     -0.043000
     12 C1         -2.9910   -1.1780   -0.3710 c1        1 B67     -0.154000
     13 C6         -2.4160   -0.1910   -1.1550 c1        1 B67      0.122000
     14 N9         -1.0080   -0.1420   -1.3120 n         1 B67     -0.304000
     15 C10        -0.1730   -0.8940   -0.4460 c2        1 B67      0.322000
     16 O10        -0.6660   -1.5790    0.4290 o         1 B67     -0.338000
     17 C11         1.3210   -0.9250   -0.6760 c3        1 B67      0.057000
     18 O11         1.6440   -0.0960   -1.7640 oh        1 B67     -0.335000
     19 C12         1.7550   -2.3410   -0.9750 c3        1 B67     -0.247000
     20 C13         2.0330   -0.4300    0.5640 c3        1 B67     -0.044000
     21 O14         3.4270   -0.5280    0.3750 os        1 B67     -0.208000
     22 C16         4.1810    0.1910    1.3180 c2        1 B67      0.016000
     23 C17         4.3770   -0.3290    2.5870 c2        1 B67      0.072000
     24 F17         3.7980   -1.4860    2.9340 f         1 B67     -0.067000
     25 C18         5.2010    0.3300    3.4860 c1        1 B67      0.054500
     26 F18         5.3900   -0.1730    4.7130 f         1 B67     -0.059000
     27 C19         5.8270    1.5090    3.1170 c2        1 B67      0.063000
     28 F19         6.6620    2.1180    3.9680 f         1 B67     -0.058000
     29 C20         5.6300    2.0290    1.8470 c1        1 B67      0.054500
     30 F20         6.2670    3.1480    1.4770 f         1 B67     -0.059000
     31 C21         4.8070    1.3710    0.9480 c2        1 B67      0.072000
     32 F21         4.6390    1.8590   -0.2870 f         1 B67     -0.067000
     33 H5         -2.8020    1.4950   -2.2650 ha        1 B67      0.167000
     34 H2         -4.7630   -1.8710    0.4050 ha        1 B67      0.183000
     35 H1         -2.4340   -1.8750    0.0210 ha        1 B67      0.191000
     36 HN9        -0.6370    0.4270   -1.9180 hn        1 B67      0.260000
     37 HO11        2.5070   -0.1840   -1.9580 ho        1 B67      0.239000
     38 H12         1.5510   -2.9140   -0.2070 hc        1 B67      0.103000
     39 H12A        2.7190   -2.3570   -1.1480 hc        1 B67      0.103000
     40 H12B        1.2760   -2.6690   -1.7650 hc        1 B67      0.103000
     41 H13         1.7910    0.5050    0.7290 h1        1 B67      0.125500
     42 H13A        1.7690   -0.9770    1.3330 h1        1 B67      0.125500
@<TRIPOS>BOND
     1    1    2 1   
     2    2    3 1   
     3    2    4 1   
     4    2    5 1   
     5    5    6 1   
     6    5    7 1   
     7    6   33 1   
     8    7    8 1   
     9    7   11 1   
    10    8    9 1   
    11    8   10 1   
    12   11   34 1   
    13   12   13 1   
    14   12   35 1   
    15   13   14 1   
    16   14   15 1   
    17   14   36 1   
    18   15   16 1   
    19   15   17 1   
    20   17   18 1   
    21   17   19 1   
    22   17   20 1   
    23   18   37 1   
    24   19   38 1   
    25   19   39 1   
    26   19   40 1   
    27   20   21 1   
    28   20   41 1   
    29   20   42 1   
    30   21   22 1   
    31   22   23 1   
    32   22   31 1   
    33   23   24 1   
    34   23   25 1   
    35   25   27 1   
    36   27   28 1   
    37   27   29 1   
    38   29   31 1   
    39   31   32 1   
@<TRIPOS>SUBSTRUCTURE
     1 B67         1 TEMP              0 ****  ****    0 ROOT
