@<TRIPOS>MOLECULE
B67
   42    43     1     0     0
SMALL
bcc


@<TRIPOS>ATOM
      1 F1         -0.0700    0.4760    0.5600 f         1 B67     -0.221967
      2 C7          1.2740    0.2920    0.3300 c3        1 B67      0.695200
      3 F2          1.8060    0.1530    1.5850 f         1 B67     -0.221967
      4 F3          1.3410   -0.9470   -0.2490 f         1 B67     -0.221967
      5 C4          1.9220    1.4070   -0.5040 ca        1 B67     -0.076300
      6 C5          1.1240    2.4600   -0.9310 ca        1 B67     -0.159000
      7 C3          3.2880    1.3850   -0.8380 ca        1 B67     -0.173200
      8 N8          4.1860    0.2810   -0.4050 no        1 B67      0.317200
      9 O2          5.3430    0.3290   -0.7310 o         1 B67     -0.194500
     10 O1          3.7430   -0.6190    0.2510 o         1 B67     -0.194500
     11 C2          3.8310    2.4300   -1.6020 ca        1 B67     -0.043000
     12 C1          3.0350    3.4830   -2.0330 ca        1 B67     -0.154000
     13 C6          1.6620    3.5210   -1.7070 ca        1 B67      0.114600
     14 N9          0.7970    4.5340   -2.1270 n         1 B67     -0.450100
     15 C10         1.1450    5.7250   -2.7500 c         1 B67      0.678100
     16 O10         2.3070    6.0250   -3.0670 o         1 B67     -0.577100
     17 C11        -0.0180    6.6780   -3.1140 c3        1 B67      0.078800
     18 O11        -0.9910    6.6060   -2.0810 oh        1 B67     -0.607800
     19 C12        -0.6100    6.2450   -4.4480 c3        1 B67     -0.129100
     20 C13         0.5520    8.1070   -3.2060 c3        1 B67      0.106400
     21 O14        -0.5760    8.9910   -3.3370 os        1 B67     -0.324900
     22 C16        -0.6220   10.0200   -2.4190 ca        1 B67      0.061100
     23 C17         0.3900   10.9990   -2.3460 ca        1 B67      0.106900
     24 F17         1.5060   10.8850   -3.0960 f         1 B67     -0.101900
     25 C18         0.2360   12.1060   -1.4740 ca        1 B67      0.089400
     26 F18         1.2010   13.0440   -1.3950 f         1 B67     -0.093900
     27 C19        -0.9380   12.2290   -0.6900 ca        1 B67      0.097900
     28 F19        -1.0900   13.2870    0.1330 f         1 B67     -0.092900
     29 C20        -1.9530   11.2430   -0.7690 ca        1 B67      0.089400
     30 F20        -3.0680   11.3610   -0.0210 f         1 B67     -0.093900
     31 C21        -1.7860   10.1300   -1.6290 ca        1 B67      0.106900
     32 F21        -2.7440    9.1810   -1.7000 f         1 B67     -0.101900
     33 H5          0.0540    2.4600   -0.6550 ha        1 B67      0.167000
     34 H2          4.9060    2.4170   -1.8670 ha        1 B67      0.183000
     35 H1          3.4980    4.2890   -2.6310 ha        1 B67      0.191000
     36 HN9        -0.1550    4.4550   -1.8290 hn        1 B67      0.346500
     37 HO11       -1.6970    7.2270   -2.3170 ho        1 B67      0.440000
     38 H12        -1.3440    7.0140   -4.7930 hc        1 B67      0.063700
     39 H12A        0.1960    6.1460   -5.2130 hc        1 B67      0.063700
     40 H12B       -1.1360    5.2670   -4.3350 hc        1 B67      0.063700
     41 H13         1.1620    8.2300   -4.1390 h1        1 B67      0.086200
     42 H13A        1.1720    8.3480   -2.3070 h1        1 B67      0.086200
@<TRIPOS>BOND
     1    1    2 1   
     2    2    3 1   
     3    2    4 1   
     4    2    5 1   
     5    5    6 ar  
     6    5    7 ar  
     7    6   13 ar  
     8    6   33 1   
     9    7    8 1   
    10    7   11 ar  
    11    8    9 1   
    12    8   10 1   
    13   11   12 ar  
    14   11   34 1   
    15   12   13 ar  
    16   12   35 1   
    17   13   14 1   
    18   14   15 1   
    19   14   36 1   
    20   15   16 2   
    21   15   17 1   
    22   17   18 1   
    23   17   19 1   
    24   17   20 1   
    25   18   37 1   
    26   19   38 1   
    27   19   39 1   
    28   19   40 1   
    29   20   21 1   
    30   20   41 1   
    31   20   42 1   
    32   21   22 1   
    33   22   23 ar  
    34   22   31 ar  
    35   23   24 1   
    36   23   25 ar  
    37   25   26 1   
    38   25   27 ar  
    39   27   28 1   
    40   27   29 ar  
    41   29   30 1   
    42   29   31 ar  
    43   31   32 1   
@<TRIPOS>SUBSTRUCTURE
     1 B67         1 TEMP              0 ****  ****    0 ROOT
