@<TRIPOS>MOLECULE
B68
   49    50     1     0     0
SMALL
bcc


@<TRIPOS>ATOM
      1 C24        10.5450    1.7200   -0.9200 c3        1 B68     -0.179100
      2 C23         9.3510    0.7940   -0.8630 c         1 B68      0.666100
      3 O23         9.4260   -0.3750   -1.2820 o         1 B68     -0.588100
      4 N22         8.1920    1.3340   -0.3190 n         1 B68     -0.474100
      5 C19         6.9470    0.7060   -0.1500 ca        1 B68      0.049600
      6 C18         6.7070   -0.6420   -0.5030 ca        1 B68     -0.140500
      7 C17         5.4540   -1.2080   -0.3140 ca        1 B68     -0.146000
      8 C20         5.8850    1.4580    0.4040 ca        1 B68     -0.140500
      9 C21         4.6300    0.8910    0.5980 ca        1 B68     -0.146000
     10 C16         4.4140   -0.4410    0.2370 ca        1 B68      0.090100
     11 O14         3.2150   -1.1180    0.4060 os        1 B68     -0.350900
     12 C13         2.0940   -0.3020    0.7590 c3        1 B68      0.107400
     13 C11         0.8730   -1.2380    0.6850 c3        1 B68      0.094800
     14 O11         0.7760   -1.8190   -0.6080 oh        1 B68     -0.609800
     15 C12         0.9430   -2.3190    1.7550 c3        1 B68     -0.127100
     16 C10        -0.3910   -0.3800    0.9290 c         1 B68      0.678100
     17 O10        -0.3180    0.6370    1.6370 o         1 B68     -0.580100
     18 N9         -1.5760   -0.8460    0.3740 n         1 B68     -0.451100
     19 C6         -2.8370   -0.2520    0.4570 ca        1 B68      0.117600
     20 C5         -3.8890   -0.7990   -0.3260 ca        1 B68     -0.160000
     21 C1         -3.1270    0.8480    1.2930 ca        1 B68     -0.156000
     22 C2         -4.4110    1.3740    1.3440 ca        1 B68     -0.043000
     23 C3         -5.4440    0.8240    0.5680 ca        1 B68     -0.175200
     24 N8         -6.8000    1.4250    0.6630 no        1 B68      0.317200
     25 O1         -6.9570    2.3600    1.4030 o         1 B68     -0.196000
     26 O2         -7.6960    0.9700    0.0080 o         1 B68     -0.196000
     27 C4         -5.1720   -0.2720   -0.2710 ca        1 B68     -0.076300
     28 C7         -6.2620   -0.9140   -1.1420 c3        1 B68      0.695200
     29 F2         -5.8190   -1.9740   -1.8990 f         1 B68     -0.222300
     30 F1         -7.3100   -1.4350   -0.4300 f         1 B68     -0.222300
     31 F3         -6.8150   -0.0620   -2.0620 f         1 B68     -0.222300
     32 H24        10.3190    2.6150   -1.5490 hc        1 B68      0.069700
     33 H24A       10.8330    2.0550    0.1050 hc        1 B68      0.069700
     34 H24B       11.4020    1.1650   -1.3740 hc        1 B68      0.069700
     35 HN22        8.2360    2.2810   -0.0170 hn        1 B68      0.315500
     36 H18         7.5100   -1.2620   -0.9360 ha        1 B68      0.156000
     37 H17         5.2700   -2.2560   -0.5890 ha        1 B68      0.146500
     38 H20         6.0350    2.5100    0.6930 ha        1 B68      0.156000
     39 H21         3.8270    1.5010    1.0340 ha        1 B68      0.146500
     40 H13         2.2160    0.0930    1.8010 h1        1 B68      0.068700
     41 H13A        1.9820    0.5410    0.0300 h1        1 B68      0.068700
     42 HO11        1.6310   -2.2340   -0.7930 ho        1 B68      0.443000
     43 H12         0.8620   -1.8610    2.7690 hc        1 B68      0.062367
     44 H12A        0.1150   -3.0540    1.6130 hc        1 B68      0.062367
     45 H12B        1.9210   -2.8530    1.6750 hc        1 B68      0.062367
     46 HN9        -1.4920   -1.6190   -0.2580 hn        1 B68      0.346500
     47 H5         -3.6960   -1.6570   -0.9940 ha        1 B68      0.167000
     48 H1         -2.3390    1.3080    1.9170 ha        1 B68      0.191000
     49 H2         -4.6190    2.2360    2.0050 ha        1 B68      0.182000
@<TRIPOS>BOND
     1    1    2 1   
     2    1   32 1   
     3    1   33 1   
     4    1   34 1   
     5    2    3 2   
     6    2    4 1   
     7    4    5 1   
     8    4   35 1   
     9    5    6 ar  
    10    5    8 ar  
    11    6    7 ar  
    12    6   36 1   
    13    7   10 ar  
    14    7   37 1   
    15    8    9 ar  
    16    8   38 1   
    17    9   10 ar  
    18    9   39 1   
    19   10   11 1   
    20   11   12 1   
    21   12   13 1   
    22   12   40 1   
    23   12   41 1   
    24   13   14 1   
    25   13   15 1   
    26   13   16 1   
    27   14   42 1   
    28   15   43 1   
    29   15   44 1   
    30   15   45 1   
    31   16   17 2   
    32   16   18 1   
    33   18   19 1   
    34   18   46 1   
    35   19   20 ar  
    36   19   21 ar  
    37   20   27 ar  
    38   20   47 1   
    39   21   22 ar  
    40   21   48 1   
    41   22   23 ar  
    42   22   49 1   
    43   23   24 1   
    44   23   27 ar  
    45   24   25 1   
    46   24   26 1   
    47   27   28 1   
    48   28   29 1   
    49   28   30 1   
    50   28   31 1   
@<TRIPOS>SUBSTRUCTURE
     1 B68         1 TEMP              0 ****  ****    0 ROOT
