@<TRIPOS>MOLECULE
B68
   49    50     1     0     0
SMALL
bcc


@<TRIPOS>ATOM
      1 C24        -0.1450   -0.4630    0.1890 c3        1 B68     -0.179100
      2 C23         1.3530   -0.3630    0.3720 c         1 B68      0.666100
      3 O23         1.8730   -0.5170    1.4910 o         1 B68     -0.588100
      4 N22         2.0860   -0.0930   -0.7770 n         1 B68     -0.474100
      5 C19         3.4780    0.0560   -0.8940 ca        1 B68      0.049600
      6 C18         4.3660   -0.0910    0.1960 ca        1 B68     -0.140500
      7 C17         5.7320    0.0700    0.0190 ca        1 B68     -0.146000
      8 C20         4.0150    0.3670   -2.1650 ca        1 B68     -0.140500
      9 C21         5.3850    0.5240   -2.3450 ca        1 B68     -0.146000
     10 C16         6.2440    0.3780   -1.2520 ca        1 B68      0.090100
     11 O14         7.6250    0.4870   -1.3170 os        1 B68     -0.350900
     12 C13         8.1410    1.0220   -2.5390 c3        1 B68      0.107400
     13 C11         9.6440    1.2430   -2.2810 c3        1 B68      0.094800
     14 O11         9.8310    2.0920   -1.1560 oh        1 B68     -0.609800
     15 C12        10.3680   -0.0810   -2.0790 c3        1 B68     -0.127100
     16 C10        10.2350    1.9470   -3.5250 c         1 B68      0.678100
     17 O10         9.7290    1.7520   -4.6430 o         1 B68     -0.580100
     18 N9         11.3650    2.7290   -3.3210 n         1 B68     -0.451100
     19 C6         12.0720    3.4550   -4.2810 ca        1 B68      0.117600
     20 C5         13.1000    4.3300   -3.8370 ca        1 B68     -0.160000
     21 C1         11.8370    3.3490   -5.6690 ca        1 B68     -0.156000
     22 C2         12.5960    4.0840   -6.5690 ca        1 B68     -0.043000
     23 C3         13.6110    4.9440   -6.1200 ca        1 B68     -0.175200
     24 N8         14.3950    5.7050   -7.1280 no        1 B68      0.317200
     25 O1         14.1270    5.5520   -8.2900 o         1 B68     -0.196000
     26 O2         15.2650    6.4460   -6.7640 o         1 B68     -0.196000
     27 C4         13.8590    5.0620   -4.7400 ca        1 B68     -0.076300
     28 C7         14.9540    5.9870   -4.1910 c3        1 B68      0.695200
     29 F2         15.0580    5.9780   -2.8180 f         1 B68     -0.222300
     30 F1         16.2180    5.6690   -4.6160 f         1 B68     -0.222300
     31 F3         14.7740    7.3100   -4.4970 f         1 B68     -0.222300
     32 H24        -0.4010   -1.2870   -0.5200 hc        1 B68      0.069700
     33 H24A       -0.6090   -0.6830    1.1810 hc        1 B68      0.069700
     34 H24B       -0.5590    0.4980   -0.2000 hc        1 B68      0.069700
     35 HN22        1.5730    0.0190   -1.6220 hn        1 B68      0.315500
     36 H18         3.9850   -0.3340    1.2030 ha        1 B68      0.156500
     37 H17         6.4210   -0.0460    0.8690 ha        1 B68      0.146500
     38 H20         3.3550    0.4870   -3.0380 ha        1 B68      0.156500
     39 H21         5.7720    0.7600   -3.3460 ha        1 B68      0.146500
     40 H13         7.6420    1.9960   -2.7790 h1        1 B68      0.068700
     41 H13A        7.9970    0.2890   -3.3740 h1        1 B68      0.068700
     42 HO11        9.3350    1.6990   -0.4240 ho        1 B68      0.443000
     43 H12        10.3480   -0.6770   -3.0220 hc        1 B68      0.062367
     44 H12A        9.8570   -0.6610   -1.2730 hc        1 B68      0.062367
     45 H12B       11.4270    0.1020   -1.7790 hc        1 B68      0.062367
     46 HN9        11.6200    2.8910   -2.3660 hn        1 B68      0.346500
     47 H5         13.3080    4.4390   -2.7570 ha        1 B68      0.167000
     48 H1         11.0460    2.6840   -6.0590 ha        1 B68      0.191000
     49 H2         12.3970    3.9880   -7.6530 ha        1 B68      0.182000
@<TRIPOS>BOND
     1    1    2 1   
     2    1   32 1   
     3    1   33 1   
     4    1   34 1   
     5    2    3 2   
     6    2    4 1   
     7    4    5 1   
     8    4   35 1   
     9    5    6 ar  
    10    5    8 ar  
    11    6    7 ar  
    12    6   36 1   
    13    7   10 ar  
    14    7   37 1   
    15    8    9 ar  
    16    8   38 1   
    17    9   10 ar  
    18    9   39 1   
    19   10   11 1   
    20   11   12 1   
    21   12   13 1   
    22   12   40 1   
    23   12   41 1   
    24   13   14 1   
    25   13   15 1   
    26   13   16 1   
    27   14   42 1   
    28   15   43 1   
    29   15   44 1   
    30   15   45 1   
    31   16   17 2   
    32   16   18 1   
    33   18   19 1   
    34   18   46 1   
    35   19   20 ar  
    36   19   21 ar  
    37   20   27 ar  
    38   20   47 1   
    39   21   22 ar  
    40   21   48 1   
    41   22   23 ar  
    42   22   49 1   
    43   23   24 1   
    44   23   27 ar  
    45   24   25 1   
    46   24   26 1   
    47   27   28 1   
    48   28   29 1   
    49   28   30 1   
    50   28   31 1   
@<TRIPOS>SUBSTRUCTURE
     1 B68         1 TEMP              0 ****  ****    0 ROOT
