@<TRIPOS>MOLECULE
B68
   49    50     1     0     0
SMALL
bcc


@<TRIPOS>ATOM
      1 C24        -0.1490   -0.4930    0.1740 c3        1 B68     -0.179100
      2 C23         1.3480   -0.3890    0.3600 c         1 B68      0.666100
      3 O23         1.8680   -0.5570    1.4770 o         1 B68     -0.588100
      4 N22         2.0820   -0.1010   -0.7850 n         1 B68     -0.474100
      5 C19         3.4730    0.0540   -0.8990 ca        1 B68      0.049600
      6 C18         4.3600   -0.1000    0.1910 ca        1 B68     -0.140500
      7 C17         5.7260    0.0680    0.0160 ca        1 B68     -0.146000
      8 C20         4.0100    0.3780   -2.1670 ca        1 B68     -0.140500
      9 C21         5.3800    0.5420   -2.3430 ca        1 B68     -0.146000
     10 C16         6.2380    0.3890   -1.2510 ca        1 B68      0.090100
     11 O14         7.6180    0.5050   -1.3130 os        1 B68     -0.350900
     12 C13         8.1360    1.0400   -2.5340 c3        1 B68      0.107400
     13 C11         9.6390    1.2560   -2.2770 c3        1 B68      0.094800
     14 O11         9.8290    2.1040   -1.1520 oh        1 B68     -0.609800
     15 C12        10.3590   -0.0700   -2.0760 c3        1 B68     -0.127100
     16 C10        10.2320    1.9590   -3.5210 c         1 B68      0.678100
     17 O10         9.7230    1.7680   -4.6380 o         1 B68     -0.580100
     18 N9         11.3660    2.7350   -3.3170 n         1 B68     -0.451100
     19 C6         12.0760    3.4590   -4.2770 ca        1 B68      0.117600
     20 C5         13.1090    4.3270   -3.8330 ca        1 B68     -0.160000
     21 C1         11.8380    3.3570   -5.6650 ca        1 B68     -0.156000
     22 C2         12.6000    4.0890   -6.5650 ca        1 B68     -0.043000
     23 C3         13.6200    4.9420   -6.1150 ca        1 B68     -0.175200
     24 N8         14.4060    5.7010   -7.1230 no        1 B68      0.317200
     25 O1         14.1360    5.5520   -8.2860 o         1 B68     -0.196000
     26 O2         15.2820    6.4360   -6.7600 o         1 B68     -0.196000
     27 C4         13.8710    5.0560   -4.7360 ca        1 B68     -0.076300
     28 C7         14.9730    5.9740   -4.1870 c3        1 B68      0.695200
     29 F2         15.0780    5.9620   -2.8150 f         1 B68     -0.222300
     30 F1         16.2330    5.6490   -4.6150 f         1 B68     -0.222300
     31 F3         14.7990    7.2980   -4.4910 f         1 B68     -0.222300
     32 H24        -0.6130   -0.7270    1.1630 hc        1 B68      0.069700
     33 H24A       -0.5660    0.4720   -0.2020 hc        1 B68      0.069700
     34 H24B       -0.4010   -1.3080   -0.5460 hc        1 B68      0.069700
     35 HN22        1.5680    0.0190   -1.6290 hn        1 B68      0.315500
     36 H18         3.9790   -0.3530    1.1950 ha        1 B68      0.156000
     37 H17         6.4140   -0.0530    0.8660 ha        1 B68      0.146500
     38 H20         3.3500    0.5040   -3.0400 ha        1 B68      0.156000
     39 H21         5.7670    0.7890   -3.3420 ha        1 B68      0.146500
     40 H13         7.9880    0.3090   -3.3700 h1        1 B68      0.068700
     41 H13A        7.6390    2.0160   -2.7730 h1        1 B68      0.068700
     42 HO11        9.3330    1.7120   -0.4190 ho        1 B68      0.443000
     43 H12         9.8470   -0.6480   -1.2690 hc        1 B68      0.062367
     44 H12A       11.4190    0.1100   -1.7760 hc        1 B68      0.062367
     45 H12B       10.3360   -0.6660   -3.0190 hc        1 B68      0.062367
     46 HN9        11.6230    2.8950   -2.3620 hn        1 B68      0.346500
     47 H5         13.3200    4.4340   -2.7540 ha        1 B68      0.167000
     48 H1         11.0420    2.6970   -6.0550 ha        1 B68      0.191000
     49 H2         12.3990    3.9960   -7.6490 ha        1 B68      0.182000
@<TRIPOS>BOND
     1    1    2 1   
     2    1   32 1   
     3    1   33 1   
     4    1   34 1   
     5    2    3 2   
     6    2    4 1   
     7    4    5 1   
     8    4   35 1   
     9    5    6 ar  
    10    5    8 ar  
    11    6    7 ar  
    12    6   36 1   
    13    7   10 ar  
    14    7   37 1   
    15    8    9 ar  
    16    8   38 1   
    17    9   10 ar  
    18    9   39 1   
    19   10   11 1   
    20   11   12 1   
    21   12   13 1   
    22   12   40 1   
    23   12   41 1   
    24   13   14 1   
    25   13   15 1   
    26   13   16 1   
    27   14   42 1   
    28   15   43 1   
    29   15   44 1   
    30   15   45 1   
    31   16   17 2   
    32   16   18 1   
    33   18   19 1   
    34   18   46 1   
    35   19   20 ar  
    36   19   21 ar  
    37   20   27 ar  
    38   20   47 1   
    39   21   22 ar  
    40   21   48 1   
    41   22   23 ar  
    42   22   49 1   
    43   23   24 1   
    44   23   27 ar  
    45   24   25 1   
    46   24   26 1   
    47   27   28 1   
    48   28   29 1   
    49   28   30 1   
    50   28   31 1   
@<TRIPOS>SUBSTRUCTURE
     1 B68         1 TEMP              0 ****  ****    0 ROOT
