@<TRIPOS>MOLECULE
B68
   49    50     1     0     0
SMALL
bcc


@<TRIPOS>ATOM
      1 C24        -0.1460   -0.4790    0.1730 c3        1 B68     -0.179100
      2 C23         1.3510   -0.3740    0.3600 c         1 B68      0.666100
      3 O23         1.8690   -0.5230    1.4810 o         1 B68     -0.588100
      4 N22         2.0870   -0.1060   -0.7880 ns        1 B68     -0.474100
      5 C19         3.4770    0.0470   -0.9020 ca        1 B68      0.049600
      6 C18         4.3630   -0.0960    0.1900 ca        1 B68     -0.140500
      7 C17         5.7300    0.0690    0.0160 ca        1 B68     -0.146000
      8 C20         4.0170    0.3570   -2.1730 ca        1 B68     -0.140500
      9 C21         5.3870    0.5180   -2.3490 ca        1 B68     -0.146000
     10 C16         6.2430    0.3760   -1.2550 ca        1 B68      0.090100
     11 O14         7.6240    0.4890   -1.3170 os        1 B68     -0.350900
     12 C13         8.1420    1.0230   -2.5380 c3        1 B68      0.107400
     13 C11         9.6440    1.2480   -2.2770 c3        1 B68      0.094800
     14 O11         9.8270    2.0990   -1.1530 oh        1 B68     -0.609800
     15 C12        10.3700   -0.0740   -2.0720 c3        1 B68     -0.127100
     16 C10        10.2360    1.9510   -3.5220 c         1 B68      0.678100
     17 O10         9.7320    1.7530   -4.6390 o         1 B68     -0.580100
     18 N9         11.3640    2.7350   -3.3160 ns        1 B68     -0.451100
     19 C6         12.0730    3.4610   -4.2750 ca        1 B68      0.117600
     20 C5         13.0980    4.3380   -3.8300 ca        1 B68     -0.160000
     21 C1         11.8390    3.3530   -5.6640 ca        1 B68     -0.156000
     22 C2         12.5990    4.0880   -6.5640 ca        1 B68     -0.043000
     23 C3         13.6120    4.9500   -6.1130 ca        1 B68     -0.175200
     24 N8         14.3960    5.7120   -7.1210 no        1 B68      0.317200
     25 O1         14.1300    5.5570   -8.2830 o         1 B68     -0.196000
     26 O2         15.2650    6.4540   -6.7570 o         1 B68     -0.196000
     27 C4         13.8580    5.0700   -4.7330 ca        1 B68     -0.076300
     28 C7         14.9510    5.9970   -4.1830 c3        1 B68      0.695200
     29 F2         15.0520    5.9890   -2.8100 f         1 B68     -0.222300
     30 F1         16.2150    5.6800   -4.6060 f         1 B68     -0.222300
     31 F3         14.7690    7.3190   -4.4910 f         1 B68     -0.222300
     32 H24        -0.6120   -0.6960    1.1650 hc        1 B68      0.069700
     33 H24A       -0.5620    0.4800   -0.2200 hc        1 B68      0.069700
     34 H24B       -0.3980   -1.3060   -0.5330 hc        1 B68      0.069700
     35 HN22        1.5750    0.0020   -1.6350 hn        1 B68      0.315500
     36 H18         3.9810   -0.3390    1.1960 ha        1 B68      0.156500
     37 H17         6.4170   -0.0440    0.8670 ha        1 B68      0.146500
     38 H20         3.3580    0.4740   -3.0480 ha        1 B68      0.156500
     39 H21         5.7760    0.7530   -3.3510 ha        1 B68      0.146500
     40 H13         8.0010    0.2880   -3.3720 h1        1 B68      0.068700
     41 H13A        7.6410    1.9950   -2.7810 h1        1 B68      0.068700
     42 HO11        9.3300    1.7050   -0.4220 ho        1 B68      0.443000
     43 H12        11.4280    0.1110   -1.7700 hc        1 B68      0.062367
     44 H12A        9.8590   -0.6540   -1.2660 hc        1 B68      0.062367
     45 H12B       10.3530   -0.6720   -3.0140 hc        1 B68      0.062367
     46 HN9        11.6180    2.8980   -2.3610 hn        1 B68      0.346500
     47 H5         13.3050    4.4480   -2.7510 ha        1 B68      0.167000
     48 H1         11.0500    2.6870   -6.0550 ha        1 B68      0.191000
     49 H2         12.4020    3.9910   -7.6480 ha        1 B68      0.182000
@<TRIPOS>BOND
     1    1    2 1   
     2    1   32 1   
     3    1   33 1   
     4    1   34 1   
     5    2    3 2   
     6    2    4 1   
     7    4    5 1   
     8    4   35 1   
     9    5    6 ar  
    10    5    8 ar  
    11    6    7 ar  
    12    6   36 1   
    13    7   10 ar  
    14    7   37 1   
    15    8    9 ar  
    16    8   38 1   
    17    9   10 ar  
    18    9   39 1   
    19   10   11 1   
    20   11   12 1   
    21   12   13 1   
    22   12   40 1   
    23   12   41 1   
    24   13   14 1   
    25   13   15 1   
    26   13   16 1   
    27   14   42 1   
    28   15   43 1   
    29   15   44 1   
    30   15   45 1   
    31   16   17 2   
    32   16   18 1   
    33   18   19 1   
    34   18   46 1   
    35   19   20 ar  
    36   19   21 ar  
    37   20   27 ar  
    38   20   47 1   
    39   21   22 ar  
    40   21   48 1   
    41   22   23 ar  
    42   22   49 1   
    43   23   24 1   
    44   23   27 ar  
    45   24   25 1   
    46   24   26 1   
    47   27   28 1   
    48   28   29 1   
    49   28   30 1   
    50   28   31 1   
@<TRIPOS>SUBSTRUCTURE
     1 B68         1 TEMP              0 ****  ****    0 ROOT
