@<TRIPOS>MOLECULE
B68
   49    46     1     0     0
SMALL
bcc


@<TRIPOS>ATOM
      1 C24        -8.8190   -2.6350    2.6550 c3        1 B68     -0.247000
      2 C23        -7.3000   -2.6780    2.4610 c2        1 B68      0.310000
      3 O23        -6.6400   -3.5870    2.9720 o         1 B68     -0.349000
      4 N22        -6.6090   -1.5450    1.7770 n         1 B68     -0.328000
      5 C19        -5.1390   -1.5070    1.7100 c2        1 B68      0.057000
      6 C18        -4.4180   -2.6870    1.6630 c2        1 B68     -0.126000
      7 C17        -3.0320   -2.6520    1.5510 c1        1 B68     -0.127000
      8 C20        -4.4760   -0.2820    1.6470 c1        1 B68     -0.155000
      9 C21        -3.0750   -0.2460    1.5350 c1        1 B68     -0.165000
     10 C16        -2.3610   -1.4170    1.4870 c1        1 B68      0.045000
     11 O14        -0.9600   -1.3830    1.5330 os        1 B68     -0.234000
     12 C13        -0.3400   -0.8410    0.3410 c3        1 B68     -0.043000
     13 C11         1.2130   -0.8140    0.5300 c3        1 B68      0.073000
     14 O11         1.5200   -0.6760    1.9230 oh        1 B68     -0.337000
     15 C12         1.8120   -2.1040    0.0080 c3        1 B68     -0.245000
     16 C10         1.7800    0.3250   -0.2160 c2        1 B68      0.322000
     17 O10         1.0520    1.0620   -0.8290 o         1 B68     -0.341000
     18 N9          3.2440    0.5270   -0.2610 n         1 B68     -0.305000
     19 C6          3.7990    1.6090   -1.0410 c2        1 B68      0.125000
     20 C5          5.0290    1.4550   -1.6660 c2        1 B68     -0.160000
     21 C1          3.0740    2.7760   -1.2180 c1        1 B68     -0.156000
     22 C2          3.5760    3.7880   -2.0180 c1        1 B68     -0.043000
     23 C3          4.8010    3.6340   -2.6400 c1        1 B68     -0.130000
     24 N8          5.3490    4.6930   -3.3860 n2        1 B68      0.463400
     25 O1          6.5200    4.5170   -4.0540 o         1 B68     -0.291700
     26 O2          4.7140    5.7790   -3.5020 o         1 B68     -0.291700
     27 C4          5.5290    2.4620   -2.4620 c2        1 B68     -0.069000
     28 C7          6.8500    2.2490   -3.2350 c3        1 B68      0.474000
     29 F2          7.2670    0.9800   -3.0690 f         1 B68     -0.151000
     30 F1          6.6460    2.4840   -4.5470 f         1 B68     -0.151000
     31 F3          7.7700    3.0800   -2.7750 f         1 B68     -0.151000
     32 H24        -9.0470   -3.0600    3.4760 hc        1 B68      0.109000
     33 H24A       -9.1070   -1.7350    2.6770 hc        1 B68      0.109000
     34 H24B       -9.2560   -3.0990    1.9170 hc        1 B68      0.109000
     35 HN22       -7.1150   -0.8290    1.4230 hn        1 B68      0.229000
     36 H18        -4.8910   -3.5610    1.7080 ha        1 B68      0.180000
     37 H17        -2.5450   -3.4540    1.5190 ha        1 B68      0.150000
     38 H20        -4.9840    0.5480    1.6820 ha        1 B68      0.132000
     39 H21        -2.6060    0.6190    1.4910 ha        1 B68      0.143000
     40 H13        -0.6660    0.0680    0.1890 h1        1 B68      0.108000
     41 H13A       -0.5670   -1.4030   -0.4330 h1        1 B68      0.108000
     42 HO11        1.9800   -1.3720    2.1900 ho        1 B68      0.242000
     43 H12         1.5830   -2.2100   -0.9840 hc        1 B68      0.101667
     44 H12A        1.4470   -2.8590    0.5090 hc        1 B68      0.101667
     45 H12B        2.7890   -2.0800    0.1180 hc        1 B68      0.101667
     46 HN9         3.7830   -0.0690    0.1120 hn        1 B68      0.260000
     47 H5          5.5200    0.6630   -1.5460 ha        1 B68      0.167000
     48 H1          2.2200    2.8840   -0.7840 ha        1 B68      0.191000
     49 H2          3.0840    4.5800   -2.1370 ha        1 B68      0.182000
@<TRIPOS>BOND
     1    1    2 1   
     2    1   32 1   
     3    1   33 1   
     4    1   34 1   
     5    2    3 1   
     6    2    4 1   
     7    4    5 1   
     8    4   35 1   
     9    5    6 1   
    10    5    8 1   
    11    6    7 1   
    12    6   36 1   
    13    7   37 1   
    14    8   38 1   
    15    9   10 1   
    16    9   39 1   
    17   10   11 1   
    18   11   12 1   
    19   12   13 1   
    20   12   40 1   
    21   12   41 1   
    22   13   14 1   
    23   13   15 1   
    24   13   16 1   
    25   14   42 1   
    26   15   43 1   
    27   15   44 1   
    28   15   45 1   
    29   16   17 1   
    30   16   18 1   
    31   18   19 1   
    32   18   46 1   
    33   19   20 1   
    34   19   21 1   
    35   20   27 1   
    36   20   47 1   
    37   21   48 1   
    38   22   23 1   
    39   22   49 1   
    40   23   27 1   
    41   24   25 2   
    42   24   26 2   
    43   27   28 1   
    44   28   29 1   
    45   28   30 1   
    46   28   31 1   
@<TRIPOS>SUBSTRUCTURE
     1 B68         1 TEMP              0 ****  ****    0 ROOT
