@<TRIPOS>MOLECULE
B6A
   47    50     1     0     0
SMALL
bcc


@<TRIPOS>ATOM
      1 CAM        -2.6960    2.5490    0.2790 c3        1 B6A     -0.114400
      2 CAK        -3.3410    3.3380   -0.8620 c3        1 B6A      0.150800
      3 NAQ        -4.5900    2.7950   -1.3610 n3        1 B6A     -0.795200
      4 CAL        -4.5000    1.3790   -1.6570 c3        1 B6A      0.150800
      5 CAN        -3.8980    0.5180   -0.5430 c3        1 B6A     -0.114400
      6 CAX        -2.5590    1.0800   -0.0960 c3        1 B6A     -0.090700
      7 CAO        -1.9950    0.3140    1.1130 c3        1 B6A      0.046300
      8 NAY        -1.5520   -1.0200    0.8490 na        1 B6A     -0.173300
      9 CAW        -0.3020   -1.3890    0.3230 ca        1 B6A     -0.094200
     10 CAJ         0.8340   -0.6450    0.0010 ca        1 B6A     -0.087000
     11 CAU        -2.3050   -2.2330    0.9520 cc        1 B6A      0.596700
     12 NAA        -3.5920   -2.2580    1.5250 nh        1 B6A     -0.856800
     13 NAP        -1.5910   -3.3280    0.5440 nd        1 B6A     -0.615100
     14 CAV        -0.3390   -2.8320    0.1540 ca        1 B6A      0.116400
     15 CAI         0.7910   -3.4900   -0.3510 ca        1 B6A     -0.098000
     16 CAH         1.9060   -2.7340   -0.6760 ca        1 B6A     -0.096000
     17 CAT         1.9390   -1.3350   -0.4970 ca        1 B6A     -0.165600
     18 CAR         3.1680   -0.6070   -0.8840 c         1 B6A      0.589300
     19 OAB         3.8900   -1.0080   -1.8080 o         1 B6A     -0.529100
     20 CAS         3.5100    0.6210   -0.1300 ca        1 B6A     -0.167600
     21 CAF         3.2440    0.7310    1.2400 ca        1 B6A     -0.087500
     22 CAD         3.6040    1.8860    1.9310 ca        1 B6A     -0.144500
     23 CAC         4.2260    2.9390    1.2600 ca        1 B6A     -0.108000
     24 CAE         4.4970    2.8330   -0.1040 ca        1 B6A     -0.144500
     25 CAG         4.1490    1.6750   -0.7970 ca        1 B6A     -0.087500
     26 H1         -1.6860    2.9830    0.4950 hc        1 B6A      0.044200
     27 H2         -3.3140    2.6460    1.2090 hc        1 B6A      0.044200
     28 H3         -3.5240    4.3940   -0.5220 h1        1 B6A      0.056950
     29 H4         -2.6210    3.3720   -1.7280 h1        1 B6A      0.056950
     30 H5         -5.3220    2.9570   -0.6910 hn        1 B6A      0.349800
     31 H7         -5.5310    1.0010   -1.9000 h1        1 B6A      0.056950
     32 H8         -3.8630    1.2680   -2.5800 h1        1 B6A      0.056950
     33 H9         -4.6040    0.4810    0.3290 hc        1 B6A      0.044200
     34 H10        -3.7670   -0.5260   -0.9270 hc        1 B6A      0.044200
     35 H11        -1.8350    1.0000   -0.9560 hc        1 B6A      0.070700
     36 H12        -1.1060    0.8910    1.5060 h1        1 B6A      0.066700
     37 H13        -2.7760    0.2830    1.9250 h1        1 B6A      0.066700
     38 H14         0.8570    0.4470    0.1290 ha        1 B6A      0.144000
     39 H15        -4.2050   -1.5750    1.1280 hn        1 B6A      0.404300
     40 H16        -3.9890   -3.1770    1.5250 hn        1 B6A      0.404300
     41 H17         0.7840   -4.5810   -0.4880 ha        1 B6A      0.153000
     42 H18         2.8000   -3.2250   -1.0950 ha        1 B6A      0.153000
     43 H19         2.7560   -0.1020    1.7710 ha        1 B6A      0.147500
     44 H20         3.4000    1.9650    3.0090 ha        1 B6A      0.136000
     45 H21         4.5070    3.8510    1.8070 ha        1 B6A      0.134000
     46 H22         4.9940    3.6590   -0.6340 ha        1 B6A      0.136000
     47 H23         4.3800    1.5720   -1.8700 ha        1 B6A      0.147500
@<TRIPOS>BOND
     1    1    2 1   
     2    1    6 1   
     3    1   26 1   
     4    1   27 1   
     5    2    3 1   
     6    2   28 1   
     7    2   29 1   
     8    3    4 1   
     9    3   30 1   
    10    4    5 1   
    11    4   31 1   
    12    4   32 1   
    13    5    6 1   
    14    5   33 1   
    15    5   34 1   
    16    6    7 1   
    17    6   35 1   
    18    7    8 1   
    19    7   36 1   
    20    7   37 1   
    21    8    9 1   
    22    8   11 1   
    23    9   10 ar  
    24    9   14 ar  
    25   10   17 ar  
    26   10   38 1   
    27   11   12 1   
    28   11   13 2   
    29   12   39 1   
    30   12   40 1   
    31   13   14 1   
    32   14   15 ar  
    33   15   16 ar  
    34   15   41 1   
    35   16   17 ar  
    36   16   42 1   
    37   17   18 1   
    38   18   19 2   
    39   18   20 1   
    40   20   21 ar  
    41   20   25 ar  
    42   21   22 ar  
    43   21   43 1   
    44   22   23 ar  
    45   22   44 1   
    46   23   24 ar  
    47   23   45 1   
    48   24   25 ar  
    49   24   46 1   
    50   25   47 1   
@<TRIPOS>SUBSTRUCTURE
     1 B6A         1 TEMP              0 ****  ****    0 ROOT
