@<TRIPOS>MOLECULE
B6A
   47    50     1     0     0
SMALL
bcc


@<TRIPOS>ATOM
      1 CAM         0.2900    0.2070    0.0740 c3        1 B6A     -0.075400
      2 CAK         1.8120    0.3180    0.1460 c3        1 B6A      0.163800
      3 NAQ         2.3140    0.3580    1.5060 n7        1 B6A     -0.821200
      4 CAL         1.6810    1.3670    2.3320 c3        1 B6A      0.163800
      5 CAN         0.1550    1.2900    2.3130 c3        1 B6A     -0.075400
      6 CAX        -0.3700    1.3100    0.8880 c3        1 B6A     -0.093700
      7 CAO        -1.8930    1.1130    0.8420 c3        1 B6A      0.044300
      8 NAY        -2.6970    2.1960    1.3270 na        1 B6A     -0.174300
      9 CAW        -2.8000    3.4470    0.6760 ca        1 B6A     -0.105200
     10 CAJ        -2.5970    3.8210   -0.6500 ca        1 B6A     -0.082000
     11 CAU        -3.0100    2.4710    2.7090 cc        1 B6A      0.604700
     12 NAA        -2.8970    1.4960    3.7120 nv        1 B6A     -0.859800
     13 NAP        -3.4010    3.7650    2.9160 nd        1 B6A     -0.618100
     14 CAV        -3.2650    4.3980    1.6700 ca        1 B6A      0.123400
     15 CAI        -3.5090    5.7230    1.2890 ca        1 B6A     -0.103000
     16 CAH        -3.2880    6.0820   -0.0340 ca        1 B6A     -0.091000
     17 CAT        -2.8490    5.1510   -0.9960 ca        1 B6A     -0.170600
     18 CAR        -2.6230    5.6240   -2.3790 c         1 B6A      0.589300
     19 OAB        -2.2740    6.7900   -2.6120 o         1 B6A     -0.530100
     20 CAS        -2.8290    4.6580   -3.4830 ca        1 B6A     -0.166600
     21 CAF        -3.8340    3.6850   -3.4200 ca        1 B6A     -0.087000
     22 CAD        -4.0250    2.8080   -4.4870 ca        1 B6A     -0.144000
     23 CAC        -3.2120    2.8940   -5.6180 ca        1 B6A     -0.108000
     24 CAE        -2.2120    3.8640   -5.6870 ca        1 B6A     -0.144000
     25 CAG        -2.0260    4.7500   -4.6270 ca        1 B6A     -0.087000
     26 H1         -0.0360   -0.7940    0.4590 hc        1 B6A      0.051700
     27 H2         -0.0210    0.2810   -1.0000 hc        1 B6A      0.051700
     28 H3          2.2660   -0.5860   -0.3510 h1        1 B6A      0.030450
     29 H4          2.1250    1.2270   -0.4490 h1        1 B6A      0.030450
     30 H5          3.3080    0.4970    1.4980 hn        1 B6A      0.363800
     31 H7          2.0390    1.2060    3.3880 h1        1 B6A      0.030450
     32 H8          1.9820    2.4130    2.0260 h1        1 B6A      0.030450
     33 H9         -0.1830    0.3530    2.8280 hc        1 B6A      0.051700
     34 H10        -0.2510    2.1620    2.8880 hc        1 B6A      0.051700
     35 H11        -0.1150    2.3030    0.4220 hc        1 B6A      0.064700
     36 H12        -2.1920    0.9490   -0.2360 h1        1 B6A      0.059200
     37 H13        -2.1580    0.1820    1.4200 h1        1 B6A      0.059200
     38 H14        -2.2450    3.0980   -1.4010 ha        1 B6A      0.144000
     39 H15        -3.0870    0.5670    3.4020 hn        1 B6A      0.409800
     40 H16        -3.3870    1.7390    4.5490 hn        1 B6A      0.409800
     41 H17        -3.8630    6.4590    2.0250 ha        1 B6A      0.153000
     42 H18        -3.4500    7.1250   -0.3530 ha        1 B6A      0.152000
     43 H19        -4.4780    3.6200   -2.5290 ha        1 B6A      0.147500
     44 H20        -4.8200    2.0510   -4.4370 ha        1 B6A      0.136000
     45 H21        -3.3630    2.1990   -6.4570 ha        1 B6A      0.134000
     46 H22        -1.5750    3.9370   -6.5800 ha        1 B6A      0.136000
     47 H23        -1.2540    5.5350   -4.6810 ha        1 B6A      0.147500
@<TRIPOS>BOND
     1    1    2 1   
     2    1    6 1   
     3    1   26 1   
     4    1   27 1   
     5    2    3 1   
     6    2   28 1   
     7    2   29 1   
     8    3    4 1   
     9    3   30 1   
    10    4    5 1   
    11    4   31 1   
    12    4   32 1   
    13    5    6 1   
    14    5   33 1   
    15    5   34 1   
    16    6    7 1   
    17    6   35 1   
    18    7    8 1   
    19    7   36 1   
    20    7   37 1   
    21    8    9 1   
    22    8   11 1   
    23    9   10 ar  
    24    9   14 ar  
    25   10   17 ar  
    26   10   38 1   
    27   11   12 1   
    28   11   13 2   
    29   12   39 1   
    30   12   40 1   
    31   13   14 1   
    32   14   15 ar  
    33   15   16 ar  
    34   15   41 1   
    35   16   17 ar  
    36   16   42 1   
    37   17   18 1   
    38   18   19 2   
    39   18   20 1   
    40   20   21 ar  
    41   20   25 ar  
    42   21   22 ar  
    43   21   43 1   
    44   22   23 ar  
    45   22   44 1   
    46   23   24 ar  
    47   23   45 1   
    48   24   25 ar  
    49   24   46 1   
    50   25   47 1   
@<TRIPOS>SUBSTRUCTURE
     1 B6A         1 TEMP              0 ****  ****    0 ROOT
