@<TRIPOS>MOLECULE
B6A
   47    44     1     0     0
SMALL
bcc


@<TRIPOS>ATOM
      1 CAM         1.9470   -2.6090   -1.3300 c3        1 B6A     -0.154000
      2 CAK         3.4280   -2.5650   -1.7350 c3        1 B6A     -0.073000
      3 NAQ         4.2460   -3.5340   -0.9740 n3        1 B6A     -0.300000
      4 CAL         4.0540   -3.4200    0.4970 c3        1 B6A     -0.073000
      5 CAN         2.5820   -3.4660    0.9000 c3        1 B6A     -0.154000
      6 CAX         1.7590   -2.4940    0.1520 c3        1 B6A     -0.133000
      7 CAO         0.2390   -2.7400    0.4920 c3        1 B6A     -0.014000
      8 NAY        -0.2920   -1.5910    1.2170 n3        1 B6A     -0.198000
      9 CAW        -1.0630   -0.4790    1.0290 c1        1 B6A     -0.059000
     10 CAJ        -1.4950    0.1900   -0.1420 c1        1 B6A     -0.066000
     11 CAU        -0.0940   -1.7460    2.5460 c1        1 B6A      0.127000
     12 NAA         0.1390   -2.4450    3.7780 n2        1 B6A     -0.298000
     13 NAP        -0.7360   -0.7390    3.1830 n2        1 B6A     -0.193000
     14 CAV        -1.3360    0.0440    2.2390 c1        1 B6A     -0.016000
     15 CAI        -2.0510    1.2590    2.3420 c1        1 B6A     -0.105000
     16 CAH        -2.4740    1.9160    1.1980 c1        1 B6A     -0.105000
     17 CAT        -2.1990    1.3870   -0.0380 c1        1 B6A     -0.152000
     18 CAR        -2.8610    2.0590   -1.2710 c2        1 B6A      0.311000
     19 OAB        -3.4590    1.3910   -2.0640 o         1 B6A     -0.300000
     20 CAS        -2.5960    3.5470   -1.5640 c2        1 B6A     -0.145000
     21 CAF        -1.5270    3.9130   -2.3560 c2        1 B6A     -0.080000
     22 CAD        -1.2660    5.2670   -2.6060 c1        1 B6A     -0.143000
     23 CAC        -2.0810    6.2440   -2.0580 c1        1 B6A     -0.125000
     24 CAE        -3.1540    5.8840   -1.2650 c1        1 B6A     -0.125000
     25 CAG        -3.4170    4.5230   -1.0130 c1        1 B6A     -0.092000
     26 H1          1.4390   -1.8110   -1.8030 hc        1 B6A      0.090750
     27 H2          1.5440   -3.4900   -1.6450 hc        1 B6A      0.090750
     28 H3          3.5070   -2.7800   -2.7350 h1        1 B6A      0.070250
     29 H4          3.7970   -1.6000   -1.5650 h1        1 B6A      0.070250
     30 H5          5.1780   -3.4160   -1.1900 hn        1 B6A      0.159000
     31 H7          4.4600   -2.5150    0.8210 h1        1 B6A      0.070250
     32 H8          4.5260   -4.1540    0.9390 h1        1 B6A      0.070250
     33 H9          2.5070   -3.2810    1.8390 hc        1 B6A      0.090750
     34 H10         2.2350   -4.3760    0.7250 hc        1 B6A      0.090750
     35 H11         2.0090   -1.5790    0.4350 hc        1 B6A      0.106000
     36 H12         0.1560   -3.5250    1.0340 h1        1 B6A      0.099500
     37 H13        -0.2620   -2.8640   -0.3360 h1        1 B6A      0.099500
     38 H14        -1.3020   -0.1800   -1.0050 ha        1 B6A      0.153000
     39 H15         0.1150   -1.9700    4.6070 hn        1 B6A      0.205500
     40 H16         0.2280   -3.3930    3.7750 hn        1 B6A      0.205500
     41 H17        -2.2350    1.6110    3.1640 ha        1 B6A      0.152000
     42 H18        -2.9420    2.7080    1.2670 ha        1 B6A      0.143000
     43 H19        -0.9490    3.2250   -2.7450 ha        1 B6A      0.150000
     44 H20        -0.5010    5.5250   -3.1720 ha        1 B6A      0.137000
     45 H21        -1.8950    7.2050   -2.2370 ha        1 B6A      0.135000
     46 H22        -3.7480    6.5940   -0.8650 ha        1 B6A      0.135000
     47 H23        -4.1580    4.2700   -0.4640 ha        1 B6A      0.144000
@<TRIPOS>BOND
     1    1    2 1   
     2    1    6 1   
     3    1   26 1   
     4    1   27 1   
     5    2    3 1   
     6    2   28 1   
     7    2   29 1   
     8    3    4 1   
     9    3   30 1   
    10    4    5 1   
    11    4   31 1   
    12    4   32 1   
    13    5    6 1   
    14    5   33 1   
    15    5   34 1   
    16    6    7 1   
    17    6   35 1   
    18    7    8 1   
    19    7   36 1   
    20    7   37 1   
    21    8    9 1   
    22    8   11 1   
    23    9   10 1   
    24   10   38 1   
    25   11   13 1   
    26   12   39 1   
    27   12   40 1   
    28   13   14 1   
    29   14   15 1   
    30   15   41 1   
    31   16   17 1   
    32   16   42 1   
    33   17   18 1   
    34   18   19 1   
    35   18   20 1   
    36   20   21 1   
    37   20   25 1   
    38   21   22 1   
    39   21   43 1   
    40   22   44 1   
    41   23   24 1   
    42   23   45 1   
    43   24   46 1   
    44   25   47 1   
@<TRIPOS>SUBSTRUCTURE
     1 B6A         1 TEMP              0 ****  ****    0 ROOT
