@<TRIPOS>MOLECULE
B6A
   47    50     1     0     0
SMALL
bcc


@<TRIPOS>ATOM
      1 CAM         0.2950    0.2090    0.0660 c3        1 B6A     -0.075400
      2 CAK         1.8170    0.3230    0.1410 c3        1 B6A      0.163800
      3 NAQ         2.3180    0.3590    1.5010 n3        1 B6A     -0.821200
      4 CAL         1.6810    1.3640    2.3300 c3        1 B6A      0.163800
      5 CAN         0.1560    1.2840    2.3090 c3        1 B6A     -0.075400
      6 CAX        -0.3680    1.3080    0.8840 c3        1 B6A     -0.093700
      7 CAO        -1.8910    1.1070    0.8350 c3        1 B6A      0.044300
      8 NAY        -2.6970    2.1870    1.3230 na        1 B6A     -0.174300
      9 CAW        -2.8020    3.4400    0.6780 ca        1 B6A     -0.105200
     10 CAJ        -2.5990    3.8200   -0.6470 ca        1 B6A     -0.082000
     11 CAU        -3.0120    2.4550    2.7070 cc        1 B6A      0.604700
     12 NAA        -2.8980    1.4760    3.7050 nh        1 B6A     -0.859800
     13 NAP        -3.4060    3.7480    2.9190 nd        1 B6A     -0.618100
     14 CAV        -3.2700    4.3860    1.6750 ca        1 B6A      0.123400
     15 CAI        -3.5170    5.7130    1.2990 ca        1 B6A     -0.103000
     16 CAH        -3.2950    6.0770   -0.0220 ca        1 B6A     -0.091000
     17 CAT        -2.8530    5.1510   -0.9870 ca        1 B6A     -0.170600
     18 CAR        -2.6280    5.6300   -2.3690 c         1 B6A      0.589300
     19 OAB        -2.2810    6.7980   -2.5960 o         1 B6A     -0.530100
     20 CAS        -2.8310    4.6680   -3.4770 ca        1 B6A     -0.166600
     21 CAF        -3.8340    3.6930   -3.4180 ca        1 B6A     -0.087500
     22 CAD        -4.0220    2.8200   -4.4880 ca        1 B6A     -0.144000
     23 CAC        -3.2090    2.9110   -5.6180 ca        1 B6A     -0.108000
     24 CAE        -2.2110    3.8840   -5.6830 ca        1 B6A     -0.144000
     25 CAG        -2.0270    4.7660   -4.6200 ca        1 B6A     -0.087500
     26 H1         -0.0290   -0.7930    0.4470 hc        1 B6A      0.051700
     27 H2         -0.0140    0.2870   -1.0080 hc        1 B6A      0.051700
     28 H3          2.2740   -0.5770   -0.3600 h1        1 B6A      0.030450
     29 H4          2.1290    1.2350   -0.4510 h1        1 B6A      0.030450
     30 H5          3.3110    0.5000    1.4940 hn        1 B6A      0.363800
     31 H7          2.0390    1.2000    3.3860 h1        1 B6A      0.030450
     32 H8          1.9810    2.4120    2.0280 h1        1 B6A      0.030450
     33 H9         -0.2530    2.1530    2.8860 hc        1 B6A      0.051700
     34 H10        -0.1810    0.3440    2.8200 hc        1 B6A      0.051700
     35 H11        -0.1150    2.3030    0.4210 hc        1 B6A      0.064700
     36 H12        -2.1540    0.1740    1.4090 h1        1 B6A      0.059200
     37 H13        -2.1880    0.9470   -0.2440 h1        1 B6A      0.059200
     38 H14        -2.2450    3.1010   -1.4000 ha        1 B6A      0.144000
     39 H15        -3.3890    1.7150    4.5430 hn        1 B6A      0.409800
     40 H16        -3.0860    0.5480    3.3910 hn        1 B6A      0.409800
     41 H17        -3.8720    6.4450    2.0380 ha        1 B6A      0.153000
     42 H18        -3.4590    7.1210   -0.3370 ha        1 B6A      0.152000
     43 H19        -4.4780    3.6230   -2.5280 ha        1 B6A      0.147500
     44 H20        -4.8160    2.0600   -4.4420 ha        1 B6A      0.136000
     45 H21        -3.3580    2.2190   -6.4600 ha        1 B6A      0.134000
     46 H22        -1.5740    3.9620   -6.5760 ha        1 B6A      0.136000
     47 H23        -1.2560    5.5520   -4.6700 ha        1 B6A      0.147500
@<TRIPOS>BOND
     1    1    2 1   
     2    1    6 1   
     3    1   26 1   
     4    1   27 1   
     5    2    3 1   
     6    2   28 1   
     7    2   29 1   
     8    3    4 1   
     9    3   30 1   
    10    4    5 1   
    11    4   31 1   
    12    4   32 1   
    13    5    6 1   
    14    5   33 1   
    15    5   34 1   
    16    6    7 1   
    17    6   35 1   
    18    7    8 1   
    19    7   36 1   
    20    7   37 1   
    21    8    9 1   
    22    8   11 1   
    23    9   10 ar  
    24    9   14 ar  
    25   10   17 ar  
    26   10   38 1   
    27   11   12 1   
    28   11   13 2   
    29   12   39 1   
    30   12   40 1   
    31   13   14 1   
    32   14   15 ar  
    33   15   16 ar  
    34   15   41 1   
    35   16   17 ar  
    36   16   42 1   
    37   17   18 1   
    38   18   19 2   
    39   18   20 1   
    40   20   21 ar  
    41   20   25 ar  
    42   21   22 ar  
    43   21   43 1   
    44   22   23 ar  
    45   22   44 1   
    46   23   24 ar  
    47   23   45 1   
    48   24   25 ar  
    49   24   46 1   
    50   25   47 1   
@<TRIPOS>SUBSTRUCTURE
     1 B6A         1 TEMP              0 ****  ****    0 ROOT
