@<TRIPOS>MOLECULE
B6A
   48    51     1     0     0
SMALL
bcc


@<TRIPOS>ATOM
      1 CAM         1.1150   -0.1000    1.0890 c3        1 B6A     -0.080400
      2 CAK         2.5630    0.2090    1.4680 c3        1 B6A      0.165300
      3 NAQ         2.7010    0.6230    2.8500 n3        1 B6A     -0.826200
      4 CAL         1.8530    1.7430    3.2000 c3        1 B6A      0.165300
      5 CAN         0.3790    1.4650    2.8920 c3        1 B6A     -0.080400
      6 CAX         0.2010    1.0690    1.4360 c3        1 B6A     -0.094700
      7 CAO        -1.2430    0.6530    1.1190 c3        1 B6A      0.022300
      8 NAY        -2.2410    1.6820    1.2250 na        1 B6A     -0.118300
      9 CAW        -2.5250    2.6710    0.2720 ca        1 B6A     -0.043200
     10 CAJ        -2.1290    2.8220   -1.0660 ca        1 B6A     -0.092000
     11 CAU        -2.9130    2.1200    2.4020 cc        1 B6A      0.363700
     12 NAA        -2.8850    1.3700    3.6560 n4        1 B6A     -0.751600
     13 NAP        -3.6460    3.2590    2.2340 nd        1 B6A     -0.475100
     14 CAV        -3.4130    3.6320    0.9080 ca        1 B6A      0.067400
     15 CAI        -3.8890    4.7350    0.1690 ca        1 B6A     -0.055000
     16 CAH        -3.4890    4.8580   -1.1470 ca        1 B6A     -0.105000
     17 CAT        -2.6250    3.9180   -1.7600 ca        1 B6A     -0.095600
     18 CAR        -2.1760    4.1170   -3.1700 c         1 B6A      0.583300
     19 OAB        -1.0070    3.8550   -3.4780 o         1 B6A     -0.509100
     20 CAS        -3.1580    4.6260   -4.1410 ca        1 B6A     -0.186600
     21 CAF        -4.5320    4.4040   -3.9850 ca        1 B6A     -0.081000
     22 CAD        -5.4290    4.8770   -4.9400 ca        1 B6A     -0.137500
     23 CAC        -4.9620    5.5770   -6.0540 ca        1 B6A     -0.086000
     24 CAE        -3.5940    5.7960   -6.2180 ca        1 B6A     -0.137500
     25 CAG        -2.6910    5.3170   -5.2700 ca        1 B6A     -0.081000
     26 H1          1.0710   -0.3050   -0.0120 hc        1 B6A      0.041700
     27 H2          0.7730   -1.0220    1.6270 hc        1 B6A      0.041700
     28 H3          3.1790   -0.7250    1.3320 h1        1 B6A      0.046200
     29 H4          2.9560    0.9880    0.7480 h1        1 B6A      0.046200
     30 H5          3.6600    0.8280    3.0630 hn        1 B6A      0.387800
     31 H7          2.1460    2.6930    2.6630 h1        1 B6A      0.046200
     32 H8          1.9680    1.9250    4.3050 h1        1 B6A      0.046200
     33 H9          0.0160    0.6370    3.5570 hc        1 B6A      0.041700
     34 H10        -0.2030    2.3970    3.1180 hc        1 B6A      0.041700
     35 H11         0.4820    1.9480    0.7890 hc        1 B6A      0.084700
     36 H12        -1.2760    0.2810    0.0510 h1        1 B6A      0.076700
     37 H13        -1.5430   -0.2020    1.7910 h1        1 B6A      0.076700
     38 H14        -1.4390    2.1140   -1.5510 ha        1 B6A      0.172000
     39 H15        -1.9060    1.2250    3.9450 hn        1 B6A      0.480133
     40 H16        -3.3500    0.4630    3.5250 hn        1 B6A      0.480133
     41 H17        -4.5590    5.4710    0.6400 ha        1 B6A      0.174000
     42 H18        -3.8450    5.7130   -1.7480 ha        1 B6A      0.173000
     43 H19        -4.9060    3.8450   -3.1130 ha        1 B6A      0.144500
     44 H20        -6.5070    4.6960   -4.8180 ha        1 B6A      0.147000
     45 H21        -5.6740    5.9520   -6.8060 ha        1 B6A      0.148000
     46 H22        -3.2230    6.3430   -7.0990 ha        1 B6A      0.147000
     47 H23        -1.6080    5.4710   -5.4000 ha        1 B6A      0.144500
     48 HAA3       -3.3850    1.9090    4.3800 hn        1 B6A      0.480133
@<TRIPOS>BOND
     1    1    2 1   
     2    1    6 1   
     3    1   26 1   
     4    1   27 1   
     5    2    3 1   
     6    2   28 1   
     7    2   29 1   
     8    3    4 1   
     9    3   30 1   
    10    4    5 1   
    11    4   31 1   
    12    4   32 1   
    13    5    6 1   
    14    5   33 1   
    15    5   34 1   
    16    6    7 1   
    17    6   35 1   
    18    7    8 1   
    19    7   36 1   
    20    7   37 1   
    21    8    9 1   
    22    8   11 1   
    23    9   10 ar  
    24    9   14 ar  
    25   10   17 ar  
    26   10   38 1   
    27   11   12 1   
    28   11   13 2   
    29   12   39 1   
    30   12   40 1   
    31   12   48 1   
    32   13   14 1   
    33   14   15 ar  
    34   15   16 ar  
    35   15   41 1   
    36   16   17 ar  
    37   16   42 1   
    38   17   18 1   
    39   18   19 2   
    40   18   20 1   
    41   20   21 ar  
    42   20   25 ar  
    43   21   22 ar  
    44   21   43 1   
    45   22   23 ar  
    46   22   44 1   
    47   23   24 ar  
    48   23   45 1   
    49   24   25 ar  
    50   24   46 1   
    51   25   47 1   
@<TRIPOS>SUBSTRUCTURE
     1 B6A         1 TEMP              0 ****  ****    0 ROOT
