@<TRIPOS>MOLECULE
B6D
   35    35     1     0     0
SMALL
bcc


@<TRIPOS>ATOM
      1 C1          1.1410    1.6020   -0.8950 c3        1 B6D      0.333900
      2 N2          2.5600   -0.4130   -0.5850 n         1 B6D     -0.562900
      3 C3          0.0670   -0.6390   -0.7130 c3        1 B6D      0.114100
      4 C4         -1.2050    0.0810   -0.1820 c3        1 B6D      0.030700
      5 C5         -1.2420    1.5050   -0.8010 c3        1 B6D      0.150100
      6 C6         -2.3950    2.3320   -0.2710 c3        1 B6D     -0.094100
      7 C7          3.1510   -1.3460    0.2480 c         1 B6D      0.669100
      8 C8          4.5300   -1.8300   -0.1170 c3        1 B6D     -0.172100
      9 C9         -4.4730   -1.8440    0.2260 c3        1 B6D     -0.174100
     10 C2          1.2960    0.1900   -0.2590 c3        1 B6D      0.018700
     11 O7          2.5430   -1.7750    1.2500 o         1 B6D     -0.623100
     12 N4         -2.4080   -0.6670   -0.4590 n         1 B6D     -0.546900
     13 C10        -3.3840   -0.8400    0.5160 c         1 B6D      0.652100
     14 O10        -3.3850   -0.1560    1.5580 o         1 B6D     -0.602100
     15 O5         -0.0500    2.2090   -0.4280 os        1 B6D     -0.446600
     16 O3          0.1120   -1.9780   -0.2780 oh        1 B6D     -0.598800
     17 H2          1.2370    0.2970    0.8680 h1        1 B6D      0.086700
     18 H1          1.1840    1.5660   -2.0190 h2        1 B6D      0.074700
     19 H3          0.0320   -0.7090   -1.8370 h1        1 B6D      0.071700
     20 HN2         3.0760   -0.0220   -1.3350 hn        1 B6D      0.319500
     21 H5         -1.2810    1.4370   -1.9250 h1        1 B6D      0.040700
     22 H8          5.2490   -0.9760   -0.1620 hc        1 B6D      0.069367
     23 H8A         4.8730   -2.5540    0.6620 hc        1 B6D      0.069367
     24 H8B         4.5110   -2.3450   -1.1080 hc        1 B6D      0.069367
     25 H4         -1.1070    0.2070    0.9410 h1        1 B6D      0.093700
     26 HN4        -2.3200   -1.3780   -1.1500 hn        1 B6D      0.309500
     27 H9         -5.0000   -1.5890   -0.7250 hc        1 B6D      0.068033
     28 H9A        -4.0410   -2.8700    0.1420 hc        1 B6D      0.068033
     29 H9B        -5.2090   -1.8270    1.0660 hc        1 B6D      0.068033
     30 H6         -2.1870    3.4190   -0.4190 hc        1 B6D      0.057033
     31 H6A        -3.3280    2.0580   -0.8190 hc        1 B6D      0.057033
     32 H6B        -2.5490    2.1370    0.8190 hc        1 B6D      0.057033
     33 O51         2.1350    2.4940   -0.4770 oh        1 B6D     -0.590800
     34 HO3         0.4360   -1.9900    0.6350 ho        1 B6D      0.434000
     35 H18         1.9150    2.7940    0.4170 ho        1 B6D      0.430000
@<TRIPOS>BOND
     1    1   10 1   
     2    1   15 1   
     3    1   18 1   
     4    1   33 1   
     5    2    7 1   
     6    2   10 1   
     7    2   20 1   
     8    3    4 1   
     9    3   10 1   
    10    3   16 1   
    11    3   19 1   
    12    4    5 1   
    13    4   12 1   
    14    4   25 1   
    15    5    6 1   
    16    5   15 1   
    17    5   21 1   
    18    6   30 1   
    19    6   31 1   
    20    6   32 1   
    21    7    8 1   
    22    7   11 2   
    23    8   22 1   
    24    8   23 1   
    25    8   24 1   
    26    9   13 1   
    27    9   27 1   
    28    9   28 1   
    29    9   29 1   
    30   10   17 1   
    31   12   13 1   
    32   12   26 1   
    33   13   14 2   
    34   16   34 1   
    35   33   35 1   
@<TRIPOS>SUBSTRUCTURE
     1 B6D         1 TEMP              0 ****  ****    0 ROOT
