@<TRIPOS>MOLECULE
B6D
   35    35     1     0     0
SMALL
bcc


@<TRIPOS>ATOM
      1 C1         -1.6640   -0.5760   -1.0570 c3        1 B6D      0.333900
      2 N2          0.3080   -1.5920   -1.9470 n         1 B6D     -0.561900
      3 C3          0.4850   -0.8680    0.3450 c3        1 B6D      0.110100
      4 C4         -0.1040    0.4020    1.0400 c3        1 B6D      0.047700
      5 C5         -1.6330    0.4190    1.0370 c3        1 B6D      0.139100
      6 C6         -2.1280    1.8790    0.7430 c3        1 B6D     -0.135100
      7 C7          0.9360   -1.2380   -3.1690 c         1 B6D      0.670100
      8 C8          1.3910   -2.3170   -4.1270 c3        1 B6D     -0.172100
      9 C9          1.6650    1.5480    4.2370 c3        1 B6D     -0.174100
     10 C2         -0.1240   -0.5950   -1.0690 c3        1 B6D      0.051700
     11 O7          1.0980   -0.0680   -3.4520 o         1 B6D     -0.618100
     12 N4          0.3470    0.4420    2.3690 n         1 B6D     -0.559900
     13 C10         1.1880    1.4990    2.8020 c         1 B6D      0.654100
     14 O10         1.5190    2.3700    2.0220 o         1 B6D     -0.609100
     15 O5         -2.1140   -0.3910    0.1190 os        1 B6D     -0.452600
     16 O3          1.7740   -0.8510    0.3240 oh        1 B6D     -0.599800
     17 H2          0.1990    0.2700   -1.3900 h1        1 B6D      0.110700
     18 H1         -1.9990   -1.4290   -1.3990 h2        1 B6D      0.067700
     19 H3          0.1340   -1.6920    0.7380 h1        1 B6D      0.084700
     20 HN2         0.1820   -2.4710   -1.7370 hn        1 B6D      0.310500
     21 H5         -1.9590    0.1400    1.9150 h1        1 B6D      0.086700
     22 H8          0.6150   -2.8370   -4.4250 hc        1 B6D      0.069700
     23 H8A         2.0270   -2.9100   -3.6730 hc        1 B6D      0.069700
     24 H8B         1.8250   -1.9040   -4.9020 hc        1 B6D      0.069700
     25 H4          0.2210    1.1970    0.5730 h1        1 B6D      0.082700
     26 HN4         0.0960   -0.2100    2.9560 hn        1 B6D      0.314500
     27 H9          2.1720    2.3740    4.3850 hc        1 B6D      0.067367
     28 H9A         0.8920    1.5270    4.8390 hc        1 B6D      0.067367
     29 H9B         2.2400    0.7750    4.4160 hc        1 B6D      0.067367
     30 H6         -3.0670    1.8550    0.4630 hc        1 B6D      0.057367
     31 H6A        -2.0430    2.4220    1.5550 hc        1 B6D      0.057367
     32 H6B        -1.5840    2.2710    0.0290 hc        1 B6D      0.057367
     33 O51        -2.1390    0.5170   -1.9320 oh        1 B6D     -0.622800
     34 HO3         2.0530   -0.1810   -0.1900 ho        1 B6D      0.431000
     35 H18        -2.8080    0.2210   -2.4380 ho        1 B6D      0.425000
@<TRIPOS>BOND
     1    1   10 1   
     2    1   15 1   
     3    1   18 1   
     4    1   33 1   
     5    2    7 1   
     6    2   10 1   
     7    2   20 1   
     8    3    4 1   
     9    3   10 1   
    10    3   16 1   
    11    3   19 1   
    12    4    5 1   
    13    4   12 1   
    14    4   25 1   
    15    5    6 1   
    16    5   15 1   
    17    5   21 1   
    18    6   30 1   
    19    6   31 1   
    20    6   32 1   
    21    7    8 1   
    22    7   11 2   
    23    8   22 1   
    24    8   23 1   
    25    8   24 1   
    26    9   13 1   
    27    9   27 1   
    28    9   28 1   
    29    9   29 1   
    30   10   17 1   
    31   12   13 1   
    32   12   26 1   
    33   13   14 2   
    34   16   34 1   
    35   33   35 1   
@<TRIPOS>SUBSTRUCTURE
     1 B6D         1 TEMP              0 ****  ****    0 ROOT
