@<TRIPOS>MOLECULE
B6S
   17    15     1     0     0
SMALL
bcc


@<TRIPOS>ATOM
      1 C1          1.9890    1.1030   -2.0070 c1        1 B6S      0.108000
      2 N1          1.5140    0.6110   -1.0420 n2        1 B6S     -0.291000
      3 S1         -1.4430   -0.6720   -0.9690 sh        1 B6S      0.169000
      4 C2          1.0060    0.0460    0.1170 c2        1 B6S      0.181000
      5 C3         -0.2390   -0.5010    0.1740 c2        1 B6S     -0.345000
      6 C4          2.1910   -0.6610    7.3980 c1        1 B6S      0.146000
      7 C5          3.2450    0.0690    7.3170 c2        1 B6S     -1.080000
      8 C6          2.5210    0.0520    2.2490 c1        1 B6S     -0.058000
      9 C7          1.8340    0.0550    1.2650 c1        1 B6S     -0.273000
     10 S8          4.6560   -0.1280    6.2170 s6        1 B6S      2.906000
     11 O9          4.1110   -0.0500    4.9200 o         1 B6S     -1.064000
     12 O10         5.4740    0.9650    6.5540 o         1 B6S     -1.064000
     13 H1         -0.9040   -0.1210   -2.0400 hs        1 B6S      0.011000
     14 H4         -0.5540   -0.9280    1.1450 h4        1 B6S      0.183000
     15 H6          3.4610    0.9590    7.9270 h4        1 B6S      0.227000
     16 H7          3.1260    0.0420    3.1430 ha        1 B6S      0.307000
     17 OXT         5.1960   -1.3820    6.5280 o         1 B6S     -1.064000
@<TRIPOS>BOND
     1    1    2 1   
     2    2    4 1   
     3    3    5 1   
     4    3   13 1   
     5    4    5 1   
     6    4    9 1   
     7    5   14 1   
     8    6    7 1   
     9    7   10 1   
    10    7   15 1   
    11    8    9 1   
    12    8   16 1   
    13   10   11 1   
    14   10   12 1   
    15   10   17 1   
@<TRIPOS>SUBSTRUCTURE
     1 B6S         1 TEMP              0 ****  ****    0 ROOT
