@<TRIPOS>MOLECULE
B6S
   17    13     1     0     0
SMALL
bcc


@<TRIPOS>ATOM
      1 C1         -1.7770   -0.5130   -3.1080 c1        1 B6S      0.246900
      2 N1         -0.3560   -0.6100   -3.0770 n1        1 B6S     -0.512600
      3 S1         -2.2640   -0.2430   -1.6740 ss        1 B6S     -0.103200
      4 C2          0.1270   -0.4000   -1.5820 cg        1 B6S      0.019800
      5 C3         -1.0200   -0.1830   -0.7650 c1        1 B6S     -0.089900
      6 C4         -0.8700    0.0340    0.5970 c1        1 B6S      0.047500
      7 C5          0.4070    0.0410    1.1670 c1        1 B6S     -0.218400
      8 C6          1.5420   -0.1730    0.3590 c1        1 B6S      0.012500
      9 C7          1.3930   -0.3930   -1.0140 c1        1 B6S     -0.060500
     10 S8          0.5190    0.7750    2.7770 s4        1 B6S      1.630200
     11 O9         -0.4530    0.1350    3.7400 o         1 B6S     -0.674400
     12 O10         1.8390    0.4520    3.4350 o         1 B6S     -0.674400
     13 H1         -2.3440   -0.6500   -3.8910 DU        1 B6S      0.170000
     14 H4         -1.6550    0.1830    1.1580 ha        1 B6S      0.100500
     15 H6          2.4330   -0.1680    0.7580 ha        1 B6S      0.093500
     16 H7          2.1780   -0.5540   -1.5700 ha        1 B6S      0.073500
     17 OXT         0.3010    2.2660    2.6880 os        1 B6S     -1.060000
@<TRIPOS>BOND
     1    1    2 3   
     2    1    3 1   
     3    2    4 1   
     4    3    5 1   
     5    4    9 3   
     6    5    6 3   
     7    6   14 1   
     8    7    8 3   
     9    7   10 1   
    10    8   15 1   
    11    9   16 1   
    12   10   11 1   
    13   10   12 1   
@<TRIPOS>SUBSTRUCTURE
     1 B6S         1 TEMP              0 ****  ****    0 ROOT
