@<TRIPOS>MOLECULE
B6S
   17    18     1     0     0
SMALL
bcc


@<TRIPOS>ATOM
      1 C1         -3.8750   -0.0720    0.0240 cc        1 B6S      0.337100
      2 N1         -3.2470   -1.2270    0.0450 nd        1 B6S     -0.534100
      3 S1         -2.8880    1.3440   -0.0220 ss        1 B6S     -0.104100
      4 C2         -1.8570   -1.0020    0.0240 ca        1 B6S      0.079400
      5 C3         -1.4830    0.3830   -0.0130 ca        1 B6S     -0.088100
      6 C4         -0.1370    0.7460   -0.0340 ca        1 B6S     -0.010000
      7 C5          0.8440   -0.2340   -0.0160 ca        1 B6S     -0.232500
      8 C6          0.4750   -1.5870    0.0100 ca        1 B6S     -0.045000
      9 C7         -0.8530   -1.9880    0.0320 ca        1 B6S     -0.118000
     10 S8          2.5750    0.2190   -0.0200 s6        1 B6S      1.459100
     11 O9          3.2040   -0.8150   -0.7470 o         1 B6S     -0.741200
     12 O10         2.6000    1.4820   -0.6520 o         1 B6S     -0.741200
     13 H1         -4.9650   -0.0070    0.0350 h5        1 B6S      0.040800
     14 H4          0.1610    1.8080   -0.0790 ha        1 B6S      0.158000
     15 H6          1.2780   -2.3450   -0.0010 ha        1 B6S      0.151000
     16 H7         -1.1260   -3.0510    0.0530 ha        1 B6S      0.131000
     17 OXT         2.9360    0.2570    1.3430 o         1 B6S     -0.741200
@<TRIPOS>BOND
     1    1    2 2   
     2    1    3 1   
     3    1   13 1   
     4    2    4 1   
     5    3    5 1   
     6    4    5 ar  
     7    4    9 ar  
     8    5    6 ar  
     9    6    7 ar  
    10    6   14 1   
    11    7    8 ar  
    12    7   10 1   
    13    8    9 ar  
    14    8   15 1   
    15    9   16 1   
    16   10   11 1   
    17   10   12 1   
    18   10   17 1   
@<TRIPOS>SUBSTRUCTURE
     1 B6S         1 TEMP              0 ****  ****    0 ROOT
