@<TRIPOS>MOLECULE
B6S
   17    16     1     0     0
SMALL
bcc


@<TRIPOS>ATOM
      1 C1          0.9570   -0.2680   -1.2650 c1        1 B6S      0.401800
      2 N1          1.3190   -0.1240   -0.1500 n1        1 B6S     -1.089500
      3 S1         -0.6920   -0.3370    2.2730 sh        1 B6S     -0.223400
      4 C2          1.7910    0.0510    1.1430 ce        1 B6S      0.609000
      5 C3          0.9730   -0.0430    2.2380 cf        1 B6S      0.080600
      6 C4          1.4570    0.1270    3.6030 cf        1 B6S     -0.092000
      7 C5          2.5750   -0.3960    4.1020 c2        1 B6S     -0.273100
      8 C6          4.3320    0.6160    1.3790 c1        1 B6S     -0.108500
      9 C7          3.1700    0.3520    1.2680 cg        1 B6S     -0.160300
     10 S8          3.1380   -0.1870    5.7670 s6        1 B6S      1.448700
     11 O9          4.4080    0.4140    5.6180 o         1 B6S     -0.742867
     12 O10         2.1730    0.6400    6.3860 o         1 B6S     -0.742867
     13 H1         -0.9940   -0.4540    0.9970 hs        1 B6S      0.165800
     14 H4          0.7920    0.7300    4.2570 ha        1 B6S      0.161000
     15 H6          3.2410   -1.0060    3.4760 h4        1 B6S      0.138000
     16 H7          5.3560    0.8460    1.5260 ha        1 B6S      0.170500
     17 OXT         3.1870   -1.5030    6.2790 o         1 B6S     -0.742867
@<TRIPOS>BOND
     1    1    2 3   
     2    2    4 1   
     3    3    5 1   
     4    3   13 1   
     5    4    5 2   
     6    4    9 1   
     7    5    6 1   
     8    6    7 2   
     9    6   14 1   
    10    7   10 1   
    11    7   15 1   
    12    8    9 3   
    13    8   16 1   
    14   10   11 1   
    15   10   12 1   
    16   10   17 1   
@<TRIPOS>SUBSTRUCTURE
     1 B6S         1 TEMP              0 ****  ****    0 ROOT
