@<TRIPOS>MOLECULE
B71
   55    55     1     0     0
SMALL
bcc


@<TRIPOS>ATOM
      1 CAA         0.1040    0.0500    0.0530 c3        1 B71     -0.207000
      2 CAL         1.5460   -0.3810    0.1330 c3        1 B71     -0.161000
      3 CAM         2.1620   -0.0290    1.4700 c3        1 B71     -0.156000
      4 CAN         3.6090   -0.4650    1.5430 c3        1 B71     -0.160000
      5 CAO         4.2260   -0.1130    2.8800 c3        1 B71     -0.155000
      6 CAP         5.6740   -0.5500    2.9510 c3        1 B71     -0.162000
      7 CAQ         6.2950   -0.1990    4.2860 c3        1 B71     -0.151000
      8 CAR         7.7440   -0.6350    4.3480 c3        1 B71     -0.165000
      9 CAS         8.3710   -0.2880    5.6800 c3        1 B71     -0.156000
     10 CAT         9.8300   -0.7240    5.6880 c3        1 B71     -0.034000
     11 OAV        10.3600   -0.3190    6.9580 os        1 B71     -0.272000
     12 CAW        11.6580   -0.7600    7.1980 c2        1 B71     -0.049000
     13 CAK        12.5940   -0.9810    6.0140 c3        1 B71      0.224000
     14 CAI        12.0320   -0.9350    8.4910 c2        1 B71     -0.140000
     15 CAH        13.3870   -1.2880    8.7910 c2        1 B71     -0.418000
     16 CAJ        14.2890   -1.4210    7.7520 c2        1 B71      0.064000
     17 NAY        14.0010   -1.1320    6.4660 n3        1 B71     -0.259000
     18 CAU        14.9550   -1.3650    5.3590 c3        1 B71      0.036000
     19 CAX        14.5350   -2.3080    4.3100 c2        1 B71     -1.450000
     20 PBA        13.0400   -2.1630    3.7350 p5        1 B71      2.111000
     21 OAF        12.5840   -0.8510    3.1850 o         1 B71     -0.922500
     22 OAG        12.4130   -3.3830    3.1550 o         1 B71     -0.922500
     23 OAC        12.1700   -2.0570    5.2620 os        1 B71     -0.738000
     24 PAZ        16.5730   -2.1260    3.4440 p3        1 B71      2.561000
     25 OAD        17.2640   -3.0270    4.4220 o         1 B71     -1.223667
     26 OAE        16.9180   -0.6770    3.5900 o         1 B71     -1.223667
     27 OAB        16.4480   -2.6410    2.0510 o         1 B71     -1.223667
     28 HAA1       -0.5010   -0.4490    0.8490 hc        1 B71      0.063333
     29 HAA2        0.0150    1.1550    0.1900 hc        1 B71      0.063333
     30 HAA3       -0.3300   -0.2190   -0.9400 hc        1 B71      0.063333
     31 HAL1        1.6170   -1.4890   -0.0310 hc        1 B71      0.078500
     32 HAL2        2.1320    0.1100   -0.6880 hc        1 B71      0.078500
     33 HAM1        1.5790   -0.5210    2.2930 hc        1 B71      0.072500
     34 HAM2        2.0940    1.0780    1.6340 hc        1 B71      0.072500
     35 HAN1        4.1930    0.0270    0.7210 hc        1 B71      0.081500
     36 HAN2        3.6780   -1.5730    1.3790 hc        1 B71      0.081500
     37 HAO1        3.6440   -0.6050    3.7040 hc        1 B71      0.068000
     38 HAO2        4.1590    0.9940    3.0450 hc        1 B71      0.068000
     39 HAP1        5.7430   -1.6570    2.7860 hc        1 B71      0.086000
     40 HAP2        6.2580   -0.0580    2.1280 hc        1 B71      0.086000
     41 HAQ1        6.2270    0.9080    4.4530 hc        1 B71      0.061000
     42 HAQ2        5.7160   -0.6930    5.1110 hc        1 B71      0.061000
     43 HAR1        8.3270   -0.1440    3.5240 hc        1 B71      0.101000
     44 HAR2        7.8160   -1.7430    4.1800 hc        1 B71      0.101000
     45 HAS1        8.3050    0.8150    5.8630 hc        1 B71      0.056500
     46 HAS2        7.8180   -0.7950    6.5130 hc        1 B71      0.056500
     47 HAT1       10.4080   -0.2260    4.8630 h1        1 B71      0.130500
     48 HAT2        9.9300   -1.8350    5.5720 h1        1 B71      0.130500
     49 HAK        12.5940   -0.0490    5.3560 h2        1 B71      0.100000
     50 HAI        11.3250   -0.7850    9.3170 ha        1 B71      0.072000
     51 HAH        13.6890   -1.4570    9.8260 ha        1 B71      0.080000
     52 HAJ        15.3380   -1.7080    7.9630 h4        1 B71      0.109000
     53 HAU1       15.1280   -0.3440    4.8980 h1        1 B71      0.100500
     54 HAU2       15.9330   -1.6970    5.8230 h1        1 B71      0.100500
     55 HAX        14.8230   -3.3540    4.5090 ha        1 B71      0.131000
@<TRIPOS>BOND
     1    1    2 1   
     2    1   28 1   
     3    1   29 1   
     4    1   30 1   
     5    2    3 1   
     6    2   31 1   
     7    2   32 1   
     8    3    4 1   
     9    3   33 1   
    10    3   34 1   
    11    4    5 1   
    12    4   35 1   
    13    4   36 1   
    14    5    6 1   
    15    5   37 1   
    16    5   38 1   
    17    6    7 1   
    18    6   39 1   
    19    6   40 1   
    20    7    8 1   
    21    7   41 1   
    22    7   42 1   
    23    8    9 1   
    24    8   43 1   
    25    8   44 1   
    26    9   10 1   
    27    9   45 1   
    28    9   46 1   
    29   10   11 1   
    30   10   47 1   
    31   10   48 1   
    32   11   12 1   
    33   12   13 1   
    34   12   14 1   
    35   13   17 1   
    36   13   23 1   
    37   13   49 1   
    38   14   15 1   
    39   14   50 1   
    40   15   16 1   
    41   15   51 1   
    42   16   17 1   
    43   16   52 1   
    44   17   18 1   
    45   18   19 1   
    46   18   53 1   
    47   18   54 1   
    48   19   20 1   
    49   19   55 1   
    50   20   21 1   
    51   20   22 1   
    52   20   23 1   
    53   24   25 1   
    54   24   26 1   
    55   24   27 1   
@<TRIPOS>SUBSTRUCTURE
     1 B71         1 TEMP              0 ****  ****    0 ROOT
