@<TRIPOS>MOLECULE
B71
   55    55     1     0     0
SMALL
bcc


@<TRIPOS>ATOM
      1 CAA         0.1020    0.0610    0.0600 c3        1 B71     -0.207000
      2 CAL         1.5450   -0.3680    0.1360 c3        1 B71     -0.161000
      3 CAM         2.1600   -0.0240    1.4760 c3        1 B71     -0.156000
      4 CAN         3.6090   -0.4570    1.5460 c3        1 B71     -0.160000
      5 CAO         4.2250   -0.1130    2.8850 c3        1 B71     -0.155000
      6 CAP         5.6740   -0.5470    2.9530 c3        1 B71     -0.162000
      7 CAQ         6.2940   -0.2050    4.2910 c3        1 B71     -0.151000
      8 CAR         7.7430   -0.6390    4.3500 c3        1 B71     -0.165000
      9 CAS         8.3700   -0.2990    5.6840 c3        1 B71     -0.156000
     10 CAT         9.8290   -0.7320    5.6890 c3        1 B71     -0.034000
     11 OAV        10.3590   -0.3340    6.9620 os        1 B71     -0.272000
     12 CAW        11.6590   -0.7750    7.1990 c2        1 B71     -0.049000
     13 CAK        12.5940   -0.9870    6.0130 c3        1 B71      0.224000
     14 CAI        12.0320   -0.9570    8.4910 c2        1 B71     -0.140000
     15 CAH        13.3880   -1.3100    8.7880 c2        1 B71     -0.418000
     16 CAJ        14.2900   -1.4350    7.7480 c2        1 B71      0.064000
     17 NAY        14.0020   -1.1380    6.4640 n3        1 B71     -0.259000
     18 CAU        14.9560   -1.3630    5.3550 c3        1 B71      0.036000
     19 CAX        14.5370   -2.3000    4.3010 c2        1 B71     -1.450000
     20 PBA        13.0420   -2.1550    3.7270 p5        1 B71      2.111000
     21 OAF        12.5840   -0.8400    3.1850 o         1 B71     -0.922500
     22 OAG        12.4160   -3.3720    3.1390 o         1 B71     -0.922500
     23 OAC        12.1720   -2.0590    5.2540 os        1 B71     -0.738000
     24 PAZ        16.5750   -2.1100    3.4360 p3        1 B71      2.561000
     25 OAD        17.2670   -3.0160    4.4080 o         1 B71     -1.223667
     26 OAE        16.9170   -0.6620    3.5900 o         1 B71     -1.223667
     27 OAB        16.4500   -2.6170    2.0390 o         1 B71     -1.223667
     28 HAA1       -0.5010   -0.4440    0.8520 hc        1 B71      0.063333
     29 HAA2        0.0120    1.1650    0.2030 hc        1 B71      0.063333
     30 HAA3       -0.3310   -0.2020   -0.9350 hc        1 B71      0.063333
     31 HAL1        1.6190   -1.4750   -0.0350 hc        1 B71      0.078500
     32 HAL2        2.1300    0.1300   -0.6820 hc        1 B71      0.078500
     33 HAM1        1.5780   -0.5230    2.2950 hc        1 B71      0.072500
     34 HAM2        2.0900    1.0830    1.6480 hc        1 B71      0.072500
     35 HAN1        4.1910    0.0410    0.7270 hc        1 B71      0.081500
     36 HAN2        3.6800   -1.5640    1.3740 hc        1 B71      0.081500
     37 HAO1        3.6440   -0.6120    3.7050 hc        1 B71      0.068000
     38 HAO2        4.1560    0.9930    3.0580 hc        1 B71      0.068000
     39 HAP1        5.7450   -1.6540    2.7810 hc        1 B71      0.086000
     40 HAP2        6.2560   -0.0490    2.1340 hc        1 B71      0.086000
     41 HAQ1        6.2240    0.9010    4.4650 hc        1 B71      0.061000
     42 HAQ2        5.7160   -0.7050    5.1120 hc        1 B71      0.061000
     43 HAR1        8.3260   -0.1410    3.5290 hc        1 B71      0.101000
     44 HAR2        7.8170   -1.7440    4.1740 hc        1 B71      0.101000
     45 HAS1        8.3030    0.8030    5.8740 hc        1 B71      0.056500
     46 HAS2        7.8180   -0.8120    6.5130 hc        1 B71      0.056500
     47 HAT1       10.4070   -0.2290    4.8670 h1        1 B71      0.130500
     48 HAT2        9.9320   -1.8430    5.5660 h1        1 B71      0.130500
     49 HAK        12.5930   -0.0510    5.3600 h2        1 B71      0.100000
     50 HAI        11.3260   -0.8130    9.3180 ha        1 B71      0.072000
     51 HAH        13.6910   -1.4840    9.8210 ha        1 B71      0.080000
     52 HAJ        15.3400   -1.7220    7.9570 h4        1 B71      0.109000
     53 HAU1       15.1270   -0.3390    4.9010 h1        1 B71      0.100500
     54 HAU2       15.9340   -1.6960    5.8170 h1        1 B71      0.100500
     55 HAX        14.8270   -3.3480    4.4930 ha        1 B71      0.131000
@<TRIPOS>BOND
     1    1    2 1   
     2    1   28 1   
     3    1   29 1   
     4    1   30 1   
     5    2    3 1   
     6    2   31 1   
     7    2   32 1   
     8    3    4 1   
     9    3   33 1   
    10    3   34 1   
    11    4    5 1   
    12    4   35 1   
    13    4   36 1   
    14    5    6 1   
    15    5   37 1   
    16    5   38 1   
    17    6    7 1   
    18    6   39 1   
    19    6   40 1   
    20    7    8 1   
    21    7   41 1   
    22    7   42 1   
    23    8    9 1   
    24    8   43 1   
    25    8   44 1   
    26    9   10 1   
    27    9   45 1   
    28    9   46 1   
    29   10   11 1   
    30   10   47 1   
    31   10   48 1   
    32   11   12 1   
    33   12   13 1   
    34   12   14 1   
    35   13   17 1   
    36   13   23 1   
    37   13   49 1   
    38   14   15 1   
    39   14   50 1   
    40   15   16 1   
    41   15   51 1   
    42   16   17 1   
    43   16   52 1   
    44   17   18 1   
    45   18   19 1   
    46   18   53 1   
    47   18   54 1   
    48   19   20 1   
    49   19   55 1   
    50   20   21 1   
    51   20   22 1   
    52   20   23 1   
    53   24   25 1   
    54   24   26 1   
    55   24   27 1   
@<TRIPOS>SUBSTRUCTURE
     1 B71         1 TEMP              0 ****  ****    0 ROOT
