@<TRIPOS>MOLECULE
B71
   55    55     1     0     0
SMALL
bcc


@<TRIPOS>ATOM
      1 CAA         2.9510   -5.1000   -1.1870 c3        1 B71     -0.207000
      2 CAL         2.4070   -4.9740   -2.5870 c3        1 B71     -0.161000
      3 CAM         0.8930   -4.9530   -2.5990 c3        1 B71     -0.156000
      4 CAN         0.3530   -4.8270   -4.0070 c3        1 B71     -0.160000
      5 CAO        -1.1600   -4.8060   -4.0190 c3        1 B71     -0.155000
      6 CAP        -1.6980   -4.6790   -5.4290 c3        1 B71     -0.162000
      7 CAQ        -3.2120   -4.6580   -5.4460 c3        1 B71     -0.151000
      8 CAR        -3.7420   -4.5350   -6.8590 c3        1 B71     -0.165000
      9 CAS        -5.2550   -4.5140   -6.8830 c3        1 B71     -0.156000
     10 CAT        -5.7420   -4.4130   -8.3220 c3        1 B71     -0.034000
     11 OAV        -7.1750   -4.4470   -8.2610 os        1 B71     -0.272000
     12 CAW        -7.8000   -4.2260   -9.4850 c2        1 B71     -0.049000
     13 CAK        -7.0790   -4.6320  -10.7670 c3        1 B71      0.224000
     14 CAI        -9.0470   -3.6900   -9.4640 c2        1 B71     -0.140000
     15 CAH        -9.7700   -3.5410  -10.6910 c2        1 B71     -0.418000
     16 CAJ        -9.1850   -3.9690  -11.8680 c2        1 B71      0.064000
     17 NAY        -8.0070   -4.6250  -11.9260 n3        1 B71     -0.259000
     18 CAU        -7.3590   -4.9960  -13.2040 c3        1 B71      0.036000
     19 CAX        -6.0320   -4.4170  -13.4660 c2        1 B71     -1.450000
     20 PBA        -4.9590   -4.4430  -12.2690 p5        1 B71      2.111000
     21 OAF        -4.6150   -5.7410  -11.6140 o         1 B71     -0.922500
     22 OAG        -3.8930   -3.4030  -12.2870 o         1 B71     -0.922500
     23 OAC        -5.9800   -3.8260  -10.9740 os        1 B71     -0.738000
     24 PAZ        -6.1360   -5.3050  -15.5000 p3        1 B71      2.561000
     25 OAD        -7.0530   -4.2800  -16.0960 o         1 B71     -1.223667
     26 OAE        -6.7620   -6.6480  -15.2940 o         1 B71     -1.223667
     27 OAB        -4.7310   -5.2970  -15.9970 o         1 B71     -1.223667
     28 HAA1        2.5930   -6.0440   -0.7090 hc        1 B71      0.063333
     29 HAA2        2.6170   -4.2410   -0.5560 hc        1 B71      0.063333
     30 HAA3        4.0680   -5.1140   -1.2020 hc        1 B71      0.063333
     31 HAL1        2.7960   -4.0340   -3.0590 hc        1 B71      0.078500
     32 HAL2        2.7720   -5.8320   -3.2120 hc        1 B71      0.078500
     33 HAM1        0.5010   -5.8940   -2.1290 hc        1 B71      0.072500
     34 HAM2        0.5250   -4.0960   -1.9760 hc        1 B71      0.072500
     35 HAN1        0.7210   -5.6840   -4.6300 hc        1 B71      0.081500
     36 HAN2        0.7450   -3.8860   -4.4770 hc        1 B71      0.081500
     37 HAO1       -1.5530   -5.7460   -3.5500 hc        1 B71      0.068000
     38 HAO2       -1.5290   -3.9480   -3.3970 hc        1 B71      0.068000
     39 HAP1       -1.3310   -5.5370   -6.0520 hc        1 B71      0.086000
     40 HAP2       -1.3060   -3.7400   -5.9000 hc        1 B71      0.086000
     41 HAQ1       -3.5830   -3.7990   -4.8260 hc        1 B71      0.061000
     42 HAQ2       -3.6060   -5.5970   -4.9750 hc        1 B71      0.061000
     43 HAR1       -3.3730   -5.3930   -7.4820 hc        1 B71      0.101000
     44 HAR2       -3.3490   -3.5980   -7.3330 hc        1 B71      0.101000
     45 HAS1       -5.6620   -5.4450   -6.4110 hc        1 B71      0.056500
     46 HAS2       -5.6400   -3.6460   -6.2890 hc        1 B71      0.056500
     47 HAT1       -5.3720   -5.2760   -8.9390 h1        1 B71      0.130500
     48 HAT2       -5.4050   -3.4590   -8.8070 h1        1 B71      0.130500
     49 HAK        -6.7300   -5.7150  -10.6750 h2        1 B71      0.100000
     50 HAI        -9.5270   -3.3920   -8.5230 ha        1 B71      0.072000
     51 HAH       -10.7610   -3.0860  -10.6870 ha        1 B71      0.080000
     52 HAJ        -9.7230   -3.8480  -12.8290 h4        1 B71      0.109000
     53 HAU1       -8.0800   -4.7310  -14.0350 h1        1 B71      0.100500
     54 HAU2       -7.2760   -6.1260  -13.1750 h1        1 B71      0.100500
     55 HAX        -6.0640   -3.4500  -13.9970 ha        1 B71      0.131000
@<TRIPOS>BOND
     1    1    2 1   
     2    1   28 1   
     3    1   29 1   
     4    1   30 1   
     5    2    3 1   
     6    2   31 1   
     7    2   32 1   
     8    3    4 1   
     9    3   33 1   
    10    3   34 1   
    11    4    5 1   
    12    4   35 1   
    13    4   36 1   
    14    5    6 1   
    15    5   37 1   
    16    5   38 1   
    17    6    7 1   
    18    6   39 1   
    19    6   40 1   
    20    7    8 1   
    21    7   41 1   
    22    7   42 1   
    23    8    9 1   
    24    8   43 1   
    25    8   44 1   
    26    9   10 1   
    27    9   45 1   
    28    9   46 1   
    29   10   11 1   
    30   10   47 1   
    31   10   48 1   
    32   11   12 1   
    33   12   13 1   
    34   12   14 1   
    35   13   17 1   
    36   13   23 1   
    37   13   49 1   
    38   14   15 1   
    39   14   50 1   
    40   15   16 1   
    41   15   51 1   
    42   16   17 1   
    43   16   52 1   
    44   17   18 1   
    45   18   19 1   
    46   18   53 1   
    47   18   54 1   
    48   19   20 1   
    49   19   55 1   
    50   20   21 1   
    51   20   22 1   
    52   20   23 1   
    53   24   25 1   
    54   24   26 1   
    55   24   27 1   
@<TRIPOS>SUBSTRUCTURE
     1 B71         1 TEMP              0 ****  ****    0 ROOT
