@<TRIPOS>MOLECULE
B72
   47    48     1     0     0
SMALL
bcc


@<TRIPOS>ATOM
      1 O1          0.0700    1.8280   -0.3010 o         1 B72     -0.819800
      2 C20         0.2400    0.7070   -0.8460 c         1 B72      0.926600
      3 O2         -0.4190   -0.3390   -0.6090 o         1 B72     -0.819800
      4 C19         1.3100    0.6250   -1.9760 c3        1 B72     -0.011600
      5 O3          2.5480    0.2520   -1.3580 os        1 B72     -0.285900
      6 C1          3.6230    0.1100   -2.1890 ca        1 B72      0.170100
      7 C2          4.8280   -0.2670   -1.5590 ca        1 B72     -0.203000
      8 C3          5.9850   -0.4410   -2.3110 ca        1 B72     -0.040300
      9 C17         7.2380   -0.8360   -1.6200 c3        1 B72     -0.051800
     10 C4          5.9660   -0.2420   -3.7070 ca        1 B72     -0.155300
     11 C5          4.7630    0.1300   -4.3300 ca        1 B72     -0.040300
     12 C6          3.5990    0.3060   -3.5770 ca        1 B72     -0.203000
     13 C18         4.7000    0.3440   -5.7970 c3        1 B72     -0.051800
     14 C7          7.2180   -0.3940   -4.5000 c3        1 B72      0.024200
     15 C8          7.4920   -1.7810   -4.9790 ca        1 B72     -0.095300
     16 C13         8.7990   -2.1320   -5.3340 ca        1 B72     -0.107000
     17 C12         9.1140   -3.4060   -5.8140 ca        1 B72     -0.102300
     18 C14        10.5180   -3.7620   -6.1880 c3        1 B72     -0.016400
     19 C16        11.0170   -2.8870   -7.3220 c3        1 B72     -0.085100
     20 C15        11.4430   -3.6550   -4.9900 c3        1 B72     -0.085100
     21 C11         8.0690   -4.3440   -5.9340 ca        1 B72      0.110100
     22 O4          8.3890   -5.6000   -6.4110 oh        1 B72     -0.509100
     23 C10         6.7550   -4.0070   -5.5810 ca        1 B72     -0.209000
     24 C9          6.4720   -2.7310   -5.1070 ca        1 B72     -0.081000
     25 H119        1.0200   -0.1520   -2.7260 h1        1 B72      0.021200
     26 H219        1.4290    1.6230   -2.4690 h1        1 B72      0.021200
     27 H2          4.8280   -0.4200   -0.4700 ha        1 B72      0.145000
     28 H117        7.9540    0.0240   -1.5990 hc        1 B72      0.037700
     29 H217        7.7270   -1.6890   -2.1530 hc        1 B72      0.037700
     30 H317        7.0350   -1.1470   -0.5660 hc        1 B72      0.037700
     31 H6          2.6660    0.6000   -4.0770 ha        1 B72      0.145000
     32 H118        5.1590   -0.5220   -6.3380 hc        1 B72      0.037700
     33 H218        5.2590    1.2720   -6.0780 hc        1 B72      0.037700
     34 H318        3.6430    0.4560   -6.1440 hc        1 B72      0.037700
     35 H17         7.1790    0.2800   -5.4020 hc        1 B72      0.046700
     36 H27         8.0920   -0.0440   -3.8820 hc        1 B72      0.046700
     37 H13         9.6050   -1.3880   -5.2320 ha        1 B72      0.129000
     38 H14        10.5340   -4.8340   -6.5430 hc        1 B72      0.067700
     39 H116       11.0320   -1.8130   -7.0160 hc        1 B72      0.032033
     40 H216       12.0530   -3.1890   -7.6100 hc        1 B72      0.032033
     41 H316       10.3530   -2.9910   -8.2130 hc        1 B72      0.032033
     42 H115       11.4750   -2.6060   -4.6070 hc        1 B72      0.032033
     43 H215       12.4770   -3.9590   -5.2780 hc        1 B72      0.032033
     44 H315       11.0900   -4.3210   -4.1670 hc        1 B72      0.032033
     45 HO4         7.5790   -6.1300   -6.4000 ho        1 B72      0.414000
     46 H10         5.9520   -4.7520   -5.6750 ha        1 B72      0.131000
     47 H9          5.4410   -2.4620   -4.8220 ha        1 B72      0.158000
@<TRIPOS>BOND
     1    1    2 1   
     2    2    3 1   
     3    2    4 1   
     4    4    5 1   
     5    4   25 1   
     6    4   26 1   
     7    5    6 1   
     8    6    7 ar  
     9    6   12 ar  
    10    7    8 ar  
    11    7   27 1   
    12    8    9 1   
    13    8   10 ar  
    14    9   28 1   
    15    9   29 1   
    16    9   30 1   
    17   10   11 ar  
    18   10   14 1   
    19   11   12 ar  
    20   11   13 1   
    21   12   31 1   
    22   13   32 1   
    23   13   33 1   
    24   13   34 1   
    25   14   15 1   
    26   14   35 1   
    27   14   36 1   
    28   15   16 ar  
    29   15   24 ar  
    30   16   17 ar  
    31   16   37 1   
    32   17   18 1   
    33   17   21 ar  
    34   18   19 1   
    35   18   20 1   
    36   18   38 1   
    37   19   39 1   
    38   19   40 1   
    39   19   41 1   
    40   20   42 1   
    41   20   43 1   
    42   20   44 1   
    43   21   22 1   
    44   21   23 ar  
    45   22   45 1   
    46   23   24 ar  
    47   23   46 1   
    48   24   47 1   
@<TRIPOS>SUBSTRUCTURE
     1 B72         1 TEMP              0 ****  ****    0 ROOT
