@<TRIPOS>MOLECULE
B72
   47    48     1     0     0
SMALL
bcc


@<TRIPOS>ATOM
      1 O1          0.0940    1.8560   -0.2870 o         1 B72     -0.819800
      2 C20         0.2550    0.7370   -0.8380 c         1 B72      0.926600
      3 O2         -0.4130   -0.3050   -0.6080 o         1 B72     -0.819800
      4 C19         1.3250    0.6530   -1.9680 c3        1 B72     -0.011600
      5 O3          2.5600    0.2670   -1.3520 os        1 B72     -0.285900
      6 C1          3.6340    0.1210   -2.1840 ca        1 B72      0.170100
      7 C2          4.8350   -0.2680   -1.5550 ca        1 B72     -0.203000
      8 C3          5.9920   -0.4460   -2.3080 ca        1 B72     -0.040300
      9 C17         7.2410   -0.8540   -1.6180 c3        1 B72     -0.051800
     10 C4          5.9750   -0.2400   -3.7020 ca        1 B72     -0.155300
     11 C5          4.7750    0.1440   -4.3240 ca        1 B72     -0.040300
     12 C6          3.6120    0.3260   -3.5710 ca        1 B72     -0.203000
     13 C18         4.7140    0.3670   -5.7900 c3        1 B72     -0.051800
     14 C7          7.2260   -0.3970   -4.4960 c3        1 B72      0.024200
     15 C8          7.4900   -1.7840   -4.9810 ca        1 B72     -0.095300
     16 C13         8.7950   -2.1430   -5.3350 ca        1 B72     -0.107000
     17 C12         9.1000   -3.4180   -5.8220 ca        1 B72     -0.102300
     18 C14        10.5020   -3.7830   -6.1940 c3        1 B72     -0.016400
     19 C16        11.0110   -2.9050   -7.3230 c3        1 B72     -0.085100
     20 C15        11.4250   -3.6890   -4.9940 c3        1 B72     -0.085100
     21 C11         8.0490   -4.3460   -5.9480 ca        1 B72      0.110100
     22 O4          8.3590   -5.6020   -6.4310 oh        1 B72     -0.509100
     23 C10         6.7360   -4.0010   -5.5960 ca        1 B72     -0.209000
     24 C9          6.4630   -2.7240   -5.1160 ca        1 B72     -0.081000
     25 H119        1.0290   -0.1180   -2.7230 h1        1 B72      0.021200
     26 H219        1.4520    1.6530   -2.4560 h1        1 B72      0.021200
     27 H2          4.8340   -0.4260   -0.4670 ha        1 B72      0.145000
     28 H117        7.9640    0.0010   -1.5920 hc        1 B72      0.037700
     29 H217        7.7250   -1.7080   -2.1550 hc        1 B72      0.037700
     30 H317        7.0360   -1.1690   -0.5660 hc        1 B72      0.037700
     31 H6          2.6810    0.6290   -4.0700 ha        1 B72      0.145000
     32 H118        5.1660   -0.5000   -6.3350 hc        1 B72      0.037700
     33 H218        5.2800    1.2920   -6.0660 hc        1 B72      0.037700
     34 H318        3.6590    0.4890   -6.1370 hc        1 B72      0.037700
     35 H17         7.1930    0.2820   -5.3940 hc        1 B72      0.046700
     36 H27         8.1020   -0.0570   -3.8760 hc        1 B72      0.046700
     37 H13         9.6060   -1.4060   -5.2280 ha        1 B72      0.129000
     38 H14        10.5100   -4.8520   -6.5560 hc        1 B72      0.067700
     39 H116       11.0340   -1.8330   -7.0110 hc        1 B72      0.032033
     40 H216       12.0450   -3.2140   -7.6100 hc        1 B72      0.032033
     41 H316       10.3480   -2.9990   -8.2160 hc        1 B72      0.032033
     42 H115       11.4650   -2.6430   -4.6050 hc        1 B72      0.032033
     43 H215       12.4590   -4.0000   -5.2820 hc        1 B72      0.032033
     44 H315       11.0660   -4.3570   -4.1750 hc        1 B72      0.032033
     45 HO4         7.5460   -6.1260   -6.4250 ho        1 B72      0.414000
     46 H10         5.9270   -4.7380   -5.6950 ha        1 B72      0.131000
     47 H9          5.4330   -2.4500   -4.8320 ha        1 B72      0.158000
@<TRIPOS>BOND
     1    1    2 1   
     2    2    3 1   
     3    2    4 1   
     4    4    5 1   
     5    4   25 1   
     6    4   26 1   
     7    5    6 1   
     8    6    7 ar  
     9    6   12 ar  
    10    7    8 ar  
    11    7   27 1   
    12    8    9 1   
    13    8   10 ar  
    14    9   28 1   
    15    9   29 1   
    16    9   30 1   
    17   10   11 ar  
    18   10   14 1   
    19   11   12 ar  
    20   11   13 1   
    21   12   31 1   
    22   13   32 1   
    23   13   33 1   
    24   13   34 1   
    25   14   15 1   
    26   14   35 1   
    27   14   36 1   
    28   15   16 ar  
    29   15   24 ar  
    30   16   17 ar  
    31   16   37 1   
    32   17   18 1   
    33   17   21 ar  
    34   18   19 1   
    35   18   20 1   
    36   18   38 1   
    37   19   39 1   
    38   19   40 1   
    39   19   41 1   
    40   20   42 1   
    41   20   43 1   
    42   20   44 1   
    43   21   22 1   
    44   21   23 ar  
    45   22   45 1   
    46   23   24 ar  
    47   23   46 1   
    48   24   47 1   
@<TRIPOS>SUBSTRUCTURE
     1 B72         1 TEMP              0 ****  ****    0 ROOT
