@<TRIPOS>MOLECULE
B72
   47    48     1     0     0
SMALL
bcc


@<TRIPOS>ATOM
      1 O1         -6.5670   -1.6770    0.0430 o         1 B72     -0.820300
      2 C20        -5.4950   -1.9270   -0.5670 c         1 B72      0.926600
      3 O2         -5.2840   -2.9150   -1.3170 o         1 B72     -0.820300
      4 C19        -4.3560   -0.8710   -0.4440 c3        1 B72     -0.011600
      5 O3         -3.4670   -1.3290    0.5830 os        1 B72     -0.286900
      6 C1         -2.3650   -0.5570    0.8220 ca        1 B72      0.169100
      7 C2         -1.4920   -1.0460    1.8170 ca        1 B72     -0.203500
      8 C3         -0.3360   -0.3420    2.1390 ca        1 B72     -0.040300
      9 C17         0.5630   -0.8870    3.1870 c3        1 B72     -0.051800
     10 C4         -0.0280    0.8640    1.4780 ca        1 B72     -0.154300
     11 C5         -0.9020    1.3470    0.4900 ca        1 B72     -0.040300
     12 C6         -2.0630    0.6430    0.1630 ca        1 B72     -0.203500
     13 C18        -0.6110    2.6150   -0.2250 c3        1 B72     -0.051800
     14 C7          1.1940    1.6360    1.8410 c3        1 B72      0.024200
     15 C8          2.3940    1.3370    1.0050 ca        1 B72     -0.095300
     16 C13         2.5240    0.1300    0.3130 ca        1 B72     -0.082000
     17 C12         3.6610   -0.1590   -0.4480 ca        1 B72     -0.146300
     18 C14         3.7950   -1.4580   -1.1790 c3        1 B72     -0.018400
     19 C16         2.9680   -2.5720   -0.5670 c3        1 B72     -0.092100
     20 C15         3.4300   -1.2880   -2.6440 c3        1 B72     -0.092100
     21 C11         4.6790    0.8120   -0.5140 ca        1 B72      0.110100
     22 O4          5.8490    0.6540   -1.2280 oh        1 B72     -0.513100
     23 C10         4.5660    2.0280    0.1810 ca        1 B72     -0.161000
     24 C9          3.4280    2.2810    0.9360 ca        1 B72     -0.114000
     25 H119       -3.7990   -0.7930   -1.4110 h1        1 B72      0.021700
     26 H219       -4.7760    0.1240   -0.1500 h1        1 B72      0.021700
     27 H2         -1.7460   -1.9880    2.3240 ha        1 B72      0.144500
     28 H117        1.6180   -0.9260    2.8140 hc        1 B72      0.037867
     29 H217        0.5340   -0.2390    4.0990 hc        1 B72      0.037867
     30 H317        0.2560   -1.9200    3.4850 hc        1 B72      0.037867
     31 H6         -2.7380    1.0320   -0.6120 ha        1 B72      0.144500
     32 H118        0.4480    2.6290   -0.5830 hc        1 B72      0.037867
     33 H218       -1.2840    2.7440   -1.1070 hc        1 B72      0.037867
     34 H318       -0.7630    3.4870    0.4610 hc        1 B72      0.037867
     35 H17         0.9690    2.7370    1.7720 hc        1 B72      0.046200
     36 H27         1.4650    1.4360    2.9160 hc        1 B72      0.046200
     37 H13         1.7000   -0.6020    0.3720 ha        1 B72      0.159000
     38 H14         4.8770   -1.7820   -1.1150 hc        1 B72      0.034700
     39 H116        1.8790   -2.4210   -0.7690 hc        1 B72      0.040033
     40 H216        3.2700   -3.5510   -1.0110 hc        1 B72      0.040033
     41 H316        3.1240   -2.6150    0.5370 hc        1 B72      0.040033
     42 H115        4.0570   -0.4950   -3.1180 hc        1 B72      0.040033
     43 H215        3.5900   -2.2480   -3.1910 hc        1 B72      0.040033
     44 H315        2.3570   -0.9960   -2.7450 hc        1 B72      0.040033
     45 HO4         5.7460   -0.1070   -1.8160 ho        1 B72      0.418000
     46 H10         5.3810    2.7610    0.1150 ha        1 B72      0.139000
     47 H9          3.3360    3.2330    1.4790 ha        1 B72      0.127000
@<TRIPOS>BOND
     1    1    2 1   
     2    2    3 1   
     3    2    4 1   
     4    4    5 1   
     5    4   25 1   
     6    4   26 1   
     7    5    6 1   
     8    6    7 ar  
     9    6   12 ar  
    10    7    8 ar  
    11    7   27 1   
    12    8    9 1   
    13    8   10 ar  
    14    9   28 1   
    15    9   29 1   
    16    9   30 1   
    17   10   11 ar  
    18   10   14 1   
    19   11   12 ar  
    20   11   13 1   
    21   12   31 1   
    22   13   32 1   
    23   13   33 1   
    24   13   34 1   
    25   14   15 1   
    26   14   35 1   
    27   14   36 1   
    28   15   16 ar  
    29   15   24 ar  
    30   16   17 ar  
    31   16   37 1   
    32   17   18 1   
    33   17   21 ar  
    34   18   19 1   
    35   18   20 1   
    36   18   38 1   
    37   19   39 1   
    38   19   40 1   
    39   19   41 1   
    40   20   42 1   
    41   20   43 1   
    42   20   44 1   
    43   21   22 1   
    44   21   23 ar  
    45   22   45 1   
    46   23   24 ar  
    47   23   46 1   
    48   24   47 1   
@<TRIPOS>SUBSTRUCTURE
     1 B72         1 TEMP              0 ****  ****    0 ROOT
