@<TRIPOS>MOLECULE
B72
   47    44     1     0     0
SMALL
bcc


@<TRIPOS>ATOM
      1 O1         -5.6690    1.9920    5.6840 o         1 B72     -0.554500
      2 C20        -4.4700    2.3030    5.7510 c2        1 B72      0.346000
      3 O2         -3.9100    2.4080    6.8700 o         1 B72     -0.554500
      4 C19        -3.6600    2.4570    4.4820 c3        1 B72     -0.112000
      5 O3         -2.9200    1.2740    4.2450 os        1 B72     -0.169000
      6 C1         -2.1320    1.3100    3.0440 c2        1 B72      0.125000
      7 C2         -0.8290    1.7840    3.0860 c1        1 B72     -0.181000
      8 C3         -0.0490    1.7940    1.9250 c2        1 B72     -0.033000
      9 C17         1.3850    2.3400    1.9720 c3        1 B72     -0.176000
     10 C4         -0.5840    1.3240    0.7160 c1        1 B72     -0.148000
     11 C5         -1.8930    0.8480    0.6720 c1        1 B72     -0.033000
     12 C6         -2.6710    0.8390    1.8370 c2        1 B72     -0.225000
     13 C18        -2.5660    0.5390   -0.7220 c3        1 B72     -0.178000
     14 C7          0.2830    1.3820   -0.6090 c3        1 B72     -0.069000
     15 C8          0.8250   -0.0240   -0.9350 c2        1 B72     -0.088000
     16 C13         1.5140   -0.2420   -2.1200 c2        1 B72     -0.110000
     17 C12         1.9060   -1.5170   -2.4660 c1        1 B72     -0.095000
     18 C14         2.7610   -1.7430   -3.7400 c3        1 B72     -0.050000
     19 C16         4.0270   -2.4680   -3.3690 c3        1 B72     -0.207000
     20 C15         1.9900   -2.5610   -4.7210 c3        1 B72     -0.207000
     21 C11         1.6170   -2.5700   -1.6390 c1        1 B72      0.069000
     22 O4          2.0440   -3.9570   -2.0150 oh        1 B72     -0.262000
     23 C10         0.9300   -2.3530   -0.4580 c1        1 B72     -0.210000
     24 C9          0.5370   -1.0740   -0.1120 c1        1 B72     -0.081000
     25 H119       -4.2650    2.6240    3.7250 h1        1 B72      0.060500
     26 H219       -3.0510    3.2080    4.5770 h1        1 B72      0.060500
     27 H2         -0.4520    2.0720    3.9150 DU        1 B72      0.147000
     28 H117        1.9770    1.7170    1.5580 hc        1 B72      0.077333
     29 H217        1.6570    2.4760    2.9160 hc        1 B72      0.077333
     30 H317        1.4270    3.2040    1.4900 hc        1 B72      0.077333
     31 H6         -3.5800    0.5090    1.8080 ha        1 B72      0.143000
     32 H118       -2.2550    1.2130   -1.4010 hc        1 B72      0.077000
     33 H218       -3.5550    0.5920   -0.6320 hc        1 B72      0.077000
     34 H318       -2.3040   -0.3870   -1.0220 hc        1 B72      0.077000
     35 H17        -0.2760    1.6970   -1.3560 hc        1 B72      0.086000
     36 H27         1.0430    2.0070   -0.4810 hc        1 B72      0.086000
     37 H13         1.6930    0.5080   -2.7280 ha        1 B72      0.128000
     38 H14         2.9860   -0.8660   -4.1460 hc        1 B72      0.079000
     39 H116        4.3010   -2.2070   -2.4610 hc        1 B72      0.075000
     40 H216        4.7250   -2.2370   -3.9940 hc        1 B72      0.075000
     41 H316        3.8680   -3.4430   -3.3990 hc        1 B72      0.075000
     42 H115        2.4120   -2.4870   -5.6190 hc        1 B72      0.075000
     43 H215        1.9900   -3.4900   -4.4370 hc        1 B72      0.075000
     44 H315        1.0560   -2.2300   -4.7660 hc        1 B72      0.075000
     45 HO4         1.3780   -4.5490   -1.8040 ho        1 B72      0.212000
     46 H10         0.7250   -3.1000    0.1290 ha        1 B72      0.131000
     47 H9          0.0340   -0.9150    0.7500 ha        1 B72      0.159000
@<TRIPOS>BOND
     1    1    2 1   
     2    2    3 1   
     3    2    4 1   
     4    4    5 1   
     5    4   25 1   
     6    4   26 1   
     7    5    6 1   
     8    6    7 1   
     9    6   12 1   
    10    7    8 1   
    11    8    9 1   
    12    8   10 1   
    13    9   28 1   
    14    9   29 1   
    15    9   30 1   
    16   10   14 1   
    17   11   12 1   
    18   11   13 1   
    19   12   31 1   
    20   13   32 1   
    21   13   33 1   
    22   13   34 1   
    23   14   15 1   
    24   14   35 1   
    25   14   36 1   
    26   15   16 1   
    27   15   24 1   
    28   16   17 1   
    29   16   37 1   
    30   17   18 1   
    31   18   19 1   
    32   18   20 1   
    33   18   38 1   
    34   19   39 1   
    35   19   40 1   
    36   19   41 1   
    37   20   42 1   
    38   20   43 1   
    39   20   44 1   
    40   21   22 1   
    41   21   23 1   
    42   22   45 1   
    43   23   46 1   
    44   24   47 1   
@<TRIPOS>SUBSTRUCTURE
     1 B72         1 TEMP              0 ****  ****    0 ROOT
