@<TRIPOS>MOLECULE
B73
   58    55     1     0     0
SMALL
bcc


@<TRIPOS>ATOM
      1 CAA       -10.3030    0.0050    0.0420 c3        1 B73     -0.091100
      2 OAB         8.7830   -0.7710    0.7030 o         1 B73     -0.777833
      3 OAC         7.3980    3.5160    3.7810 o         1 B73     -0.777833
      4 OAD        10.4670    0.7740    1.6290 o         1 B73     -0.777833
      5 OAE         9.3190   -0.8250    3.1120 o         1 B73     -0.777833
      6 OAF         8.1720    1.4800    4.9490 o         1 B73     -0.777833
      7 OAG         9.7490    2.7850    3.5620 o         1 B73     -0.777833
      8 CAH         4.0780    1.6780    0.0430 c1        1 B73     -0.369300
      9 CAI         5.1000    2.0270    0.8970 c1        1 B73     -0.243300
     10 CAJ         4.8820   -0.1470    0.9410 c1        1 B73     -0.257000
     11 CAK        -9.2970    0.0110   -1.1010 c3        1 B73     -0.080400
     12 CAL        -8.0200   -0.7480   -0.6690 c3        1 B73     -0.078400
     13 CAM        -6.8280   -0.2910   -1.5390 c3        1 B73     -0.079400
     14 CAN        -5.6090   -1.2150   -1.2760 c3        1 B73     -0.078400
     15 CAO        -4.3130   -0.5370   -1.8220 c3        1 B73     -0.079400
     16 CAP        -3.0790   -1.4260   -1.4870 c3        1 B73     -0.077400
     17 CAQ        -1.7770   -0.6740   -1.8810 c3        1 B73     -0.079400
     18 CAR        -0.6080   -1.1570   -0.9830 c3        1 B73     -0.071400
     19 CAS         0.7170   -0.5710   -1.5040 c3        1 B73     -0.096400
     20 CAT         1.6550   -0.2880   -0.3180 c3        1 B73     -0.087400
     21 CAU         3.1030   -0.4330   -0.7730 c3        1 B73      0.086300
     22 CAV         6.5370    0.5780    2.4890 c3        1 B73     -0.091700
     23 CAW         7.8590    1.2980    2.2210 c3        1 B73      0.052900
     24 NAX         3.9500    0.3450    0.0740 n3        1 B73     -0.142400
     25 NAY         5.5860    0.9030    1.4430 n3        1 B73     -0.255400
     26 PAZ         9.1630    0.0670    1.9030 p5        1 B73      1.135700
     27 PBA         8.3150    2.3160    3.6950 p5        1 B73      1.135700
     28 HAA        -9.9260    0.4790    0.8090 hc        1 B73      0.029033
     29 HAAA      -11.1310    0.4550   -0.2470 hc        1 B73      0.029033
     30 HAAB      -10.5030   -0.9160    0.2940 hc        1 B73      0.029033
     31 HAH         3.5400    2.2940   -0.4930 DU        1 B73      0.146667
     32 HAI         5.4130    2.9300    1.0750 DU        1 B73      0.146667
     33 HAJ         5.0200   -1.0870    1.1620 DU        1 B73      0.146667
     34 HAK        -9.0660    0.9360   -1.3290 hc        1 B73      0.037700
     35 HAKA       -9.6890   -0.4300   -1.8820 hc        1 B73      0.037700
     36 HAL        -8.1580   -1.7120   -0.7840 hc        1 B73      0.037700
     37 HALA       -7.8300   -0.5560    0.2720 hc        1 B73      0.037700
     38 HAM        -7.0760   -0.3400   -2.4820 hc        1 B73      0.039200
     39 HAMA       -6.5940    0.6290   -1.3120 hc        1 B73      0.039200
     40 HAN        -5.7450   -2.0750   -1.7310 hc        1 B73      0.035700
     41 HANA       -5.5160   -1.3670   -0.3140 hc        1 B73      0.035700
     42 HAO        -4.3850   -0.4320   -2.7920 hc        1 B73      0.039700
     43 HAOA       -4.2050    0.3420   -1.4050 hc        1 B73      0.039700
     44 HAP        -3.0670   -1.6180   -0.5300 hc        1 B73      0.033200
     45 HAPA       -3.1360   -2.2650   -1.9870 hc        1 B73      0.033200
     46 HAQ        -1.9060    0.2870   -1.7580 hc        1 B73      0.043200
     47 HAQA       -1.5650   -0.8570   -2.8200 hc        1 B73      0.043200
     48 HAR        -0.7570   -0.8590   -0.0650 hc        1 B73      0.024200
     49 HARA       -0.5620   -2.1350   -1.0050 hc        1 B73      0.024200
     50 HAS         0.5390    0.2620   -1.9840 hc        1 B73      0.071700
     51 HASA        1.1430   -1.2130   -2.1110 hc        1 B73      0.071700
     52 HAT         1.4730   -0.9260    0.4000 hc        1 B73      0.018700
     53 HATA        1.5040    0.6220    0.0080 hc        1 B73      0.018700
     54 HAU         3.1870   -0.1210   -1.6930 h1        1 B73      0.013700
     55 HAUA        3.3670   -1.3740   -0.7220 h1        1 B73      0.013700
     56 HAV         6.1810    0.8620    3.3520 h1        1 B73      0.058700
     57 HAVA        6.6900   -0.3930    2.5020 h1        1 B73      0.058700
     58 HAW         7.7620    1.8760    1.4440 hc        1 B73      0.082700
@<TRIPOS>BOND
     1    1   11 1   
     2    1   28 1   
     3    1   29 1   
     4    1   30 1   
     5    2   26 1   
     6    3   27 1   
     7    4   26 1   
     8    5   26 1   
     9    6   27 1   
    10    7   27 1   
    11    8    9 3   
    12    8   24 1   
    13    9   25 1   
    14   10   24 2   
    15   10   25 2   
    16   11   12 1   
    17   11   34 1   
    18   11   35 1   
    19   12   13 1   
    20   12   36 1   
    21   12   37 1   
    22   13   14 1   
    23   13   38 1   
    24   13   39 1   
    25   14   15 1   
    26   14   40 1   
    27   14   41 1   
    28   15   16 1   
    29   15   42 1   
    30   15   43 1   
    31   16   17 1   
    32   16   44 1   
    33   16   45 1   
    34   17   18 1   
    35   17   46 1   
    36   17   47 1   
    37   18   19 1   
    38   18   48 1   
    39   18   49 1   
    40   19   20 1   
    41   19   50 1   
    42   19   51 1   
    43   20   21 1   
    44   20   52 1   
    45   20   53 1   
    46   21   24 1   
    47   21   54 1   
    48   21   55 1   
    49   22   23 1   
    50   22   25 1   
    51   22   56 1   
    52   22   57 1   
    53   23   26 1   
    54   23   27 1   
    55   23   58 1   
@<TRIPOS>SUBSTRUCTURE
     1 B73         1 TEMP              0 ****  ****    0 ROOT
