@<TRIPOS>MOLECULE
B73
   58    56     1     0     0
SMALL
bcc


@<TRIPOS>ATOM
      1 CAA        26.4360  145.3170  -15.5800 c3        1 B73     -0.090100
      2 OAB        29.0390  133.1530  -13.8050 o         1 B73     -0.960167
      3 OAC      -356.7090-1846.3200  189.8370 o         1 B73     -0.884600
      4 OAD        27.9370  131.8720  -15.7330 o         1 B73     -0.960167
      5 OAE        30.1080  131.0730  -14.6240 o         1 B73     -0.960167
      6 OAF      -356.3100-1844.7660  191.8220 o         1 B73     -0.884600
      7 OAG      -354.4520-1846.3270  191.0290 o         1 B73     -0.884600
      8 CAH        33.0320  130.8980  -14.1940 cc        1 B73     -0.176600
      9 CAI        34.3250  130.3210  -14.2010 cd        1 B73      0.172200
     10 CAJ        34.5080  132.2270  -13.1520 cc        1 B73      0.297400
     11 CAK        26.4440  144.0040  -14.8410 c3        1 B73     -0.081400
     12 CAL        27.6430  143.1600  -15.2170 c3        1 B73     -0.078400
     13 CAM        27.6470  141.8420  -14.4720 c3        1 B73     -0.079400
     14 CAN        28.8460  140.9980  -14.8480 c3        1 B73     -0.077400
     15 CAO        28.8490  139.6810  -14.1010 c3        1 B73     -0.080400
     16 CAP        30.0480  138.8350  -14.4760 c3        1 B73     -0.076400
     17 CAQ        30.0460  137.5170  -13.7320 c3        1 B73     -0.083400
     18 CAR        31.2420  136.6660  -14.1050 c3        1 B73     -0.059400
     19 CAS        31.1960  135.3350  -13.3890 c3        1 B73     -0.129400
     20 CAT        32.3440  134.4420  -13.8050 c3        1 B73     -0.059400
     21 CAU        32.0970  133.0370  -13.2570 c3        1 B73     -0.027700
     22 CAV        28.2710  129.7890  -12.8510 c2        1 B73     -0.250000
     23 CAW        27.8240  130.9250  -13.3520 c2        1 B73     -0.268600
     24 NAX        33.1610  132.1050  -13.5230 na        1 B73     -0.148900
     25 NAY        35.2340  131.1550  -13.5530 nd        1 B73     -0.726000
     26 PAZ        28.7890  131.8190  -14.4900 p5        1 B73      1.251100
     27 PBA      -355.8240-1845.8040  190.8960 p3        1 B73      1.654800
     28 HAA        25.5440  145.9230  -15.2890 hc        1 B73      0.026700
     29 HAAA       27.3550  145.9070  -15.3460 hc        1 B73      0.026700
     30 HAAB       26.4010  145.1470  -16.6840 hc        1 B73      0.026700
     31 HAH        32.0380  130.5800  -14.5790 h4        1 B73      0.291000
     32 HAI        34.6280  129.3720  -14.6320 h4        1 B73      0.004100
     33 HAJ        34.8910  133.0920  -12.6110 h5        1 B73      0.025100
     34 HAK        26.4530  144.1940  -13.7350 hc        1 B73      0.037700
     35 HAKA       25.5030  143.4370  -15.0690 hc        1 B73      0.037700
     36 HAL        27.6340  142.9660  -16.3220 hc        1 B73      0.035700
     37 HALA       28.5860  143.7240  -14.9890 hc        1 B73      0.035700
     38 HAM        27.6550  142.0350  -13.3660 hc        1 B73      0.039200
     39 HAMA       26.7050  141.2770  -14.7000 hc        1 B73      0.039200
     40 HAN        28.8360  140.8020  -15.9520 hc        1 B73      0.033700
     41 HANA       29.7890  141.5620  -14.6210 hc        1 B73      0.033700
     42 HAO        28.8570  139.8750  -12.9960 hc        1 B73      0.041200
     43 HAOA       27.9080  139.1140  -14.3310 hc        1 B73      0.041200
     44 HAP        30.0380  138.6400  -15.5810 hc        1 B73      0.028200
     45 HAPA       30.9910  139.3990  -14.2480 hc        1 B73      0.028200
     46 HAQ        30.0520  137.7100  -12.6270 hc        1 B73      0.051200
     47 HAQA       29.1080  136.9460  -13.9640 hc        1 B73      0.051200
     48 HAR        31.2430  136.4930  -15.2130 hc        1 B73      0.014700
     49 HARA       32.1890  137.2150  -13.8540 hc        1 B73      0.014700
     50 HAS        31.2320  135.5050  -12.2810 hc        1 B73      0.100200
     51 HASA       30.2190  134.7900  -13.6160 hc        1 B73      0.100200
     52 HAT        32.4030  134.4010  -14.9240 hc        1 B73      0.009700
     53 HATA       33.3180  134.8570  -13.4330 hc        1 B73      0.009700
     54 HAU        31.9640  133.1010  -12.1400 h1        1 B73      0.128200
     55 HAUA       31.1060  132.6180  -13.7070 h1        1 B73      0.128200
     56 HAV        27.7280  129.1550  -12.1330 ha        1 B73      0.066500
     57 HAVA       29.2630  129.4170  -13.1520 ha        1 B73      0.066500
     58 HAW        26.8500  131.3500  -13.0930 ha        1 B73      0.082000
@<TRIPOS>BOND
     1    1   11 1   
     2    1   28 1   
     3    1   29 1   
     4    1   30 1   
     5    2   26 1   
     6    3   27 1   
     7    4   26 1   
     8    5   26 1   
     9    6   27 1   
    10    7   27 1   
    11    8    9 2   
    12    8   24 1   
    13    8   31 1   
    14    9   25 1   
    15    9   32 1   
    16   10   24 1   
    17   10   25 2   
    18   10   33 1   
    19   11   12 1   
    20   11   34 1   
    21   11   35 1   
    22   12   13 1   
    23   12   36 1   
    24   12   37 1   
    25   13   14 1   
    26   13   38 1   
    27   13   39 1   
    28   14   15 1   
    29   14   40 1   
    30   14   41 1   
    31   15   16 1   
    32   15   42 1   
    33   15   43 1   
    34   16   17 1   
    35   16   44 1   
    36   16   45 1   
    37   17   18 1   
    38   17   46 1   
    39   17   47 1   
    40   18   19 1   
    41   18   48 1   
    42   18   49 1   
    43   19   20 1   
    44   19   50 1   
    45   19   51 1   
    46   20   21 1   
    47   20   52 1   
    48   20   53 1   
    49   21   24 1   
    50   21   54 1   
    51   21   55 1   
    52   22   23 2   
    53   22   56 1   
    54   22   57 1   
    55   23   26 1   
    56   23   58 1   
@<TRIPOS>SUBSTRUCTURE
     1 B73         1 TEMP              0 ****  ****    0 ROOT
