@<TRIPOS>MOLECULE
B73
   58    57     1     0     0
SMALL
bcc


@<TRIPOS>ATOM
      1 CAA         0.0000    0.0000    0.0000 c3        1 B73     -0.112000
      2 OAB        16.9870    0.4330   12.3820 o         1 B73     -0.633667
      3 OAC        14.9780   -1.5510   14.8650 o         1 B73     -0.633667
      4 OAD        14.9350    1.1220   13.8750 o         1 B73     -0.633667
      5 OAE        14.9440    1.5300   11.3840 o         1 B73     -0.633667
      6 OAF        16.5870   -2.5620   13.2030 o         1 B73     -0.633667
      7 OAG        14.2730   -3.5640   13.3270 o         1 B73     -0.633667
      8 CAH        11.9920    1.6500    9.9070 c2        1 B73     -0.269000
      9 CAI        12.3690    1.2330   11.1310 c2        1 B73     -0.255000
     10 CAJ        12.4520   -0.4880    9.8330 c2        1 B73     -0.349000
     11 CAK         1.5300    0.0000    0.0000 c3        1 B73     -0.108000
     12 CAL         2.0400    0.0000    1.4420 c3        1 B73     -0.109000
     13 CAM         3.5700   -0.0000    1.4430 c3        1 B73     -0.109000
     14 CAN         4.0800   -0.0010    2.8860 c3        1 B73     -0.109000
     15 CAO         5.6090   -0.0010    2.8860 c3        1 B73     -0.110000
     16 CAP         6.1190   -0.0020    4.3280 c3        1 B73     -0.110000
     17 CAQ         7.6490   -0.0020    4.3290 c3        1 B73     -0.112000
     18 CAR         8.1590   -0.0020    5.7710 c3        1 B73     -0.112000
     19 CAS         9.6890   -0.0020    5.7710 c3        1 B73     -0.138000
     20 CAT        10.1990   -0.0030    7.2140 c3        1 B73     -0.062000
     21 CAU        11.7280   -0.0030    7.2140 c2        1 B73     -0.370000
     22 CAV        13.0960   -0.9140   12.1710 c3        1 B73     -0.142000
     23 CAW        14.6190   -1.0500   12.1270 c3        1 B73     -0.581000
     24 NAX        12.0440    0.5580    9.0830 n2        1 B73      0.065000
     25 NAY        12.6480   -0.0770   11.0560 na        1 B73      0.443000
     26 PAZ        15.3840    0.5760   12.4270 p5        1 B73      0.868500
     27 PBA        15.1610   -2.2230   13.4140 p5        1 B73      0.868500
     28 HAA        -0.3610    0.0000   -1.0210 hc        1 B73      0.035667
     29 HAAA       -0.3610    0.8840    0.5110 hc        1 B73      0.035667
     30 HAAB       -0.3610   -0.8850    0.5110 hc        1 B73      0.035667
     31 HAH        11.7020    2.6560    9.6290 h4        1 B73      0.104000
     32 HAI        12.4390    1.8490   12.0190 h4        1 B73      0.159000
     33 HAJ        12.5960   -1.5020    9.4770 h5        1 B73      0.149000
     34 HAK         1.8910   -0.8850   -0.5110 hc        1 B73      0.050000
     35 HAKA        1.8910    0.8850   -0.5110 hc        1 B73      0.050000
     36 HAL         1.6780    0.8850    1.9530 hc        1 B73      0.053000
     37 HALA        1.6780   -0.8840    1.9530 hc        1 B73      0.053000
     38 HAM         3.9310   -0.8840    0.9320 hc        1 B73      0.052000
     39 HAMA        3.9320    0.8850    0.9330 hc        1 B73      0.052000
     40 HAN         3.7180   -0.8860    3.3960 hc        1 B73      0.053000
     41 HANA        3.7180    0.8830    3.3970 hc        1 B73      0.053000
     42 HAO         5.9710    0.8840    2.3760 hc        1 B73      0.050500
     43 HAOA        5.9710   -0.8850    2.3750 hc        1 B73      0.050500
     44 HAP         5.7580   -0.8870    4.8380 hc        1 B73      0.051500
     45 HAPA        5.7580    0.8820    4.8390 hc        1 B73      0.051500
     46 HAQ         8.0110   -0.8870    3.8180 hc        1 B73      0.047000
     47 HAQA        8.0110    0.8820    3.8180 hc        1 B73      0.047000
     48 HAR         7.7980   -0.8870    6.2820 hc        1 B73      0.048000
     49 HARA        7.7980    0.8830    6.2820 hc        1 B73      0.048000
     50 HAS        10.0500    0.8830    5.2610 hc        1 B73      0.038000
     51 HASA       10.0500   -0.8860    5.2600 hc        1 B73      0.038000
     52 HAT         9.8370    0.8810    7.7250 hc        1 B73      0.032000
     53 HATA        9.8370   -0.8880    7.7240 hc        1 B73      0.032000
     54 HAU        12.0890   -0.8870    6.7030 ha        1 B73      0.006500
     55 HAUA       12.0890    0.8820    6.7040 ha        1 B73      0.006500
     56 HAV        12.6430   -1.8950   12.0900 h1        1 B73      0.085500
     57 HAVA       12.8010   -0.4560   13.1070 h1        1 B73      0.085500
     58 HAW        14.9210   -1.4170   11.1540 hc        1 B73      0.061000
@<TRIPOS>BOND
     1    1   11 1   
     2    1   28 1   
     3    1   29 1   
     4    1   30 1   
     5    2   26 1   
     6    3   27 1   
     7    4   26 1   
     8    5   26 1   
     9    6   27 1   
    10    7   27 1   
    11    8    9 1   
    12    8   24 1   
    13    8   31 1   
    14    9   25 1   
    15    9   32 1   
    16   10   24 1   
    17   10   25 1   
    18   10   33 1   
    19   11   12 1   
    20   11   34 1   
    21   11   35 1   
    22   12   13 1   
    23   12   36 1   
    24   12   37 1   
    25   13   14 1   
    26   13   38 1   
    27   13   39 1   
    28   14   15 1   
    29   14   40 1   
    30   14   41 1   
    31   15   16 1   
    32   15   42 1   
    33   15   43 1   
    34   16   17 1   
    35   16   44 1   
    36   16   45 1   
    37   17   18 1   
    38   17   46 1   
    39   17   47 1   
    40   18   19 1   
    41   18   48 1   
    42   18   49 1   
    43   19   20 1   
    44   19   50 1   
    45   19   51 1   
    46   20   21 1   
    47   20   52 1   
    48   20   53 1   
    49   21   54 1   
    50   21   55 1   
    51   22   23 1   
    52   22   25 1   
    53   22   56 1   
    54   22   57 1   
    55   23   26 1   
    56   23   27 1   
    57   23   58 1   
@<TRIPOS>SUBSTRUCTURE
     1 B73         1 TEMP              0 ****  ****    0 ROOT
