@<TRIPOS>MOLECULE
B77
   32    29     1     0     0
SMALL
bcc


@<TRIPOS>ATOM
      1 C1         -3.8280   -0.6070   -2.2760 c3        1 B77     -0.180000
      2 C2         -2.3390   -0.5820   -2.2400 c2        1 B77     -0.047000
      3 C3         -1.6770   -0.5290   -1.0150 c2        1 B77     -0.188000
      4 C4         -0.3050   -0.5180   -0.9710 c1        1 B77      0.057000
      5 C5          0.4010   -0.5580   -2.1060 c1        1 B77      0.026000
      6 C6         -0.2690   -0.6120   -3.3510 c1        1 B77     -0.110000
      7 C7         -1.6370   -0.6230   -3.3870 c1        1 B77     -0.147000
      8 O8          1.8930   -0.5330   -2.0580 os        1 B77     -0.218000
      9 C9          2.4450    0.5480   -2.6910 c3        1 B77     -0.076000
     10 O10         0.3880   -0.5640    0.3280 os        1 B77     -0.217000
     11 C11        -0.2420    0.1670    1.3370 c3        1 B77      0.023000
     12 C12         0.6560    0.2390    2.5300 c2        1 B77     -0.030000
     13 N13         1.7160   -0.5870    2.6300 n2        1 B77     -0.141000
     14 C14         2.5400   -0.5210    3.7250 c1        1 B77     -0.070000
     15 C15         2.2840    0.3870    4.7180 c1        1 B77     -0.137500
     16 C16         1.2170    1.2190    4.6190 c1        1 B77     -0.137500
     17 C17         0.3990    1.1500    3.5250 c1        1 B77     -0.154000
     18 H1         -4.1640   -1.3420   -1.6910 hc        1 B77      0.085333
     19 H1A        -4.1580    0.2040   -1.9700 hc        1 B77      0.085333
     20 H1B        -4.1370   -0.7600   -3.2180 hc        1 B77      0.085333
     21 H3         -2.2240   -0.4950   -0.1340 ha        1 B77      0.141000
     22 H6          0.2780   -0.6430   -4.2400 ha        1 B77      0.148000
     23 H7         -2.1460   -0.6670   -4.3230 ha        1 B77      0.136000
     24 H9          3.3630    0.3630   -2.8990 h1        1 B77      0.083000
     25 H9A         2.3920    1.3590   -2.0870 h1        1 B77      0.083000
     26 H9B         2.0000    0.7080   -3.4380 h1        1 B77      0.083000
     27 H11        -1.1440   -0.3050    1.6050 h1        1 B77      0.103500
     28 H11A       -0.4350    1.0890    1.0090 h1        1 B77      0.103500
     29 H14         3.3040   -1.1180    3.7970 ha        1 B77      0.159000
     30 H15         2.8610    0.4340    5.4850 ha        1 B77      0.142000
     31 H16         1.0290    1.8790    5.3420 ha        1 B77      0.142000
     32 H17        -0.4610    1.8210    3.4440 ha        1 B77      0.165000
@<TRIPOS>BOND
     1    1    2 1   
     2    1   18 1   
     3    1   19 1   
     4    1   20 1   
     5    2    3 1   
     6    2    7 1   
     7    3    4 1   
     8    3   21 1   
     9    4   10 1   
    10    5    6 1   
    11    5    8 1   
    12    6   22 1   
    13    7   23 1   
    14    8    9 1   
    15    9   24 1   
    16    9   25 1   
    17    9   26 1   
    18   10   11 1   
    19   11   12 1   
    20   11   27 1   
    21   11   28 1   
    22   12   13 1   
    23   12   17 1   
    24   13   14 1   
    25   14   29 1   
    26   15   16 1   
    27   15   30 1   
    28   16   31 1   
    29   17   32 1   
@<TRIPOS>SUBSTRUCTURE
     1 B77         1 TEMP              0 ****  ****    0 ROOT
