@<TRIPOS>MOLECULE
B77
   32    33     1     0     0
SMALL
bcc


@<TRIPOS>ATOM
      1 C1          0.2060   -0.7950    0.1690 c3        1 B77     -0.050800
      2 C2          1.6230   -0.3740    0.2640 ca        1 B77     -0.086300
      3 C3          2.0220    0.4920    1.2900 ca        1 B77     -0.141000
      4 C4          3.3560    0.8840    1.4010 ca        1 B77      0.085100
      5 C5          4.3110    0.4070    0.4690 ca        1 B77      0.105100
      6 C6          3.9040   -0.4460   -0.5610 ca        1 B77     -0.182000
      7 C7          2.5690   -0.8350   -0.6540 ca        1 B77     -0.113000
      8 O8          5.6110    0.8300    0.6660 os        1 B77     -0.316900
      9 C9          6.5100    0.5920   -0.4120 c3        1 B77      0.111700
     10 O10         3.7900    1.8240    2.3230 os        1 B77     -0.318900
     11 C11         3.3850    1.6130    3.6750 c3        1 B77      0.079100
     12 C12         4.2180    0.5680    4.3760 ca        1 B77      0.364600
     13 N13         3.6950   -0.0180    5.4840 nb        1 B77     -0.667000
     14 C14         4.4600   -0.9150    6.1290 ca        1 B77      0.392200
     15 C15         5.7580   -1.2770    5.7220 ca        1 B77     -0.245300
     16 C16         6.2830   -0.6720    4.5810 ca        1 B77     -0.097000
     17 C17         5.5090    0.2650    3.8950 ca        1 B77     -0.221300
     18 H1         -0.0210   -1.5590    0.9550 hc        1 B77      0.044700
     19 H1A        -0.0160   -1.2430   -0.8310 hc        1 B77      0.044700
     20 H1B        -0.4760    0.0770    0.3240 hc        1 B77      0.044700
     21 H3          1.2740    0.8670    2.0050 ha        1 B77      0.143000
     22 H6          4.6310   -0.8200   -1.2960 ha        1 B77      0.138000
     23 H7          2.2600   -1.5120   -1.4650 ha        1 B77      0.134000
     24 H9          6.7050   -0.5030   -0.5210 h1        1 B77      0.044033
     25 H9A         7.4410    1.1280   -0.0960 h1        1 B77      0.044033
     26 H9B         6.1140    1.0160   -1.3660 h1        1 B77      0.044033
     27 H11         3.5800    2.6160    4.1500 h1        1 B77      0.073700
     28 H11A        2.2920    1.3710    3.7350 h1        1 B77      0.073700
     29 H14         4.0020   -1.3700    7.0260 h4        1 B77      0.020100
     30 H15         6.3330   -2.0170    6.2920 ha        1 B77      0.141000
     31 H16         7.2910   -0.9260    4.2250 ha        1 B77      0.137000
     32 H17         5.8780    0.7590    2.9810 ha        1 B77      0.174000
@<TRIPOS>BOND
     1    1    2 1   
     2    1   18 1   
     3    1   19 1   
     4    1   20 1   
     5    2    3 ar  
     6    2    7 ar  
     7    3    4 ar  
     8    3   21 1   
     9    4    5 ar  
    10    4   10 1   
    11    5    6 ar  
    12    5    8 1   
    13    6    7 ar  
    14    6   22 1   
    15    7   23 1   
    16    8    9 1   
    17    9   24 1   
    18    9   25 1   
    19    9   26 1   
    20   10   11 1   
    21   11   12 1   
    22   11   27 1   
    23   11   28 1   
    24   12   13 ar  
    25   12   17 ar  
    26   13   14 ar  
    27   14   15 ar  
    28   14   29 1   
    29   15   16 ar  
    30   15   30 1   
    31   16   17 ar  
    32   16   31 1   
    33   17   32 1   
@<TRIPOS>SUBSTRUCTURE
     1 B77         1 TEMP              0 ****  ****    0 ROOT
