@<TRIPOS>MOLECULE
B77
   32    33     1     0     0
SMALL
bcc


@<TRIPOS>ATOM
      1 C1          0.1800   -0.7730    0.2130 c3        1 B77     -0.050800
      2 C2          1.6040   -0.3720    0.2890 ca        1 B77     -0.086300
      3 C3          2.0230    0.5060    1.2960 ca        1 B77     -0.141000
      4 C4          3.3640    0.8810    1.3900 ca        1 B77      0.085100
      5 C5          4.3040    0.3740    0.4580 ca        1 B77      0.105100
      6 C6          3.8770   -0.4920   -0.5520 ca        1 B77     -0.182000
      7 C7          2.5350   -0.8620   -0.6280 ca        1 B77     -0.113000
      8 O8          5.6120    0.7800    0.6380 os        1 B77     -0.316900
      9 C9          6.4980    0.5110   -0.4430 c3        1 B77      0.111700
     10 O10         3.8190    1.8300    2.2910 os        1 B77     -0.318900
     11 C11         3.4230    1.6490    3.6510 c3        1 B77      0.079100
     12 C12         4.2460    0.6040    4.3630 ca        1 B77      0.364600
     13 N13         3.7230    0.0460    5.4850 nb        1 B77     -0.667000
     14 C14         4.4790   -0.8510    6.1410 ca        1 B77      0.392200
     15 C15         5.7680   -1.2400    5.7300 ca        1 B77     -0.245300
     16 C16         6.2920   -0.6630    4.5740 ca        1 B77     -0.097000
     17 C17         5.5270    0.2730    3.8770 ca        1 B77     -0.221300
     18 H1         -0.0540   -1.5120    1.0200 hc        1 B77      0.044700
     19 H1A        -0.0550   -1.2450   -0.7730 hc        1 B77      0.044700
     20 H1B        -0.4870    0.1140    0.3480 hc        1 B77      0.044700
     21 H3          1.2880    0.9050    2.0100 ha        1 B77      0.143000
     22 H6          4.5920   -0.8890   -1.2860 ha        1 B77      0.138000
     23 H7          2.2100   -1.5500   -1.4240 ha        1 B77      0.134000
     24 H9          6.6770   -0.5880   -0.5360 h1        1 B77      0.044033
     25 H9A         7.4390    1.0390   -0.1450 h1        1 B77      0.044033
     26 H9B         6.1000    0.9250   -1.4010 h1        1 B77      0.044033
     27 H11         3.6360    2.6580    4.1060 h1        1 B77      0.073700
     28 H11A        2.3270    1.4250    3.7230 h1        1 B77      0.073700
     29 H14         4.0220   -1.2830    7.0490 h4        1 B77      0.020100
     30 H15         6.3360   -1.9790    6.3090 ha        1 B77      0.141000
     31 H16         7.2940   -0.9400    4.2140 ha        1 B77      0.137000
     32 H17         5.8960    0.7450    2.9510 ha        1 B77      0.174000
@<TRIPOS>BOND
     1    1    2 1   
     2    1   18 1   
     3    1   19 1   
     4    1   20 1   
     5    2    3 ar  
     6    2    7 ar  
     7    3    4 ar  
     8    3   21 1   
     9    4    5 ar  
    10    4   10 1   
    11    5    6 ar  
    12    5    8 1   
    13    6    7 ar  
    14    6   22 1   
    15    7   23 1   
    16    8    9 1   
    17    9   24 1   
    18    9   25 1   
    19    9   26 1   
    20   10   11 1   
    21   11   12 1   
    22   11   27 1   
    23   11   28 1   
    24   12   13 ar  
    25   12   17 ar  
    26   13   14 ar  
    27   14   15 ar  
    28   14   29 1   
    29   15   16 ar  
    30   15   30 1   
    31   16   17 ar  
    32   16   31 1   
    33   17   32 1   
@<TRIPOS>SUBSTRUCTURE
     1 B77         1 TEMP              0 ****  ****    0 ROOT
