@<TRIPOS>MOLECULE
B77
   32    33     1     0     0
SMALL
bcc


@<TRIPOS>ATOM
      1 C1         -3.2140    2.9670    0.7820 c3        1 B77     -0.050800
      2 C2         -2.6790    1.6380    0.4050 ca        1 B77     -0.086300
      3 C3         -1.6210    1.5500   -0.5080 ca        1 B77     -0.141000
      4 C4         -1.0960    0.3060   -0.8610 ca        1 B77      0.085100
      5 C5         -1.6410   -0.8740   -0.2950 ca        1 B77      0.105100
      6 C6         -2.7060   -0.7800    0.6050 ca        1 B77     -0.182000
      7 C7         -3.2140    0.4700    0.9530 ca        1 B77     -0.113000
      8 O8         -1.0480   -2.0590   -0.6850 os        1 B77     -0.316900
      9 C9         -1.7590   -3.2460   -0.3510 c3        1 B77      0.111700
     10 O10        -0.1280    0.1480   -1.8390 os        1 B77     -0.318900
     11 C11         1.0250    0.9810   -1.7260 c3        1 B77      0.079100
     12 C12         2.0080    0.4770   -0.6980 ca        1 B77      0.364600
     13 N13         2.9090    1.3620   -0.1990 nb        1 B77     -0.667000
     14 C14         3.8110    0.8970    0.6820 ca        1 B77      0.392200
     15 C15         3.8690   -0.4420    1.1130 ca        1 B77     -0.245300
     16 C16         2.9360   -1.3400    0.5970 ca        1 B77     -0.097000
     17 C17         1.9910   -0.8820   -0.3220 ca        1 B77     -0.221300
     18 H1         -2.5060    3.4820    1.4790 hc        1 B77      0.044700
     19 H1A        -3.3430    3.6110   -0.1230 hc        1 B77      0.044700
     20 H1B        -4.2040    2.8740    1.2930 hc        1 B77      0.044700
     21 H3         -1.2090    2.4690   -0.9520 ha        1 B77      0.143000
     22 H6         -3.1430   -1.6860    1.0480 ha        1 B77      0.138000
     23 H7         -4.0480    0.5330    1.6680 ha        1 B77      0.134000
     24 H9         -1.1810   -4.0500   -0.8730 h1        1 B77      0.044033
     25 H9A        -1.7480   -3.4090    0.7540 h1        1 B77      0.044033
     26 H9B        -2.8090   -3.2050   -0.7290 h1        1 B77      0.044033
     27 H11         1.4900    0.9000   -2.7490 h1        1 B77      0.073700
     28 H11A        0.7340    2.0450   -1.5250 h1        1 B77      0.073700
     29 H14         4.5280    1.6450    1.0650 h4        1 B77      0.020100
     30 H15         4.6310   -0.7600    1.8360 ha        1 B77      0.141000
     31 H16         2.9430   -2.3950    0.9070 ha        1 B77      0.137000
     32 H17         1.2260   -1.5540   -0.7460 ha        1 B77      0.174000
@<TRIPOS>BOND
     1    1    2 1   
     2    1   18 1   
     3    1   19 1   
     4    1   20 1   
     5    2    3 ar  
     6    2    7 ar  
     7    3    4 ar  
     8    3   21 1   
     9    4    5 ar  
    10    4   10 1   
    11    5    6 ar  
    12    5    8 1   
    13    6    7 ar  
    14    6   22 1   
    15    7   23 1   
    16    8    9 1   
    17    9   24 1   
    18    9   25 1   
    19    9   26 1   
    20   10   11 1   
    21   11   12 1   
    22   11   27 1   
    23   11   28 1   
    24   12   13 ar  
    25   12   17 ar  
    26   13   14 ar  
    27   14   15 ar  
    28   14   29 1   
    29   15   16 ar  
    30   15   30 1   
    31   16   17 ar  
    32   16   31 1   
    33   17   32 1   
@<TRIPOS>SUBSTRUCTURE
     1 B77         1 TEMP              0 ****  ****    0 ROOT
