@<TRIPOS>MOLECULE
B78
   32    33     1     0     0
SMALL
bcc


@<TRIPOS>ATOM
      1 C1          0.1100   -0.7990    0.1690 c3        1 B78     -0.037800
      2 C2          1.5490   -0.4750    0.0650 ca        1 B78     -0.130300
      3 C3          2.2720   -0.0550    1.2080 ca        1 B78      0.154100
      4 C4          3.6270    0.2690    1.1330 ca        1 B78     -0.231000
      5 C5          4.2740    0.1700   -0.1130 ca        1 B78      0.154100
      6 C6          3.5820   -0.2440   -1.2540 ca        1 B78     -0.231000
      7 C7          2.2270   -0.5600   -1.1490 ca        1 B78     -0.069000
      8 O8          5.6130    0.5100   -0.0880 os        1 B78     -0.328900
      9 C9          6.3030    0.4290   -1.3300 c3        1 B78      0.113700
     10 O10         1.5270    0.0100    2.3700 os        1 B78     -0.325900
     11 C11         2.2600    0.3240    3.5620 c3        1 B78      0.167700
     12 C12         1.3210    0.2300    4.7180 ca        1 B78     -0.053300
     13 C13         0.0890   -0.4260    4.6320 ca        1 B78     -0.232800
     14 C14        -0.7210   -0.4830    5.7810 ca        1 B78      0.393200
     15 N15        -0.3760    0.0560    6.9660 nb        1 B78     -0.663000
     16 C16         0.8150    0.6840    7.0320 ca        1 B78      0.393200
     17 C17         1.6950    0.8000    5.9430 ca        1 B78     -0.232800
     18 H1         -0.4890    0.1430    0.2460 hc        1 B78      0.044700
     19 H1A        -0.2410   -1.3730   -0.7220 hc        1 B78      0.044700
     20 H1B        -0.0860   -1.4050    1.0900 hc        1 B78      0.044700
     21 H4          4.2040    0.6010    2.0050 ha        1 B78      0.153000
     22 H6          4.0850   -0.3240   -2.2270 ha        1 B78      0.139000
     23 H7          1.6810   -0.8870   -2.0480 ha        1 B78      0.136000
     24 H9          5.8530    1.1260   -2.0780 h1        1 B78      0.045367
     25 H9A         7.3440    0.7470   -1.0690 h1        1 B78      0.045367
     26 H9B         6.2960   -0.6190   -1.7170 h1        1 B78      0.045367
     27 H11         2.6760    1.3640    3.4750 h1        1 B78      0.057700
     28 H11A        3.1010   -0.4110    3.6910 h1        1 B78      0.057700
     29 H13        -0.2410   -0.8790    3.6860 ha        1 B78      0.151500
     30 H14        -1.7030   -0.9900    5.7520 h4        1 B78      0.023100
     31 H16         1.0740    1.1180    8.0140 h4        1 B78      0.023100
     32 H17         2.6510    1.3270    6.0530 ha        1 B78      0.151500
@<TRIPOS>BOND
     1    1    2 1   
     2    1   18 1   
     3    1   19 1   
     4    1   20 1   
     5    2    3 ar  
     6    2    7 ar  
     7    3    4 ar  
     8    3   10 1   
     9    4    5 ar  
    10    4   21 1   
    11    5    6 ar  
    12    5    8 1   
    13    6    7 ar  
    14    6   22 1   
    15    7   23 1   
    16    8    9 1   
    17    9   24 1   
    18    9   25 1   
    19    9   26 1   
    20   10   11 1   
    21   11   12 1   
    22   11   27 1   
    23   11   28 1   
    24   12   13 ar  
    25   12   17 ar  
    26   13   14 ar  
    27   13   29 1   
    28   14   15 ar  
    29   14   30 1   
    30   15   16 ar  
    31   16   17 ar  
    32   16   31 1   
    33   17   32 1   
@<TRIPOS>SUBSTRUCTURE
     1 B78         1 TEMP              0 ****  ****    0 ROOT
