@<TRIPOS>MOLECULE
B78
   32    29     1     0     0
SMALL
bcc


@<TRIPOS>ATOM
      1 C1         -2.2010    0.1440   -2.0460 c3        1 B78     -0.163000
      2 C2         -0.6460    0.1310   -2.0920 c2        1 B78     -0.123000
      3 C3          0.0870    0.1760   -0.9090 c2        1 B78      0.109000
      4 C4          1.4810    0.1660   -0.9520 c1        1 B78     -0.231000
      5 C5          2.1350    0.1110   -2.1700 c1        1 B78      0.109000
      6 C6          1.4010    0.0660   -3.3550 c1        1 B78     -0.231000
      7 C7          0.0100    0.0760   -3.3130 c1        1 B78     -0.069000
      8 O8          3.5100    0.0220   -2.2090 os        1 B78     -0.212000
      9 C9          4.1470    1.2320   -2.4710 c3        1 B78     -0.076000
     10 O10        -0.5980    0.2680    0.3640 os        1 B78     -0.209000
     11 C11        -0.2360   -0.7680    1.2990 c3        1 B78      0.010000
     12 C12        -1.0700   -0.6040    2.5990 c2        1 B78     -0.046000
     13 C13        -2.0930   -1.4640    2.8660 c2        1 B78     -0.181000
     14 C14        -2.8410   -1.3170    4.0410 c1        1 B78     -0.071000
     15 N15        -2.5430   -0.3060    4.9260 n1        1 B78     -0.137000
     16 C16        -1.5180    0.5560    4.6590 c1        1 B78     -0.073000
     17 C17        -0.7710    0.4130    3.4900 c1        1 B78     -0.154000
     18 H1         -2.5130    1.0180   -1.7160 hc        1 B78      0.084000
     19 H1A        -2.5560   -0.0110   -2.9530 hc        1 B78      0.084000
     20 H1B        -2.5190   -0.5690   -1.4420 hc        1 B78      0.084000
     21 H4          1.9930    0.1970   -0.1290 ha        1 B78      0.153000
     22 H6          1.8680    0.0260   -4.2240 ha        1 B78      0.139000
     23 H7         -0.4980    0.0450   -4.1320 ha        1 B78      0.136000
     24 H9          3.8830    1.8920   -1.8010 h1        1 B78      0.084667
     25 H9A         3.8880    1.5510   -3.3670 h1        1 B78      0.084667
     26 H9B         5.1150    1.1030   -2.4380 h1        1 B78      0.084667
     27 H11         0.7250   -0.6970    1.5130 h1        1 B78      0.097000
     28 H11A       -0.4210   -1.6530    0.8980 h1        1 B78      0.097000
     29 H13        -2.3040   -2.1850    2.2380 ha        1 B78      0.143000
     30 H14        -3.5730   -1.9310    4.2340 ha        1 B78      0.160000
     31 H16        -1.3050    1.2800    5.2930 ha        1 B78      0.160000
     32 H17        -0.0360    1.0320    3.2990 ha        1 B78      0.160000
@<TRIPOS>BOND
     1    1    2 1   
     2    1   18 1   
     3    1   19 1   
     4    1   20 1   
     5    2    3 1   
     6    2    7 1   
     7    3    4 1   
     8    3   10 1   
     9    4   21 1   
    10    5    6 1   
    11    5    8 1   
    12    6   22 1   
    13    7   23 1   
    14    8    9 1   
    15    9   24 1   
    16    9   25 1   
    17    9   26 1   
    18   10   11 1   
    19   11   12 1   
    20   11   27 1   
    21   11   28 1   
    22   12   13 1   
    23   12   17 1   
    24   13   14 1   
    25   13   29 1   
    26   14   30 1   
    27   15   16 1   
    28   16   31 1   
    29   17   32 1   
@<TRIPOS>SUBSTRUCTURE
     1 B78         1 TEMP              0 ****  ****    0 ROOT
