@<TRIPOS>MOLECULE
B78
   32    33     1     0     0
SMALL
bcc


@<TRIPOS>ATOM
      1 C1          0.1510   -0.9880    0.2140 c3        1 B78     -0.037800
      2 C2          1.5710   -0.5940    0.0890 ca        1 B78     -0.130300
      3 C3          2.2740   -0.0890    1.2110 ca        1 B78      0.154100
      4 C4          3.6100    0.3020    1.1170 ca        1 B78     -0.231000
      5 C5          4.2580    0.1830   -0.1260 ca        1 B78      0.154100
      6 C6          3.5870   -0.3140   -1.2460 ca        1 B78     -0.231000
      7 C7          2.2500   -0.6960   -1.1230 ca        1 B78     -0.069000
      8 O8          5.5780    0.5940   -0.1210 os        1 B78     -0.328900
      9 C9          6.2690    0.4960   -1.3610 c3        1 B78      0.113700
     10 O10         1.5290   -0.0130    2.3720 os        1 B78     -0.325900
     11 C11         2.2460    0.3900    3.5470 c3        1 B78      0.167700
     12 C12         1.3150    0.2970    4.7100 ca        1 B78     -0.053300
     13 C13         0.1210   -0.4290    4.6580 ca        1 B78     -0.232800
     14 C14        -0.6830   -0.4790    5.8120 ca        1 B78      0.393200
     15 N15        -0.3660    0.1320    6.9690 nb        1 B78     -0.663000
     16 C16         0.7880    0.8280    7.0020 ca        1 B78      0.393200
     17 C17         1.6580    0.9430    5.9050 ca        1 B78     -0.232800
     18 H1         -0.4960   -0.0750    0.2560 hc        1 B78      0.044700
     19 H1A        -0.1720   -1.6150   -0.6520 hc        1 B78      0.044700
     20 H1B        -0.0100   -1.5650    1.1590 hc        1 B78      0.044700
     21 H4          4.1710    0.7000    1.9720 ha        1 B78      0.153000
     22 H6          4.0910   -0.4080   -2.2170 ha        1 B78      0.139000
     23 H7          1.7200   -1.0880   -2.0050 ha        1 B78      0.136000
     24 H9          5.7820    1.1360   -2.1360 h1        1 B78      0.045367
     25 H9A         7.2930    0.8780   -1.1180 h1        1 B78      0.045367
     26 H9B         6.3160   -0.5660   -1.7040 h1        1 B78      0.045367
     27 H11         2.6060    1.4460    3.4120 h1        1 B78      0.057700
     28 H11A        3.1250   -0.2930    3.7040 h1        1 B78      0.057700
     29 H13        -0.1830   -0.9430    3.7350 ha        1 B78      0.151500
     30 H14        -1.6340   -1.0400    5.8090 h4        1 B78      0.023100
     31 H16         1.0240    1.3210    7.9620 h4        1 B78      0.023100
     32 H17         2.5840    1.5270    5.9880 ha        1 B78      0.151500
@<TRIPOS>BOND
     1    1    2 1   
     2    1   18 1   
     3    1   19 1   
     4    1   20 1   
     5    2    3 ar  
     6    2    7 ar  
     7    3    4 ar  
     8    3   10 1   
     9    4    5 ar  
    10    4   21 1   
    11    5    6 ar  
    12    5    8 1   
    13    6    7 ar  
    14    6   22 1   
    15    7   23 1   
    16    8    9 1   
    17    9   24 1   
    18    9   25 1   
    19    9   26 1   
    20   10   11 1   
    21   11   12 1   
    22   11   27 1   
    23   11   28 1   
    24   12   13 ar  
    25   12   17 ar  
    26   13   14 ar  
    27   13   29 1   
    28   14   15 ar  
    29   14   30 1   
    30   15   16 ar  
    31   16   17 ar  
    32   16   31 1   
    33   17   32 1   
@<TRIPOS>SUBSTRUCTURE
     1 B78         1 TEMP              0 ****  ****    0 ROOT
