@<TRIPOS>MOLECULE
B78
   32    33     1     0     0
SMALL
bcc


@<TRIPOS>ATOM
      1 C1         -0.8240    2.8840   -0.6930 c3        1 B78     -0.037800
      2 C2         -1.6270    1.6740   -0.4120 ca        1 B78     -0.130300
      3 C3         -0.9920    0.4650   -0.0380 ca        1 B78      0.154100
      4 C4         -1.7270   -0.6860    0.2440 ca        1 B78     -0.231000
      5 C5         -3.1300   -0.6270    0.1490 ca        1 B78      0.154100
      6 C6         -3.7800    0.5540   -0.2190 ca        1 B78     -0.231000
      7 C7         -3.0180    1.6900   -0.4950 ca        1 B78     -0.069000
      8 O8         -3.7710   -1.8140    0.4470 os        1 B78     -0.328900
      9 C9         -5.1920   -1.7960    0.3690 c3        1 B78      0.113700
     10 O10         0.3870    0.5340    0.0270 os        1 B78     -0.325900
     11 C11         1.0600   -0.7040    0.2930 c3        1 B78      0.167700
     12 C12         2.5290   -0.4580    0.2050 ca        1 B78     -0.053300
     13 C13         3.4090   -1.4090    0.7390 ca        1 B78     -0.232800
     14 C14         4.7900   -1.1800    0.6290 ca        1 B78      0.393200
     15 N15         5.3220   -0.0910    0.0400 nb        1 B78     -0.663000
     16 C16         4.4630    0.8150   -0.4650 ca        1 B78      0.393200
     17 C17         3.0640    0.6790   -0.4100 ca        1 B78     -0.232800
     18 H1          0.0710    2.6210   -1.3110 hc        1 B78      0.044700
     19 H1A        -1.4260    3.6520   -1.2380 hc        1 B78      0.044700
     20 H1B        -0.4580    3.3310    0.2660 hc        1 B78      0.044700
     21 H4         -1.2550   -1.6310    0.5390 ha        1 B78      0.153000
     22 H6         -4.8740    0.6020   -0.2950 ha        1 B78      0.139000
     23 H7         -3.5290    2.6220   -0.7860 ha        1 B78      0.136000
     24 H9         -5.6180   -1.0620    1.0950 h1        1 B78      0.045367
     25 H9A        -5.5270   -1.5590   -0.6700 h1        1 B78      0.045367
     26 H9B        -5.4810   -2.8410    0.6490 h1        1 B78      0.045367
     27 H11         0.7800   -1.0600    1.3210 h1        1 B78      0.057700
     28 H11A        0.7540   -1.4700   -0.4700 h1        1 B78      0.057700
     29 H13         3.0320   -2.3130    1.2340 ha        1 B78      0.151500
     30 H14         5.5160   -1.9070    1.0350 h4        1 B78      0.023100
     31 H16         4.9230    1.7000   -0.9410 h4        1 B78      0.023100
     32 H17         2.4040    1.4500   -0.8340 ha        1 B78      0.151500
@<TRIPOS>BOND
     1    1    2 1   
     2    1   18 1   
     3    1   19 1   
     4    1   20 1   
     5    2    3 ar  
     6    2    7 ar  
     7    3    4 ar  
     8    3   10 1   
     9    4    5 ar  
    10    4   21 1   
    11    5    6 ar  
    12    5    8 1   
    13    6    7 ar  
    14    6   22 1   
    15    7   23 1   
    16    8    9 1   
    17    9   24 1   
    18    9   25 1   
    19    9   26 1   
    20   10   11 1   
    21   11   12 1   
    22   11   27 1   
    23   11   28 1   
    24   12   13 ar  
    25   12   17 ar  
    26   13   14 ar  
    27   13   29 1   
    28   14   15 ar  
    29   14   30 1   
    30   15   16 ar  
    31   16   17 ar  
    32   16   31 1   
    33   17   32 1   
@<TRIPOS>SUBSTRUCTURE
     1 B78         1 TEMP              0 ****  ****    0 ROOT
