@<TRIPOS>MOLECULE
B7C
   37    37     1     0     0
SMALL
bcc


@<TRIPOS>ATOM
      1 OP3         1.0460   -2.7580    4.9780 o         1 B7C     -0.920167
      2 P           0.6630   -2.5440    3.5300 p5        1 B7C      1.562500
      3 OP1         1.0370   -3.7660    2.7240 o         1 B7C     -0.920167
      4 OP2        -0.8260   -2.3130    3.4310 o         1 B7C     -0.920167
      5 O5'         1.4310   -1.2810    2.9610 os        1 B7C     -0.737000
      6 N1          0.5010    0.7850   -0.8800 n         1 B7C     -0.262000
      7 C6         -0.2690   -0.2540   -1.4920 c2        1 B7C      0.132000
      8 C2         -0.1590    2.0240   -0.4350 c2        1 B7C      0.343000
      9 O2          0.5090    2.9760   -0.0910 o         1 B7C     -0.428000
     10 N3         -1.6180    2.1410   -0.5020 n2        1 B7C     -0.360000
     11 C4         -2.3880    1.1420   -1.1900 c1        1 B7C      0.229000
     12 N4         -3.6290    1.4850   -1.7770 n2        1 B7C     -0.320000
     13 C5         -1.7450   -0.0980   -1.6280 c2        1 B7C     -0.302000
     14 C7         -2.5430   -1.0340   -2.5800 c2        1 B7C      0.006000
     15 C8         -3.9990   -0.6800   -2.8420 c1        1 B7C     -0.327000
     16 C9         -4.5780    0.4280   -2.0450 c2        1 B7C      0.049000
     17 C2'         2.5270    1.5420    0.3410 c3        1 B7C     -0.196000
     18 C5'         1.2170   -0.9130    1.6090 c3        1 B7C      0.075000
     19 C4'         2.5090   -0.6700    0.9580 c3        1 B7C     -0.043000
     20 O4'         2.3060   -0.5220   -0.6720 os        1 B7C     -0.282000
     21 C1'         1.9230    0.7040   -0.8780 c3        1 B7C      0.144000
     22 C3'         3.0230    0.4810    1.3760 c3        1 B7C      0.000000
     23 O3'         4.4850    0.4140    1.3740 oh        1 B7C     -0.378000
     24 H6          0.1810   -1.0060   -1.9170 h4        1 B7C      0.313000
     25 HN4        -3.9000    2.3590   -1.7970 hn        1 B7C      0.209000
     26 H7         -2.2210   -1.9340   -2.7580 ha        1 B7C      0.246000
     27 H8         -4.5880   -1.3260   -3.2840 ha        1 B7C      0.117000
     28 H9         -4.9670    0.0610   -1.2280 h4        1 B7C      0.035500
     29 H9A        -5.3740    0.8030   -2.4770 h4        1 B7C      0.035500
     30 H2'         1.8330    2.1050    0.7410 hc        1 B7C      0.089000
     31 H2'A        3.2740    2.0920    0.0360 hc        1 B7C      0.089000
     32 H5'         0.6780   -0.1000    1.5750 h1        1 B7C      0.043000
     33 H5'A        0.7490   -1.6340    1.1440 h1        1 B7C      0.043000
     34 H4'         3.1240   -1.4010    1.1530 h1        1 B7C      0.058000
     35 H1'         2.2840    1.0340   -1.7290 h2        1 B7C      0.129000
     36 H3'         2.6930    0.6960    2.2680 h1        1 B7C      0.178000
     37 HO3'        4.8080    0.9610    2.0010 ho        1 B7C      0.269000
@<TRIPOS>BOND
     1    1    2 1   
     2    2    3 1   
     3    2    4 1   
     4    2    5 1   
     5    5   18 1   
     6    6    7 1   
     7    6    8 1   
     8    6   21 1   
     9    7   13 1   
    10    7   24 1   
    11    8    9 1   
    12    8   10 1   
    13   10   11 1   
    14   11   13 1   
    15   12   16 1   
    16   12   25 1   
    17   13   14 1   
    18   14   15 1   
    19   14   26 1   
    20   15   27 1   
    21   16   28 1   
    22   16   29 1   
    23   17   21 1   
    24   17   22 1   
    25   17   30 1   
    26   17   31 1   
    27   18   19 1   
    28   18   32 1   
    29   18   33 1   
    30   19   20 1   
    31   19   22 1   
    32   19   34 1   
    33   20   21 1   
    34   21   35 1   
    35   22   23 1   
    36   22   36 1   
    37   23   37 1   
@<TRIPOS>SUBSTRUCTURE
     1 B7C         1 TEMP              0 ****  ****    0 ROOT
