@<TRIPOS>MOLECULE
B7C
   37    39     1     0     0
SMALL
bcc


@<TRIPOS>ATOM
      1 OP3         2.8540    0.9350   -0.1430 o         1 B7C     -0.925500
      2 P           1.9860    1.3190    1.0300 p5        1 B7C      1.344900
      3 OP1         2.4430    2.3610    1.9940 o         1 B7C     -0.925500
      4 OP2         0.5150    1.3350    0.6450 o         1 B7C     -0.925500
      5 O5'         2.1070   -0.1790    1.8900 os        1 B7C     -0.569200
      6 N1         -1.8250   -1.7960   -0.5700 n         1 B7C     -0.372000
      7 C6         -1.6540   -0.4810   -0.2470 cc        1 B7C      0.104600
      8 C2         -3.1600   -2.2970   -0.7950 c         1 B7C      0.827900
      9 O2         -3.2990   -3.5100   -1.0950 o         1 B7C     -0.691500
     10 N3         -4.2720   -1.4520   -0.7040 nc        1 B7C     -0.778100
     11 C4         -4.0650   -0.1490   -0.4100 cd        1 B7C      0.752500
     12 N4         -5.1460    0.7290   -0.4010 nh        1 B7C     -0.830200
     13 C5         -2.7390    0.3810   -0.1520 cd        1 B7C     -0.384600
     14 C7         -2.5610    1.7560    0.2430 cf        1 B7C     -0.004000
     15 C8         -3.6360    2.5500    0.3800 c2        1 B7C     -0.318200
     16 C9         -5.0250    2.0660    0.1300 c3        1 B7C      0.283000
     17 C2'         0.4410   -2.2740   -1.5620 c3        1 B7C     -0.120400
     18 C5'         1.0440   -1.0370    1.8610 c3        1 B7C      0.221400
     19 C4'         1.1650   -2.1210    0.7620 c3        1 B7C      0.061100
     20 O4'        -0.0870   -2.8480    0.6950 os        1 B7C     -0.440600
     21 C1'        -0.6800   -2.7200   -0.6000 c3        1 B7C      0.290500
     22 C3'         1.4530   -1.5750   -0.6530 c3        1 B7C      0.108100
     23 O3'         2.7710   -1.8650   -1.0630 oh        1 B7C     -0.650800
     24 H6         -0.6110   -0.0600   -0.0460 h4        1 B7C      0.303000
     25 HN4        -6.0590    0.3370   -0.3760 hn        1 B7C      0.413800
     26 H7         -1.5050    2.0710    0.4430 ha        1 B7C      0.243000
     27 H8         -3.5610    3.5960    0.6980 ha        1 B7C      0.121000
     28 H9         -5.5330    2.7550   -0.6110 h1        1 B7C      0.001200
     29 H9A        -5.6150    2.1400    1.0960 h1        1 B7C      0.001200
     30 H2'         0.8930   -3.1770   -2.0380 hc        1 B7C      0.051200
     31 H2'A        0.0820   -1.5910   -2.3660 hc        1 B7C      0.051200
     32 H5'         1.0010   -1.5950    2.8450 h1        1 B7C     -0.002300
     33 H5'A        0.0710   -0.4860    1.7320 h1        1 B7C     -0.002300
     34 H4'         1.9370   -2.8820    1.0500 h1        1 B7C      0.046700
     35 H1'        -1.0880   -3.7430   -0.8490 h2        1 B7C      0.093700
     36 H3'         1.3090   -0.4440   -0.6510 h1        1 B7C      0.144700
     37 HO3'        3.2810   -1.0580   -0.8400 ho        1 B7C      0.475000
@<TRIPOS>BOND
     1    1    2 1   
     2    2    3 1   
     3    2    4 1   
     4    2    5 1   
     5    5   18 1   
     6    6    7 1   
     7    6    8 1   
     8    6   21 1   
     9    7   13 2   
    10    7   24 1   
    11    8    9 2   
    12    8   10 1   
    13   10   11 2   
    14   11   12 1   
    15   11   13 1   
    16   12   16 1   
    17   12   25 1   
    18   13   14 1   
    19   14   15 2   
    20   14   26 1   
    21   15   16 1   
    22   15   27 1   
    23   16   28 1   
    24   16   29 1   
    25   17   21 1   
    26   17   22 1   
    27   17   30 1   
    28   17   31 1   
    29   18   19 1   
    30   18   32 1   
    31   18   33 1   
    32   19   20 1   
    33   19   22 1   
    34   19   34 1   
    35   20   21 1   
    36   21   35 1   
    37   22   23 1   
    38   22   36 1   
    39   23   37 1   
@<TRIPOS>SUBSTRUCTURE
     1 B7C         1 TEMP              0 ****  ****    0 ROOT
