@<TRIPOS>MOLECULE
B7D
   29    30     1     0     0
SMALL
bcc


@<TRIPOS>ATOM
      1 C01        -0.0040    0.1250    0.1130 c3        1 B7D      0.511700
      2 C02        -0.9660   -1.1170   -0.0050 c3        1 B7D      0.078100
      3 CL03       -2.5830   -0.5330   -0.2880 cl        1 B7D     -0.099900
      4 CL04       -0.4330   -2.1720   -1.2950 cl        1 B7D     -0.099900
      5 N05         1.4030   -0.3160    0.1610 nh        1 B7D     -0.733600
      6 C06         2.1950   -0.2460    1.2540 ca        1 B7D      0.388600
      7 C07         3.5700   -0.6680    1.1800 ca        1 B7D     -0.225000
      8 C08         4.4000   -0.5100    2.2580 ca        1 B7D      0.200400
      9 CL09        5.9930   -1.0850    2.1410 cl        1 B7D     -0.040400
     10 C10         3.9750    0.0920    3.4830 ca        1 B7D     -0.640500
     11 S11         4.9110    0.4910    4.7080 sy        1 B7D      1.503200
     12 N12         5.3590   -1.2810    5.2990 n4        1 B7D     -0.785500
     13 O13         6.1700    0.9680    4.4280 o         1 B7D     -0.566800
     14 O14         4.2220    0.9450    5.8160 o         1 B7D     -0.566800
     15 C15         2.5980    0.4220    3.5500 ca        1 B7D      0.175000
     16 C16         1.7120    0.2490    2.5100 ca        1 B7D     -0.451500
     17 S17         0.0500    0.6020    2.7570 sy        1 B7D      1.530200
     18 O18        -0.5510   -0.5880    3.1710 o         1 B7D     -0.620800
     19 O19        -0.0470    1.7190    3.5860 o         1 B7D     -0.620800
     20 N20        -0.3670    0.9600    1.2290 n3        1 B7D     -0.912100
     21 H01        -0.1060    0.7260   -0.8520 h2        1 B7D      0.118700
     22 H02        -0.9870   -1.7220    0.9380 h2        1 B7D      0.137700
     23 HN05        1.7570   -0.7130   -0.6870 hn        1 B7D      0.485800
     24 H07         3.9490   -1.1210    0.2470 ha        1 B7D      0.184000
     25 HN12        6.3680   -1.4190    5.2690 hn        1 B7D      0.455467
     26 HN1A        4.9280   -2.0010    4.7270 hn        1 B7D      0.455467
     27 H15         2.2110    0.8640    4.4990 ha        1 B7D      0.193000
     28 HN20       -0.8490    1.7910    0.9710 hn        1 B7D      0.490800
     29 H123        5.0530   -1.4190    6.2600 hn        1 B7D      0.455467
@<TRIPOS>BOND
     1    1    2 1   
     2    1    5 1   
     3    1   20 1   
     4    1   21 1   
     5    2    3 1   
     6    2    4 1   
     7    2   22 1   
     8    5    6 1   
     9    5   23 1   
    10    6    7 ar  
    11    6   16 ar  
    12    7    8 ar  
    13    7   24 1   
    14    8    9 1   
    15    8   10 ar  
    16   10   11 1   
    17   10   15 ar  
    18   11   12 1   
    19   11   13 2   
    20   11   14 2   
    21   12   25 1   
    22   12   26 1   
    23   12   29 1   
    24   15   16 ar  
    25   15   27 1   
    26   16   17 1   
    27   17   18 2   
    28   17   19 2   
    29   17   20 1   
    30   20   28 1   
@<TRIPOS>SUBSTRUCTURE
     1 B7D         1 TEMP              0 ****  ****    0 ROOT
