@<TRIPOS>MOLECULE
B7D
   28    29     1     0     0
SMALL
bcc


@<TRIPOS>ATOM
      1 C01        -2.7150   -0.3400   -1.0400 c3        1 B7D      0.534700
      2 C02        -3.7180   -0.7070    0.1210 c3        1 B7D      0.089100
      3 CL03       -5.2160    0.1570   -0.1360 cl        1 B7D     -0.132900
      4 CL04       -3.9970   -2.4370    0.1650 cl        1 B7D     -0.132900
      5 N05        -1.5210   -1.1800   -0.9750 nh        1 B7D     -0.793600
      6 C06        -0.2740   -0.7310   -0.6180 ca        1 B7D      0.356600
      7 C07         0.8310   -1.6290   -0.6620 ca        1 B7D     -0.249000
      8 C08         2.1010   -1.1730   -0.3580 ca        1 B7D      0.214400
      9 CL09        3.3770   -2.2970   -0.4120 cl        1 B7D     -0.067400
     10 C10         2.3580    0.1690   -0.0130 ca        1 B7D     -0.434500
     11 S11         3.9040    0.8210    0.2920 sy        1 B7D      1.531200
     12 N12         4.4340   -0.0400    1.5270 n3        1 B7D     -1.026700
     13 O13         4.7230    0.6060   -0.8310 o         1 B7D     -0.651300
     14 O14         3.7100    2.1590    0.6970 o         1 B7D     -0.651300
     15 C15         1.2580    1.0240    0.0450 ca        1 B7D      0.136000
     16 C16        -0.0510    0.6170   -0.2210 ca        1 B7D     -0.485500
     17 S17        -1.3040    1.7200   -0.0220 sy        1 B7D      1.539200
     18 O18        -1.7630    1.6460    1.3010 o         1 B7D     -0.642300
     19 O19        -0.9400    2.9890   -0.4910 o         1 B7D     -0.642300
     20 N20        -2.4210    1.0690   -1.0240 n3        1 B7D     -0.909100
     21 H01        -3.2370   -0.6030   -2.0190 h2        1 B7D      0.091700
     22 H02        -3.3250   -0.4040    1.1250 h2        1 B7D      0.135700
     23 HN05       -1.6540   -2.1470   -1.1680 hn        1 B7D      0.467800
     24 H07         0.6730   -2.6830   -0.9410 ha        1 B7D      0.159000
     25 HN12        4.9840   -0.8570    1.4320 hn        1 B7D      0.451800
     26 HN1A        4.2660    0.2000    2.4720 hn        1 B7D      0.451800
     27 H15         1.4310    2.0920    0.3130 ha        1 B7D      0.189000
     28 HN20       -2.9050    1.5920   -1.7130 hn        1 B7D      0.473800
@<TRIPOS>BOND
     1    1    2 1   
     2    1    5 1   
     3    1   20 1   
     4    1   21 1   
     5    2    3 1   
     6    2    4 1   
     7    2   22 1   
     8    5    6 1   
     9    5   23 1   
    10    6    7 ar  
    11    6   16 ar  
    12    7    8 ar  
    13    7   24 1   
    14    8    9 1   
    15    8   10 ar  
    16   10   11 1   
    17   10   15 ar  
    18   11   12 1   
    19   11   13 2   
    20   11   14 2   
    21   12   25 1   
    22   12   26 1   
    23   15   16 ar  
    24   15   27 1   
    25   16   17 1   
    26   17   18 2   
    27   17   19 2   
    28   17   20 1   
    29   20   28 1   
@<TRIPOS>SUBSTRUCTURE
     1 B7D         1 TEMP              0 ****  ****    0 ROOT
