@<TRIPOS>MOLECULE
B7D
   28    25     1     0     0
SMALL
bcc


@<TRIPOS>ATOM
      1 C01        -1.8700   -0.0930   -2.5070 c3        1 B7D      0.151000
      2 C02        -2.2400   -1.6100   -2.4340 c3        1 B7D     -0.084000
      3 CL03       -3.8250   -1.7940   -1.6980 cl        1 B7D     -0.043000
      4 CL04       -1.0490   -2.4530   -1.4700 cl        1 B7D     -0.043000
      5 N05        -0.3900    0.0110   -2.5010 n3        1 B7D     -0.333000
      6 C06         0.3490    0.0170   -1.1110 c2        1 B7D      0.254000
      7 C07         1.7430   -0.0320   -1.0200 c1        1 B7D     -0.239000
      8 C08         2.3660   -0.0190    0.2390 c1        1 B7D      0.131000
      9 CL09        4.0860    0.0500    0.3450 cl        1 B7D      0.011000
     10 C10         1.5710    0.0440    1.4360 c1        1 B7D     -0.871000
     11 S11         2.3550    0.0350    3.0190 ss        1 B7D      2.869000
     12 N12         2.6820    1.5970    3.5100 n2        1 B7D     -0.953000
     13 O13         3.5620   -0.7810    3.0070 o         1 B7D     -0.929500
     14 O14         1.5610   -0.6610    3.9890 o         1 B7D     -0.929500
     15 C15         0.1630    0.0930    1.3480 c2        1 B7D      0.129000
     16 C16        -0.4580    0.0810    0.0990 c2        1 B7D     -0.912000
     17 S17        -2.1680    0.2910   -0.0750 s4        1 B7D      2.093800
     18 O18        -2.5870    1.3820    0.7650 o         1 B7D     -0.526400
     19 O19        -2.8240   -0.9020    0.3450 o         1 B7D     -0.526400
     20 N20        -2.5590    0.5610   -1.5080 n2        1 B7D     -0.885000
     21 H01        -2.1940    0.2590   -3.3750 h2        1 B7D      0.146000
     22 H02        -2.2540   -1.9900   -3.3480 h2        1 B7D      0.151000
     23 HN05       -0.1270    0.7560   -2.9970 hn        1 B7D      0.235000
     24 H07         2.2970   -0.0220   -1.8500 ha        1 B7D      0.159000
     25 HN12        1.9880    2.1580    3.7650 hn        1 B7D      0.247000
     26 HN1A        3.5510    1.8870    3.5670 hn        1 B7D      0.247000
     27 H15        -0.3750    0.1360    2.1620 ha        1 B7D      0.187000
     28 HN20       -3.3530    0.9970   -1.6990 hn        1 B7D      0.266000
@<TRIPOS>BOND
     1    1    2 1   
     2    1    5 1   
     3    1   20 1   
     4    1   21 1   
     5    2    3 1   
     6    2    4 1   
     7    2   22 1   
     8    5    6 1   
     9    5   23 1   
    10    6    7 1   
    11    6   16 1   
    12    7   24 1   
    13    8    9 1   
    14    8   10 1   
    15   10   15 1   
    16   11   13 1   
    17   11   14 1   
    18   12   25 1   
    19   12   26 1   
    20   15   16 1   
    21   15   27 1   
    22   16   17 1   
    23   17   18 1   
    24   17   19 1   
    25   20   28 1   
@<TRIPOS>SUBSTRUCTURE
     1 B7D         1 TEMP              0 ****  ****    0 ROOT
