@<TRIPOS>MOLECULE
B7D
   29    30     1     0     0
SMALL
bcc


@<TRIPOS>ATOM
      1 C01        -0.0110    0.1330    0.1210 c3        1 B7D      0.511700
      2 C02        -0.9740   -1.1080    0.0020 c3        1 B7D      0.078100
      3 CL03       -2.5910   -0.5220   -0.2740 cl        1 B7D     -0.099900
      4 CL04       -0.4460   -2.1590   -1.2930 cl        1 B7D     -0.099900
      5 N05         1.3960   -0.3090    0.1640 nh        1 B7D     -0.733600
      6 C06         2.1910   -0.2430    1.2540 ca        1 B7D      0.388600
      7 C07         3.5650   -0.6650    1.1750 ca        1 B7D     -0.225000
      8 C08         4.3990   -0.5110    2.2500 ca        1 B7D      0.200400
      9 CL09        5.9920   -1.0860    2.1260 cl        1 B7D     -0.040400
     10 C10         3.9790    0.0880    3.4780 ca        1 B7D     -0.640500
     11 S11         4.9190    0.4830    4.7010 sy        1 B7D      1.503200
     12 N12         5.3690   -1.2910    5.2850 n4        1 B7D     -0.785500
     13 O13         6.1770    0.9600    4.4180 o         1 B7D     -0.566800
     14 O14         4.2340    0.9340    5.8120 o         1 B7D     -0.566800
     15 C15         2.6030    0.4180    3.5500 ca        1 B7D      0.175000
     16 C16         1.7120    0.2490    2.5130 ca        1 B7D     -0.451500
     17 S17         0.0520    0.6020    2.7670 sy        1 B7D      1.530200
     18 O18        -0.5490   -0.5890    3.1790 o         1 B7D     -0.620800
     19 O19        -0.0420    1.7160    3.5990 o         1 B7D     -0.620800
     20 N20        -0.3700    0.9650    1.2410 n3        1 B7D     -0.912100
     21 H01        -0.1160    0.7370   -0.8420 h2        1 B7D      0.118700
     22 H02        -0.9930   -1.7160    0.9440 h2        1 B7D      0.137700
     23 HN05        1.7470   -0.7030   -0.6870 hn        1 B7D      0.485800
     24 H07         3.9410   -1.1160    0.2390 ha        1 B7D      0.184000
     25 HN12        4.9350   -2.0090    4.7140 hn        1 B7D      0.455467
     26 HN1A        5.0660   -1.4310    6.2480 hn        1 B7D      0.455467
     27 H15         2.2190    0.8570    4.5030 ha        1 B7D      0.193000
     28 HN20       -0.8520    1.7970    0.9870 hn        1 B7D      0.490800
     29 H123        6.3770   -1.4300    5.2520 hn        1 B7D      0.455467
@<TRIPOS>BOND
     1    1    2 1   
     2    1    5 1   
     3    1   20 1   
     4    1   21 1   
     5    2    3 1   
     6    2    4 1   
     7    2   22 1   
     8    5    6 1   
     9    5   23 1   
    10    6    7 ar  
    11    6   16 ar  
    12    7    8 ar  
    13    7   24 1   
    14    8    9 1   
    15    8   10 ar  
    16   10   11 1   
    17   10   15 ar  
    18   11   12 1   
    19   11   13 2   
    20   11   14 2   
    21   12   25 1   
    22   12   26 1   
    23   12   29 1   
    24   15   16 ar  
    25   15   27 1   
    26   16   17 1   
    27   17   18 2   
    28   17   19 2   
    29   17   20 1   
    30   20   28 1   
@<TRIPOS>SUBSTRUCTURE
     1 B7D         1 TEMP              0 ****  ****    0 ROOT
