@<TRIPOS>MOLECULE
B7D
   29    30     1     0     0
SMALL
bcc


@<TRIPOS>ATOM
      1 C01         0.0080    0.1210    0.1000 c3        1 B7D      0.511700
      2 C02        -0.9550   -1.1200   -0.0200 c3        1 B7D      0.078100
      3 Cl03       -2.5690   -0.5350   -0.3130 cl        1 B7D     -0.099900
      4 Cl04       -0.4160   -2.1790   -1.3050 cl        1 B7D     -0.099900
      5 N05         1.4140   -0.3220    0.1570 nu        1 B7D     -0.733600
      6 C06         2.2000   -0.2500    1.2540 ca        1 B7D      0.388600
      7 C07         3.5750   -0.6740    1.1890 ca        1 B7D     -0.225000
      8 C08         4.3990   -0.5140    2.2710 ca        1 B7D      0.200400
      9 Cl09        5.9930   -1.0910    2.1640 cl        1 B7D     -0.040400
     10 C10         3.9690    0.0920    3.4920 ca        1 B7D     -0.640500
     11 S11         4.8980    0.4930    4.7210 sy        1 B7D      1.503200
     12 N12         5.3420   -1.2780    5.3190 nz        1 B7D     -0.785500
     13 O13         6.1590    0.9680    4.4460 o         1 B7D     -0.566800
     14 O14         4.2050    0.9510    5.8240 o         1 B7D     -0.566800
     15 C15         2.5920    0.4230    3.5500 ca        1 B7D      0.175000
     16 C16         1.7110    0.2490    2.5060 ca        1 B7D     -0.451500
     17 S17         0.0480    0.6040    2.7440 sy        1 B7D      1.530200
     18 O18        -0.5560   -0.5840    3.1570 o         1 B7D     -0.620800
     19 O19        -0.0520    1.7240    3.5690 o         1 B7D     -0.620800
     20 N20        -0.3600    0.9590    1.2120 n7        1 B7D     -0.912100
     21 H01        -0.0880    0.7190   -0.8670 h2        1 B7D      0.118700
     22 H02        -0.9820   -1.7230    0.9250 h2        1 B7D      0.137700
     23 HN05        1.7730   -0.7210   -0.6880 hn        1 B7D      0.485800
     24 H07         3.9580   -1.1300    0.2590 ha        1 B7D      0.184000
     25 HN12        5.0310   -1.4120    6.2790 hn        1 B7D      0.455467
     26 HN1A        6.3510   -1.4170    5.2950 hn        1 B7D      0.455467
     27 H15         2.2000    0.8680    4.4970 ha        1 B7D      0.193000
     28 HN20       -0.8390    1.7900    0.9490 hn        1 B7D      0.490800
     29 H123        4.9120   -1.9990    4.7470 hn        1 B7D      0.455467
@<TRIPOS>BOND
     1    1    2 1   
     2    1    5 1   
     3    1   20 1   
     4    1   21 1   
     5    2    3 1   
     6    2    4 1   
     7    2   22 1   
     8    5    6 1   
     9    5   23 1   
    10    6    7 ar  
    11    6   16 ar  
    12    7    8 ar  
    13    7   24 1   
    14    8    9 1   
    15    8   10 ar  
    16   10   11 1   
    17   10   15 ar  
    18   11   12 1   
    19   11   13 2   
    20   11   14 2   
    21   12   25 1   
    22   12   26 1   
    23   12   29 1   
    24   15   16 ar  
    25   15   27 1   
    26   16   17 1   
    27   17   18 2   
    28   17   19 2   
    29   17   20 1   
    30   20   28 1   
@<TRIPOS>SUBSTRUCTURE
     1 B7D         1 TEMP              0 ****  ****    0 ROOT
