@<TRIPOS>MOLECULE
B7G
   45    45     1     0     0
SMALL
bcc


@<TRIPOS>ATOM
      1 C5         -0.2730    0.0710   -0.0620 c3        1 B7G      0.108100
      2 O5          1.1180   -0.2480    0.0190 os        1 B7G     -0.449600
      3 C1          1.6200   -0.2210    1.3500 c3        1 B7G      0.307900
      4 C2          1.4590    1.1750    1.9840 c3        1 B7G      0.089100
      5 C3         -0.0210    1.5790    1.9390 c3        1 B7G      0.108100
      6 C4         -0.5360    1.4800    0.4920 c3        1 B7G      0.122100
      7 C6         -0.6290   -0.0050   -1.5490 c3        1 B7G      0.140400
      8 O1          3.0020   -0.4320    1.1750 os        1 B7G     -0.424600
      9 C7          3.3290   -1.7510    0.7190 c3        1 B7G      0.136400
     10 C8          4.8430   -1.8040    0.6240 c3        1 B7G     -0.085400
     11 C9          5.2910   -3.1670    0.1450 c3        1 B7G     -0.078400
     12 C10         6.8000   -3.2390    0.0440 c3        1 B7G     -0.078400
     13 C11         7.2530   -4.6020   -0.4360 c3        1 B7G     -0.079400
     14 C12         8.7610   -4.6760   -0.5370 c3        1 B7G     -0.080400
     15 O2          1.8330    1.1470    3.3490 oh        1 B7G     -0.603800
     16 O3         -0.1930    2.9280    2.3350 oh        1 B7G     -0.605800
     17 O4         -1.9370    1.6850    0.4530 oh        1 B7G     -0.594800
     18 O6         -0.4680   -1.3160   -2.0450 oh        1 B7G     -0.594800
     19 C13         9.2170   -6.0300   -1.0150 c3        1 B7G     -0.093100
     20 H51        -0.8650   -0.6880    0.5200 h1        1 B7G      0.068700
     21 H11         1.1400   -1.0250    1.9740 h2        1 B7G      0.053700
     22 H21         2.0870    1.9210    1.4240 h1        1 B7G      0.077700
     23 H31        -0.6220    0.9090    2.6150 h1        1 B7G      0.064700
     24 H41        -0.0180    2.2530   -0.1410 h1        1 B7G      0.063700
     25 H61         0.0020    0.7160   -2.1320 h1        1 B7G      0.064200
     26 H62        -1.7190    0.2360   -1.6770 h1        1 B7G      0.064200
     27 H71         2.8500   -1.9270   -0.2790 h1        1 B7G      0.038200
     28 H72         2.9410   -2.5030    1.4560 h1        1 B7G      0.038200
     29 H81         5.1980   -1.0090   -0.0830 hc        1 B7G      0.055200
     30 H82         5.2890   -1.5800    1.6270 hc        1 B7G      0.055200
     31 H91         4.9230   -3.9570    0.8530 hc        1 B7G      0.041700
     32 H92         4.8360   -3.3840   -0.8580 hc        1 B7G      0.041700
     33 H101        7.1670   -2.4500   -0.6630 hc        1 B7G      0.041700
     34 H102        7.2550   -3.0230    1.0460 hc        1 B7G      0.041700
     35 H111        6.8850   -5.3910    0.2710 hc        1 B7G      0.040200
     36 H112        6.7980   -4.8180   -1.4390 hc        1 B7G      0.040200
     37 H121        9.2140   -4.4580    0.4660 hc        1 B7G      0.038700
     38 H122        9.1270   -3.8840   -1.2430 hc        1 B7G      0.038700
     39 HO2         2.7640    0.8890    3.3730 ho        1 B7G      0.425000
     40 HO3         0.2060    3.0100    3.2120 ho        1 B7G      0.427000
     41 HO4        -2.1000    2.5340    0.8870 ho        1 B7G      0.426000
     42 HO6         0.4600   -1.5530   -1.9180 ho        1 B7G      0.409000
     43 H131        8.8830   -6.8300   -0.3110 hc        1 B7G      0.033033
     44 H132        8.7960   -6.2550   -2.0250 hc        1 B7G      0.033033
     45 H133       10.3310   -6.0630   -1.0820 hc        1 B7G      0.033033
@<TRIPOS>BOND
     1    1    2 1   
     2    1    6 1   
     3    1    7 1   
     4    1   20 1   
     5    2    3 1   
     6    3    4 1   
     7    3    8 1   
     8    3   21 1   
     9    4    5 1   
    10    4   15 1   
    11    4   22 1   
    12    5    6 1   
    13    5   16 1   
    14    5   23 1   
    15    6   17 1   
    16    6   24 1   
    17    7   18 1   
    18    7   25 1   
    19    7   26 1   
    20    8    9 1   
    21    9   10 1   
    22    9   27 1   
    23    9   28 1   
    24   10   11 1   
    25   10   29 1   
    26   10   30 1   
    27   11   12 1   
    28   11   31 1   
    29   11   32 1   
    30   12   13 1   
    31   12   33 1   
    32   12   34 1   
    33   13   14 1   
    34   13   35 1   
    35   13   36 1   
    36   14   19 1   
    37   14   37 1   
    38   14   38 1   
    39   15   39 1   
    40   16   40 1   
    41   17   41 1   
    42   18   42 1   
    43   19   43 1   
    44   19   44 1   
    45   19   45 1   
@<TRIPOS>SUBSTRUCTURE
     1 B7G         1 TEMP              0 ****  ****    0 ROOT
