@<TRIPOS>MOLECULE
B7G
   45    45     1     0     0
SMALL
bcc


@<TRIPOS>ATOM
      1 C5         -3.9010    1.0180   -1.1570 c3        1 B7G      0.112100
      2 O5         -2.3140    1.3950   -1.2580 os        1 B7G     -0.453600
      3 C1         -1.9030    0.8420    0.2220 c3        1 B7G      0.344900
      4 C2         -2.5910    1.5630    1.3440 c3        1 B7G      0.130100
      5 C3         -3.7240    2.2360    0.8980 c3        1 B7G      0.068100
      6 C4         -4.6180    1.7410   -0.0580 c3        1 B7G      0.083100
      7 C6         -4.5290    1.3300   -2.4020 c3        1 B7G      0.140400
      8 O1         -0.5970    0.9660    0.3750 os        1 B7G     -0.401600
      9 C7          0.1310   -0.2160    0.0930 c3        1 B7G      0.135400
     10 C8          1.6390    0.0660    0.2210 c3        1 B7G     -0.084400
     11 C9          2.4110   -1.2250    0.0530 c3        1 B7G     -0.078400
     12 C10         3.8900   -0.9610    0.2660 c3        1 B7G     -0.078400
     13 C11         4.6660   -2.2380    0.0580 c3        1 B7G     -0.079400
     14 C12         6.1300   -2.0400    0.5300 c3        1 B7G     -0.080400
     15 O2         -2.9980    0.5580    2.3860 oh        1 B7G     -0.587800
     16 O3         -3.1930    3.6700    0.3160 oh        1 B7G     -0.602800
     17 O4         -5.5790    0.7900    0.6160 oh        1 B7G     -0.592800
     18 O6         -4.4120    0.2380   -3.2670 oh        1 B7G     -0.594800
     19 C13         6.9510   -3.2840    0.1710 c3        1 B7G     -0.093100
     20 H51        -3.9810    0.0600   -1.0010 h1        1 B7G      0.066700
     21 H11        -2.1340   -0.1040    0.2750 h2        1 B7G      0.059700
     22 H21        -1.9620    2.2160    1.7470 h1        1 B7G      0.079700
     23 H31        -4.2540    2.4310    1.6910 h1        1 B7G      0.065700
     24 H41        -5.1070    2.4630   -0.4300 h1        1 B7G      0.066700
     25 H61        -4.0920    2.1170   -2.8030 h1        1 B7G      0.061700
     26 H62        -5.4610    1.5230   -2.2520 h1        1 B7G      0.061700
     27 H71        -0.0690   -0.5130   -0.8200 h1        1 B7G      0.035200
     28 H72        -0.1290   -0.9250    0.7370 h1        1 B7G      0.035200
     29 H81         1.9230    0.7250   -0.5000 hc        1 B7G      0.056700
     30 H82         1.8220    0.4380    1.0830 hc        1 B7G      0.056700
     31 H91         2.1030   -1.8710    0.6990 hc        1 B7G      0.040700
     32 H92         2.2740   -1.5640   -0.8230 hc        1 B7G      0.040700
     33 H101        4.1910   -0.2990   -0.3610 hc        1 B7G      0.041700
     34 H102        4.0310   -0.6440    1.1540 hc        1 B7G      0.041700
     35 H111        4.2550   -2.9540    0.5730 hc        1 B7G      0.039700
     36 H112        4.6580   -2.4690   -0.8730 hc        1 B7G      0.039700
     37 H121        6.5100   -1.2640    0.0920 hc        1 B7G      0.038700
     38 H122        6.1450   -1.9070    1.4990 hc        1 B7G      0.038700
     39 HO2        -2.7370    0.8460    3.2050 ho        1 B7G      0.420000
     40 HO3        -3.5630    4.3110    0.7540 ho        1 B7G      0.409000
     41 HO4        -6.3910    1.1850    0.6920 ho        1 B7G      0.407000
     42 HO6        -4.8810    0.4000   -4.0210 ho        1 B7G      0.411000
     43 H131        6.5920   -4.0590    0.6460 hc        1 B7G      0.032700
     44 H132        7.8960   -3.1450    0.4340 hc        1 B7G      0.032700
     45 H133        6.8990   -3.4420   -0.8040 hc        1 B7G      0.032700
@<TRIPOS>BOND
     1    1    2 1   
     2    1    6 1   
     3    1    7 1   
     4    1   20 1   
     5    2    3 1   
     6    3    4 1   
     7    3    8 1   
     8    3   21 1   
     9    4    5 1   
    10    4   15 1   
    11    4   22 1   
    12    5    6 1   
    13    5   16 1   
    14    5   23 1   
    15    6   17 1   
    16    6   24 1   
    17    7   18 1   
    18    7   25 1   
    19    7   26 1   
    20    8    9 1   
    21    9   10 1   
    22    9   27 1   
    23    9   28 1   
    24   10   11 1   
    25   10   29 1   
    26   10   30 1   
    27   11   12 1   
    28   11   31 1   
    29   11   32 1   
    30   12   13 1   
    31   12   33 1   
    32   12   34 1   
    33   13   14 1   
    34   13   35 1   
    35   13   36 1   
    36   14   19 1   
    37   14   37 1   
    38   14   38 1   
    39   15   39 1   
    40   16   40 1   
    41   17   41 1   
    42   18   42 1   
    43   19   43 1   
    44   19   44 1   
    45   19   45 1   
@<TRIPOS>SUBSTRUCTURE
     1 B7G         1 TEMP              0 ****  ****    0 ROOT
