@<TRIPOS>MOLECULE
B7G
   45    45     1     0     0
SMALL
bcc


@<TRIPOS>ATOM
      1 C5         -1.3560    0.1940   -2.8030 c3        1 B7G      0.108100
      2 O5         -0.8120   -0.0990   -1.5140 os        1 B7G     -0.449600
      3 C1          0.4830    0.4560   -1.3160 c3        1 B7G      0.307900
      4 C2          1.4920   -0.0890   -2.3460 c3        1 B7G      0.089100
      5 C3          0.9720    0.2010   -3.7600 c3        1 B7G      0.108100
      6 C4         -0.4500   -0.3660   -3.9110 c3        1 B7G      0.122100
      7 C6         -2.7330   -0.4760   -2.8340 c3        1 B7G      0.140400
      8 O1          0.8620   -0.0590   -0.0600 os        1 B7G     -0.424600
      9 C7          0.1000    0.4700    1.0320 c3        1 B7G      0.136400
     10 C8          0.6650   -0.1640    2.2900 c3        1 B7G     -0.085400
     11 C9         -0.0800    0.3340    3.5090 c3        1 B7G     -0.078400
     12 C10         0.4710   -0.2880    4.7740 c3        1 B7G     -0.078400
     13 C11        -0.2720    0.2070    5.9970 c3        1 B7G     -0.079400
     14 C12         0.2780   -0.4130    7.2630 c3        1 B7G     -0.080400
     15 O2          2.7360    0.5770   -2.2230 oh        1 B7G     -0.603800
     16 O3          1.7680   -0.4460   -4.7370 oh        1 B7G     -0.605800
     17 O4         -1.0120    0.0360   -5.1480 oh        1 B7G     -0.594800
     18 O6         -3.5960    0.0900   -1.8730 oh        1 B7G     -0.594800
     19 C13        -0.4590    0.0770    8.4830 c3        1 B7G     -0.093100
     20 H51        -1.4630    1.3080   -2.9200 h1        1 B7G      0.068700
     21 H11         0.4400    1.5800   -1.3220 h2        1 B7G      0.053700
     22 H21         1.6270   -1.1960   -2.1960 h1        1 B7G      0.077700
     23 H31         0.9740    1.3110   -3.9490 h1        1 B7G      0.064700
     24 H41        -0.4120   -1.4890   -3.8550 h1        1 B7G      0.063700
     25 H61        -3.2140   -0.2780   -3.8290 h1        1 B7G      0.064200
     26 H62        -2.6250   -1.5800   -2.6630 h1        1 B7G      0.064200
     27 H71        -0.9810    0.2060    0.8920 h1        1 B7G      0.038200
     28 H72         0.2110    1.5870    1.0530 h1        1 B7G      0.038200
     29 H81         1.7560    0.0820    2.3750 hc        1 B7G      0.055200
     30 H82         0.5820   -1.2790    2.2130 hc        1 B7G      0.055200
     31 H91        -1.1700    0.0870    3.4120 hc        1 B7G      0.041700
     32 H92         0.0030    1.4520    3.5720 hc        1 B7G      0.041700
     33 H101        1.5610   -0.0410    4.8710 hc        1 B7G      0.041700
     34 H102        0.3890   -1.4050    4.7110 hc        1 B7G      0.041700
     35 H111       -1.3620   -0.0390    5.9000 hc        1 B7G      0.040200
     36 H112       -0.1900    1.3250    6.0600 hc        1 B7G      0.040200
     37 H121        1.3680   -0.1670    7.3570 hc        1 B7G      0.038700
     38 H122        0.1960   -1.5300    7.1970 hc        1 B7G      0.038700
     39 HO2         3.0570    0.3940   -1.3290 ho        1 B7G      0.425000
     40 HO3         2.6780   -0.1530   -4.5900 ho        1 B7G      0.427000
     41 HO4        -0.3880   -0.2410   -5.8330 ho        1 B7G      0.426000
     42 HO6        -3.1850   -0.0460   -1.0100 ho        1 B7G      0.409000
     43 H131       -0.0380   -0.3930    9.4050 hc        1 B7G      0.033033
     44 H132       -0.3690    1.1860    8.5800 hc        1 B7G      0.033033
     45 H133       -1.5440   -0.1810    8.4190 hc        1 B7G      0.033033
@<TRIPOS>BOND
     1    1    2 1   
     2    1    6 1   
     3    1    7 1   
     4    1   20 1   
     5    2    3 1   
     6    3    4 1   
     7    3    8 1   
     8    3   21 1   
     9    4    5 1   
    10    4   15 1   
    11    4   22 1   
    12    5    6 1   
    13    5   16 1   
    14    5   23 1   
    15    6   17 1   
    16    6   24 1   
    17    7   18 1   
    18    7   25 1   
    19    7   26 1   
    20    8    9 1   
    21    9   10 1   
    22    9   27 1   
    23    9   28 1   
    24   10   11 1   
    25   10   29 1   
    26   10   30 1   
    27   11   12 1   
    28   11   31 1   
    29   11   32 1   
    30   12   13 1   
    31   12   33 1   
    32   12   34 1   
    33   13   14 1   
    34   13   35 1   
    35   13   36 1   
    36   14   19 1   
    37   14   37 1   
    38   14   38 1   
    39   15   39 1   
    40   16   40 1   
    41   17   41 1   
    42   18   42 1   
    43   19   43 1   
    44   19   44 1   
    45   19   45 1   
@<TRIPOS>SUBSTRUCTURE
     1 B7G         1 TEMP              0 ****  ****    0 ROOT
