@<TRIPOS>MOLECULE
B7G
   45    45     1     0     0
SMALL
bcc


@<TRIPOS>ATOM
      1 C5         -0.2720    0.0750   -0.0510 c3        1 B7G      0.108100
      2 O5          1.1190   -0.2460    0.0260 os        1 B7G     -0.449600
      3 C1          1.6250   -0.2200    1.3550 c3        1 B7G      0.307900
      4 C2          1.4670    1.1760    1.9910 c3        1 B7G      0.089100
      5 C3         -0.0130    1.5810    1.9500 c3        1 B7G      0.108100
      6 C4         -0.5320    1.4840    0.5050 c3        1 B7G      0.122100
      7 C6         -0.6340   -0.0000   -1.5370 c3        1 B7G      0.140400
      8 O1          3.0060   -0.4320    1.1750 os        1 B7G     -0.424600
      9 C7          3.3300   -1.7520    0.7190 c3        1 B7G      0.136400
     10 C8          4.8430   -1.8060    0.6170 c3        1 B7G     -0.085400
     11 C9          5.2890   -3.1700    0.1380 c3        1 B7G     -0.078400
     12 C10         6.7970   -3.2430    0.0300 c3        1 B7G     -0.078400
     13 C11         7.2470   -4.6060   -0.4490 c3        1 B7G     -0.079400
     14 C12         8.7550   -4.6810   -0.5570 c3        1 B7G     -0.080400
     15 O2          1.8450    1.1470    3.3550 oh        1 B7G     -0.603800
     16 O3         -0.1810    2.9300    2.3480 oh        1 B7G     -0.605800
     17 O4         -1.9330    1.6910    0.4700 oh        1 B7G     -0.594800
     18 O6         -0.4750   -1.3110   -2.0330 oh        1 B7G     -0.594800
     19 C13         9.2080   -6.0370   -1.0350 c3        1 B7G     -0.093100
     20 H51        -0.8640   -0.6830    0.5320 h1        1 B7G      0.068700
     21 H11         1.1460   -1.0240    1.9800 h2        1 B7G      0.053700
     22 H21         2.0940    1.9220    1.4290 h1        1 B7G      0.077700
     23 H31        -0.6130    0.9120    2.6270 h1        1 B7G      0.064700
     24 H41        -0.0160    2.2570   -0.1300 h1        1 B7G      0.063700
     25 H61        -0.0030    0.7200   -2.1210 h1        1 B7G      0.064200
     26 H62        -1.7230    0.2420   -1.6610 h1        1 B7G      0.064200
     27 H71         2.9440   -2.5030    1.4570 h1        1 B7G      0.038200
     28 H72         2.8470   -1.9280   -0.2780 h1        1 B7G      0.038200
     29 H81         5.2930   -1.5810    1.6190 hc        1 B7G      0.055200
     30 H82         5.1960   -1.0110   -0.0910 hc        1 B7G      0.055200
     31 H91         4.8300   -3.3870   -0.8630 hc        1 B7G      0.041700
     32 H92         4.9240   -3.9580    0.8480 hc        1 B7G      0.041700
     33 H101        7.2560   -3.0250    1.0310 hc        1 B7G      0.041700
     34 H102        7.1620   -2.4540   -0.6790 hc        1 B7G      0.041700
     35 H111        6.8810   -5.3950    0.2600 hc        1 B7G      0.040200
     36 H112        6.7880   -4.8240   -1.4500 hc        1 B7G      0.040200
     37 H121        9.2120   -4.4620    0.4440 hc        1 B7G      0.038700
     38 H122        9.1190   -3.8910   -1.2660 hc        1 B7G      0.038700
     39 HO2         2.7760    0.8870    3.3750 ho        1 B7G      0.425000
     40 HO3         0.2200    3.0120    3.2240 ho        1 B7G      0.427000
     41 HO4        -2.0940    2.5400    0.9050 ho        1 B7G      0.426000
     42 HO6         0.4530   -1.5490   -1.9100 ho        1 B7G      0.409000
     43 H131       10.3220   -6.0700   -1.1070 hc        1 B7G      0.033033
     44 H132        8.7820   -6.2630   -2.0420 hc        1 B7G      0.033033
     45 H133        8.8760   -6.8350   -0.3280 hc        1 B7G      0.033033
@<TRIPOS>BOND
     1    1    2 1   
     2    1    6 1   
     3    1    7 1   
     4    1   20 1   
     5    2    3 1   
     6    3    4 1   
     7    3    8 1   
     8    3   21 1   
     9    4    5 1   
    10    4   15 1   
    11    4   22 1   
    12    5    6 1   
    13    5   16 1   
    14    5   23 1   
    15    6   17 1   
    16    6   24 1   
    17    7   18 1   
    18    7   25 1   
    19    7   26 1   
    20    8    9 1   
    21    9   10 1   
    22    9   27 1   
    23    9   28 1   
    24   10   11 1   
    25   10   29 1   
    26   10   30 1   
    27   11   12 1   
    28   11   31 1   
    29   11   32 1   
    30   12   13 1   
    31   12   33 1   
    32   12   34 1   
    33   13   14 1   
    34   13   35 1   
    35   13   36 1   
    36   14   19 1   
    37   14   37 1   
    38   14   38 1   
    39   15   39 1   
    40   16   40 1   
    41   17   41 1   
    42   18   42 1   
    43   19   43 1   
    44   19   44 1   
    45   19   45 1   
@<TRIPOS>SUBSTRUCTURE
     1 B7G         1 TEMP              0 ****  ****    0 ROOT
