@<TRIPOS>MOLECULE
B7H
   34    36     1     0     0
SMALL
bcc


@<TRIPOS>ATOM
      1 C20         4.6740    0.9450   -3.6730 cg        1 B7H      0.164800
      2 C8          0.0010   -0.0030    0.0300 ca        1 B7H     -0.080000
      3 C12         2.0960    0.0820    1.2740 ca        1 B7H     -0.103000
      4 C3          3.5950    0.4720   -2.8940 cc        1 B7H      0.370300
      5 C7          1.4100    0.0600    0.0580 ca        1 B7H     -0.037000
      6 C9         -0.6920   -0.0460    1.2180 ca        1 B7H     -0.119300
      7 C2          3.3420    0.8180   -1.5070 cc        1 B7H     -0.175600
      8 C10        -0.0030   -0.0250    2.4740 ca        1 B7H      0.041600
      9 C11         1.4010    0.0410    2.5000 ca        1 B7H      0.084900
     10 C6          2.1630    0.1150   -1.1790 cd        1 B7H     -0.063300
     11 C15        -2.2270   -0.1280    3.0450 c         1 B7H      0.702500
     12 C17        -2.1790   -0.1120    1.4880 c3        1 B7H     -0.061700
     13 C18        -2.8030   -1.3840    0.9530 c3        1 B7H     -0.082100
     14 C19        -2.9080    1.1140    0.9760 c3        1 B7H     -0.082100
     15 N21         5.5680    1.3440   -4.2990 n1        1 B7H     -0.353800
     16 N5          1.7940   -0.5840   -2.3460 na        1 B7H      0.003400
     17 N4          2.6250   -0.3860   -3.3530 nd        1 B7H     -0.455800
     18 N14        -0.9070   -0.0760    3.5390 n         1 B7H     -0.471100
     19 O16        -3.2270   -0.1780    3.7630 o         1 B7H     -0.583500
     20 F13         2.0770    0.0640    3.6720 f         1 B7H     -0.132900
     21 H8         -0.5430   -0.0000   -0.9270 ha        1 B7H      0.143000
     22 H12         3.1970    0.1300    1.2900 ha        1 B7H      0.163000
     23 H11C        4.9410    1.1210   -0.1360 hc        1 B7H      0.054367
     24 H12C        4.6460    2.4870   -1.2910 hc        1 B7H      0.054367
     25 H13C        3.5080    2.2100    0.1000 hc        1 B7H      0.054367
     26 H14        -0.6440   -0.0670    4.4910 hn        1 B7H      0.351500
     27 H5          1.0170   -1.1970   -2.4450 hn        1 B7H      0.330700
     28 H181       -3.8640   -1.4560    1.2980 hc        1 B7H      0.052867
     29 H182       -2.7820   -1.3750   -0.1630 hc        1 B7H      0.052867
     30 H183       -2.2470   -2.2810    1.3160 hc        1 B7H      0.052867
     31 H191       -2.8790    1.1310   -0.1410 hc        1 B7H      0.052867
     32 H192       -3.9720    1.0870    1.3140 hc        1 B7H      0.052867
     33 H193       -2.4310    2.0470    1.3610 hc        1 B7H      0.052867
     34 C1          4.1450    1.7040   -0.6680 c3        1 B7H     -0.032800
@<TRIPOS>BOND
     1    1    4 1   
     2    1   15 3   
     3    2    5 ar  
     4    2    6 ar  
     5    2   21 1   
     6    3    5 ar  
     7    3    9 ar  
     8    3   22 1   
     9    4    7 1   
    10    4   17 2   
    11    5   10 1   
    12    6    8 ar  
    13    6   12 1   
    14    7   10 2   
    15    7   34 1   
    16    8    9 ar  
    17    8   18 1   
    18    9   20 1   
    19   10   16 1   
    20   11   12 1   
    21   11   18 1   
    22   11   19 2   
    23   12   13 1   
    24   12   14 1   
    25   13   28 1   
    26   13   29 1   
    27   13   30 1   
    28   14   31 1   
    29   14   32 1   
    30   14   33 1   
    31   16   17 1   
    32   16   27 1   
    33   18   26 1   
    34   23   34 1   
    35   24   34 1   
    36   25   34 1   
@<TRIPOS>SUBSTRUCTURE
     1 B7H         1 TEMP              0 ****  ****    0 ROOT
