@<TRIPOS>MOLECULE
B7H
   34    36     1     0     0
SMALL
bcc


@<TRIPOS>ATOM
      1 C20         4.6470    0.9690   -3.6970 cg        1 B7H      0.164800
      2 C8         -0.0280    0.0460    0.0100 ca        1 B7H     -0.080000
      3 C12         2.0700    0.1210    1.2530 ca        1 B7H     -0.103000
      4 C3          3.5660    0.5010   -2.9180 cc        1 B7H      0.370300
      5 C7          1.3820    0.1020    0.0370 ca        1 B7H     -0.037000
      6 C9         -0.7200    0.0070    1.1990 ca        1 B7H     -0.119300
      7 C2          3.3170    0.8490   -1.5300 cc        1 B7H     -0.175600
      8 C10        -0.0290    0.0250    2.4540 ca        1 B7H      0.041600
      9 C11         1.3750    0.0840    2.4780 ca        1 B7H      0.084900
     10 C6          2.1340    0.1520   -1.2010 cd        1 B7H     -0.063300
     11 C15        -2.2530   -0.0660    3.0270 c         1 B7H      0.702500
     12 C17        -2.2060   -0.0510    1.4700 c3        1 B7H     -0.061700
     13 C18        -2.8370   -1.3210    0.9370 c3        1 B7H     -0.082100
     14 C19        -2.9290    1.1780    0.9580 c3        1 B7H     -0.082100
     15 N21         5.5420    1.3630   -4.3250 n1        1 B7H     -0.353800
     16 N5          1.7610   -0.5460   -2.3670 na        1 B7H      0.003400
     17 N4          2.5920   -0.3520   -3.3760 nd        1 B7H     -0.455800
     18 N14        -0.9320   -0.0210    3.5200 ns        1 B7H     -0.471100
     19 O16        -3.2530   -0.1100    3.7470 o         1 B7H     -0.583500
     20 F13         2.0530    0.1040    3.6510 f         1 B7H     -0.132900
     21 H8         -0.5720    0.0500   -0.9460 ha        1 B7H      0.143000
     22 H12         3.1710    0.1630    1.2670 ha        1 B7H      0.163000
     23 H11C        3.4900    2.2410    0.0750 hc        1 B7H      0.054367
     24 H12C        4.6280    2.5120   -1.3170 hc        1 B7H      0.054367
     25 H13C        4.9180    1.1460   -0.1610 hc        1 B7H      0.054367
     26 H14        -0.6690   -0.0120    4.4710 hn        1 B7H      0.351500
     27 H5          0.9810   -1.1550   -2.4650 hn        1 B7H      0.330700
     28 H181       -3.8980   -1.3870    1.2820 hc        1 B7H      0.052867
     29 H182       -2.2850   -2.2200    1.3000 hc        1 B7H      0.052867
     30 H183       -2.8170   -1.3130   -0.1790 hc        1 B7H      0.052867
     31 H191       -2.9020    1.1940   -0.1580 hc        1 B7H      0.052867
     32 H192       -3.9940    1.1570    1.2970 hc        1 B7H      0.052867
     33 H193       -2.4480    2.1090    1.3410 hc        1 B7H      0.052867
     34 C1          4.1250    1.7320   -0.6930 c3        1 B7H     -0.032800
@<TRIPOS>BOND
     1    1    4 1   
     2    1   15 3   
     3    2    5 ar  
     4    2    6 ar  
     5    2   21 1   
     6    3    5 ar  
     7    3    9 ar  
     8    3   22 1   
     9    4    7 1   
    10    4   17 2   
    11    5   10 1   
    12    6    8 ar  
    13    6   12 1   
    14    7   10 2   
    15    7   34 1   
    16    8    9 ar  
    17    8   18 1   
    18    9   20 1   
    19   10   16 1   
    20   11   12 1   
    21   11   18 1   
    22   11   19 2   
    23   12   13 1   
    24   12   14 1   
    25   13   28 1   
    26   13   29 1   
    27   13   30 1   
    28   14   31 1   
    29   14   32 1   
    30   14   33 1   
    31   16   17 1   
    32   16   27 1   
    33   18   26 1   
    34   23   34 1   
    35   24   34 1   
    36   25   34 1   
@<TRIPOS>SUBSTRUCTURE
     1 B7H         1 TEMP              0 ****  ****    0 ROOT
