@<TRIPOS>MOLECULE
B7M
   45    44     1     0     0
SMALL
bcc


@<TRIPOS>ATOM
      1 O           0.2610   -0.1400   -0.5760 o         1 B7M     -0.528100
      2 C16         1.3410   -0.6670   -0.3100 c         1 B7M      0.564900
      3 C15         2.1510   -0.3040    0.8960 c3        1 B7M     -0.204400
      4 C14         3.0230   -1.4520    1.3520 c3        1 B7M     -0.076400
      5 C13         3.8530   -1.0600    2.5560 c3        1 B7M     -0.078400
      6 C12         4.7260   -2.2070    3.0170 c3        1 B7M     -0.079400
      7 C11         5.5560   -1.8160    4.2210 c3        1 B7M     -0.079400
      8 C10         6.4280   -2.9630    4.6820 c3        1 B7M     -0.080400
      9 C9          7.2630   -2.5710    5.8820 c3        1 B7M     -0.076400
     10 C8          8.1260   -3.7150    6.3750 c3        1 B7M     -0.052200
     11 C7          7.3460   -4.7880    7.0340 c2        1 B7M     -0.154200
     12 C6          7.8620   -5.9350    7.5000 ce        1 B7M     -0.145000
     13 C5          9.2600   -6.3010    7.4280 ce        1 B7M     -0.146000
     14 C4          9.7730   -7.4510    7.8880 c2        1 B7M     -0.152200
     15 C3          8.9910   -8.5260    8.5410 c3        1 B7M     -0.053200
     16 C2          9.8600   -9.7000    8.9460 c3        1 B7M     -0.079400
     17 C1          9.0470  -10.7820    9.6080 c3        1 B7M     -0.093100
     18 H151        1.4700    0.0210    1.7280 hc        1 B7M      0.074200
     19 H152        2.7900    0.5810    0.6280 hc        1 B7M      0.074200
     20 H141        2.3800   -2.3350    1.6110 hc        1 B7M      0.043700
     21 H142        3.7010   -1.7700    0.5160 hc        1 B7M      0.043700
     22 H131        4.4950   -0.1770    2.2990 hc        1 B7M      0.042700
     23 H132        3.1750   -0.7430    3.3930 hc        1 B7M      0.042700
     24 H121        4.0830   -3.0900    3.2740 hc        1 B7M      0.041200
     25 H122        5.4030   -2.5240    2.1800 hc        1 B7M      0.041200
     26 H111        4.8780   -1.4980    5.0570 hc        1 B7M      0.040200
     27 H112        6.1990   -0.9330    3.9640 hc        1 B7M      0.040200
     28 H101        7.1020   -3.2840    3.8440 hc        1 B7M      0.042200
     29 H102        5.7860   -3.8450    4.9430 hc        1 B7M      0.042200
     30 H91C        6.5910   -2.2200    6.7090 hc        1 B7M      0.040700
     31 H92C        7.9260   -1.7090    5.6050 hc        1 B7M      0.040700
     32 H81C        8.8810   -3.3100    7.1050 hc        1 B7M      0.050700
     33 H82C        8.7040   -4.1430    5.5110 hc        1 B7M      0.050700
     34 H7          6.2640   -4.5970    7.1370 ha        1 B7M      0.122000
     35 H6          7.1960   -6.6740    7.9810 ha        1 B7M      0.121000
     36 H5          9.9280   -5.5590    6.9550 ha        1 B7M      0.120000
     37 H4         10.8550   -7.6420    7.7880 ha        1 B7M      0.121000
     38 H31C        8.4740   -8.1160    9.4510 hc        1 B7M      0.050700
     39 H32C        8.1860   -8.8840    7.8430 hc        1 B7M      0.050700
     40 H21C       10.3740  -10.1160    8.0400 hc        1 B7M      0.040700
     41 H22C       10.6610   -9.3480    9.6480 hc        1 B7M      0.040700
     42 H11C        8.5460  -10.3930   10.5280 hc        1 B7M      0.033367
     43 H12C        8.2580  -11.1630    8.9150 hc        1 B7M      0.033367
     44 H13C        9.7030  -11.6380    9.8990 hc        1 B7M      0.033367
     45 HXT         1.7840   -1.4470   -0.9710 h4        1 B7M     -0.006800
@<TRIPOS>BOND
     1    1    2 2   
     2    2    3 1   
     3    2   45 1   
     4    3    4 1   
     5    3   18 1   
     6    3   19 1   
     7    4    5 1   
     8    4   20 1   
     9    4   21 1   
    10    5    6 1   
    11    5   22 1   
    12    5   23 1   
    13    6    7 1   
    14    6   24 1   
    15    6   25 1   
    16    7    8 1   
    17    7   26 1   
    18    7   27 1   
    19    8    9 1   
    20    8   28 1   
    21    8   29 1   
    22    9   10 1   
    23    9   30 1   
    24    9   31 1   
    25   10   11 1   
    26   10   32 1   
    27   10   33 1   
    28   11   12 2   
    29   11   34 1   
    30   12   13 1   
    31   12   35 1   
    32   13   14 2   
    33   13   36 1   
    34   14   15 1   
    35   14   37 1   
    36   15   16 1   
    37   15   38 1   
    38   15   39 1   
    39   16   17 1   
    40   16   40 1   
    41   16   41 1   
    42   17   42 1   
    43   17   43 1   
    44   17   44 1   
@<TRIPOS>SUBSTRUCTURE
     1 B7M         1 TEMP              0 ****  ****    0 ROOT
