@<TRIPOS>MOLECULE
B7M
   45    41     1     0     0
SMALL
bcc


@<TRIPOS>ATOM
      1 O          -4.6630    7.5540   -2.8370 o         1 B7M     -0.289000
      2 C16        -4.3930    6.6700   -3.6280 c1        1 B7M      0.183000
      3 C15        -3.0970    5.9020   -3.4910 c2        1 B7M     -0.233000
      4 C14        -3.3490    4.6180   -2.7320 c3        1 B7M     -0.155000
      5 C13        -2.0860    3.7860   -2.7150 c3        1 B7M     -0.157000
      6 C12        -2.2630    2.6190   -1.7670 c3        1 B7M     -0.158000
      7 C11        -1.1080    1.6570   -1.9310 c3        1 B7M     -0.158000
      8 C10        -1.0310    0.7510   -0.7220 c3        1 B7M     -0.158000
      9 C9         -0.0350   -0.3580   -0.9850 c3        1 B7M     -0.157000
     10 C8          0.3380   -1.0210    0.3230 c3        1 B7M     -0.135000
     11 C7          1.0060   -2.3490    0.0420 c2        1 B7M     -0.150000
     12 C6          1.6030   -3.0270    1.0420 c1        1 B7M     -0.144000
     13 C5          1.6050   -2.4610    2.4450 c1        1 B7M     -0.147000
     14 C4          2.2730   -3.0970    3.4270 c1        1 B7M     -0.147000
     15 C3          3.0190   -4.3790    3.1270 c2        1 B7M     -0.136000
     16 C2          3.8230   -4.7900    4.3410 c3        1 B7M     -0.158000
     17 C1          4.4050   -6.1680    4.1180 c3        1 B7M     -0.211000
     18 H151       -2.4460    6.4460   -3.0040 ha        1 B7M      0.113500
     19 H152       -2.7470    5.6920   -4.3800 ha        1 B7M      0.113500
     20 H141       -3.6130    4.8290   -1.8140 hc        1 B7M      0.083000
     21 H142       -4.0650    4.1150   -3.1700 hc        1 B7M      0.083000
     22 H131       -1.9050    3.4500   -3.6150 hc        1 B7M      0.082000
     23 H132       -1.3360    4.3380   -2.4150 hc        1 B7M      0.082000
     24 H121       -3.1020    2.1590   -1.9700 hc        1 B7M      0.080500
     25 H122       -2.2860    2.9480   -0.8460 hc        1 B7M      0.080500
     26 H111       -0.2730    2.1600   -2.0150 hc        1 B7M      0.080000
     27 H112       -1.2450    1.1170   -2.7350 hc        1 B7M      0.080000
     28 H101       -1.9120    0.3630   -0.5490 hc        1 B7M      0.079500
     29 H102       -0.7440    1.2690    0.0560 hc        1 B7M      0.079500
     30 H91C       -0.4340   -1.0200   -1.5840 hc        1 B7M      0.081000
     31 H92C        0.7670    0.0170   -1.4010 hc        1 B7M      0.081000
     32 H81C       -0.4700   -1.1680    0.8560 hc        1 B7M      0.090000
     33 H82C        0.9540   -0.4440    0.8170 hc        1 B7M      0.090000
     34 H7          1.0040   -2.7140   -0.8630 ha        1 B7M      0.121000
     35 H6          2.0340   -3.8840    0.8610 ha        1 B7M      0.121000
     36 H5          1.1240   -1.6340    2.6380 ha        1 B7M      0.121000
     37 H4          2.2740   -2.7320    4.3320 ha        1 B7M      0.121000
     38 H31C        2.3800   -5.0850    2.9060 ha        1 B7M      0.090000
     39 H32C        3.6220   -4.2350    2.3710 ha        1 B7M      0.090000
     40 H21C        3.2420   -4.8050    5.1280 hc        1 B7M      0.080000
     41 H22C        4.5480   -4.1490    4.4850 hc        1 B7M      0.080000
     42 H11C        5.0190   -6.3860    4.8500 hc        1 B7M      0.072667
     43 H12C        4.8930   -6.1830    3.2680 hc        1 B7M      0.072667
     44 H13C        3.6810   -6.8280    4.0900 hc        1 B7M      0.072667
     45 HXT        -5.0120    6.4580   -4.3550 ha        1 B7M      0.086000
@<TRIPOS>BOND
     1    1    2 1   
     2    2   45 1   
     3    3    4 1   
     4    3   18 1   
     5    3   19 1   
     6    4    5 1   
     7    4   20 1   
     8    4   21 1   
     9    5    6 1   
    10    5   22 1   
    11    5   23 1   
    12    6    7 1   
    13    6   24 1   
    14    6   25 1   
    15    7    8 1   
    16    7   26 1   
    17    7   27 1   
    18    8    9 1   
    19    8   28 1   
    20    8   29 1   
    21    9   10 1   
    22    9   30 1   
    23    9   31 1   
    24   10   11 1   
    25   10   32 1   
    26   10   33 1   
    27   11   12 1   
    28   11   34 1   
    29   12   35 1   
    30   13   14 1   
    31   13   36 1   
    32   14   37 1   
    33   15   16 1   
    34   15   38 1   
    35   15   39 1   
    36   16   17 1   
    37   16   40 1   
    38   16   41 1   
    39   17   42 1   
    40   17   43 1   
    41   17   44 1   
@<TRIPOS>SUBSTRUCTURE
     1 B7M         1 TEMP              0 ****  ****    0 ROOT
