@<TRIPOS>MOLECULE
B7M
   45    44     1     0     0
SMALL
bcc


@<TRIPOS>ATOM
      1 O           0.2200   -0.1320   -0.5330 o         1 B7M     -0.528100
      2 C16         1.3000   -0.6660   -0.2790 c         1 B7M      0.564900
      3 C15         2.1280   -0.3020    0.9150 c3        1 B7M     -0.204400
      4 C14         2.9960   -1.4540    1.3680 c3        1 B7M     -0.076400
      5 C13         3.8450   -1.0610    2.5580 c3        1 B7M     -0.078400
      6 C12         4.7140   -2.2130    3.0150 c3        1 B7M     -0.079400
      7 C11         5.5630   -1.8200    4.2050 c3        1 B7M     -0.079400
      8 C10         6.4320   -2.9720    4.6620 c3        1 B7M     -0.080400
      9 C9          7.2860   -2.5780    5.8480 c3        1 B7M     -0.076400
     10 C8          8.1460   -3.7260    6.3390 c3        1 B7M     -0.052200
     11 C7          7.3640   -4.7870    7.0180 c2        1 B7M     -0.154200
     12 C6          7.8770   -5.9330    7.4890 ce        1 B7M     -0.145000
     13 C5          9.2710   -6.3110    7.4040 ce        1 B7M     -0.146000
     14 C4          9.7810   -7.4580    7.8730 c2        1 B7M     -0.152200
     15 C3          9.0000   -8.5190    8.5510 c3        1 B7M     -0.053200
     16 C2          9.8650   -9.6930    8.9630 c3        1 B7M     -0.079400
     17 C1          9.0520  -10.7590    9.6500 c3        1 B7M     -0.093100
     18 H151        1.4620    0.0350    1.7530 hc        1 B7M      0.074200
     19 H152        2.7720    0.5760    0.6320 hc        1 B7M      0.074200
     20 H141        2.3490   -2.3290    1.6410 hc        1 B7M      0.043700
     21 H142        3.6600   -1.7840    0.5250 hc        1 B7M      0.043700
     22 H131        4.4920   -0.1860    2.2860 hc        1 B7M      0.042700
     23 H132        3.1810   -0.7320    3.4010 hc        1 B7M      0.042700
     24 H121        4.0670   -3.0880    3.2870 hc        1 B7M      0.041200
     25 H122        5.3770   -2.5420    2.1720 hc        1 B7M      0.041200
     26 H111        4.9000   -1.4900    5.0480 hc        1 B7M      0.040200
     27 H112        6.2110   -0.9460    3.9330 hc        1 B7M      0.040200
     28 H101        7.0910   -3.3050    3.8180 hc        1 B7M      0.041700
     29 H102        5.7850   -3.8460    4.9400 hc        1 B7M      0.041700
     30 H91C        6.6290   -2.2150    6.6820 hc        1 B7M      0.041200
     31 H92C        7.9540   -1.7250    5.5560 hc        1 B7M      0.041200
     32 H81C        8.9150   -3.3230    7.0540 hc        1 B7M      0.050700
     33 H82C        8.7070   -4.1680    5.4700 hc        1 B7M      0.050700
     34 H7          6.2850   -4.5860    7.1310 ha        1 B7M      0.122000
     35 H6          7.2110   -6.6620    7.9850 ha        1 B7M      0.121000
     36 H5          9.9390   -5.5800    6.9130 ha        1 B7M      0.120000
     37 H4         10.8610   -7.6590    7.7620 ha        1 B7M      0.121000
     38 H31C        8.4950   -8.0920    9.4610 hc        1 B7M      0.050700
     39 H32C        8.1840   -8.8810    7.8670 hc        1 B7M      0.050700
     40 H21C       10.3660  -10.1250    8.0570 hc        1 B7M      0.040700
     41 H22C       10.6770   -9.3360    9.6510 hc        1 B7M      0.040700
     42 H11C        8.5650  -10.3540   10.5700 hc        1 B7M      0.033367
     43 H12C        8.2530  -11.1450    8.9720 hc        1 B7M      0.033367
     44 H13C        9.7060  -11.6150    9.9460 hc        1 B7M      0.033367
     45 HXT         1.7290   -1.4520   -0.9400 h4        1 B7M     -0.006800
@<TRIPOS>BOND
     1    1    2 2   
     2    2    3 1   
     3    2   45 1   
     4    3    4 1   
     5    3   18 1   
     6    3   19 1   
     7    4    5 1   
     8    4   20 1   
     9    4   21 1   
    10    5    6 1   
    11    5   22 1   
    12    5   23 1   
    13    6    7 1   
    14    6   24 1   
    15    6   25 1   
    16    7    8 1   
    17    7   26 1   
    18    7   27 1   
    19    8    9 1   
    20    8   28 1   
    21    8   29 1   
    22    9   10 1   
    23    9   30 1   
    24    9   31 1   
    25   10   11 1   
    26   10   32 1   
    27   10   33 1   
    28   11   12 2   
    29   11   34 1   
    30   12   13 1   
    31   12   35 1   
    32   13   14 2   
    33   13   36 1   
    34   14   15 1   
    35   14   37 1   
    36   15   16 1   
    37   15   38 1   
    38   15   39 1   
    39   16   17 1   
    40   16   40 1   
    41   16   41 1   
    42   17   42 1   
    43   17   43 1   
    44   17   44 1   
@<TRIPOS>SUBSTRUCTURE
     1 B7M         1 TEMP              0 ****  ****    0 ROOT
