@<TRIPOS>MOLECULE
B7M
   45    44     1     0     0
SMALL
bcc


@<TRIPOS>ATOM
      1 O          -9.3700   -0.7700    0.5930 o         1 B7M     -0.528100
      2 C16        -8.3770   -0.4550   -0.0630 c         1 B7M      0.564900
      3 C15        -7.1340    0.1050    0.5570 c3        1 B7M     -0.204400
      4 C14        -5.9070   -0.1980   -0.2740 c3        1 B7M     -0.076400
      5 C13        -4.6650    0.3980    0.3530 c3        1 B7M     -0.078400
      6 C12        -3.4350    0.0940   -0.4740 c3        1 B7M     -0.079400
      7 C11        -2.1920    0.6900    0.1520 c3        1 B7M     -0.079400
      8 C10        -0.9610    0.3870   -0.6750 c3        1 B7M     -0.079400
      9 C9          0.2810    0.9820   -0.0480 c3        1 B7M     -0.076400
     10 C8          1.5120    0.6780   -0.8790 c3        1 B7M     -0.050200
     11 C7          2.7320    1.2710   -0.2830 c2        1 B7M     -0.157200
     12 C6          3.9000    0.6200   -0.1900 ce        1 B7M     -0.140000
     13 C5          5.0930    1.2150    0.3740 ce        1 B7M     -0.145000
     14 C4          6.2780    0.5980    0.4810 c2        1 B7M     -0.153200
     15 C3          6.5520   -0.7890    0.0380 c3        1 B7M     -0.053200
     16 C2          7.9890   -1.1980    0.2930 c3        1 B7M     -0.079400
     17 C1          8.2480   -2.6110   -0.1640 c3        1 B7M     -0.093100
     18 H151       -7.2680    1.2170    0.6520 hc        1 B7M      0.074200
     19 H152       -7.0100   -0.3020    1.5950 hc        1 B7M      0.074200
     20 H141       -5.7830   -1.3090   -0.3710 hc        1 B7M      0.043700
     21 H142       -6.0390    0.2120   -1.3100 hc        1 B7M      0.043700
     22 H131       -4.7890    1.5080    0.4510 hc        1 B7M      0.042700
     23 H132       -4.5330   -0.0130    1.3890 hc        1 B7M      0.042700
     24 H121       -3.3110   -1.0170   -0.5720 hc        1 B7M      0.040700
     25 H122       -3.5670    0.5040   -1.5100 hc        1 B7M      0.040700
     26 H111       -2.3160    1.8010    0.2500 hc        1 B7M      0.041200
     27 H112       -2.0590    0.2800    1.1880 hc        1 B7M      0.041200
     28 H101       -0.8380   -0.7240   -0.7730 hc        1 B7M      0.040200
     29 H102       -1.0940    0.7970   -1.7110 hc        1 B7M      0.040200
     30 H91C        0.1570    2.0930    0.0520 hc        1 B7M      0.042700
     31 H92C        0.4150    0.5700    0.9870 hc        1 B7M      0.042700
     32 H81C        1.6220   -0.4330   -0.9910 hc        1 B7M      0.047700
     33 H82C        1.3750    1.1010   -1.9130 hc        1 B7M      0.047700
     34 H7          2.6260    2.3070    0.0770 ha        1 B7M      0.121000
     35 H6          3.9960   -0.4200   -0.5490 ha        1 B7M      0.122000
     36 H5          4.9860    2.2540    0.7340 ha        1 B7M      0.120000
     37 H4          7.1330    1.1340    0.9260 ha        1 B7M      0.122000
     38 H31C        5.8640   -1.4990    0.5740 hc        1 B7M      0.050700
     39 H32C        6.3280   -0.8860   -1.0600 hc        1 B7M      0.050700
     40 H21C        8.6790   -0.4950   -0.2450 hc        1 B7M      0.040700
     41 H22C        8.2150   -1.1090    1.3880 hc        1 B7M      0.040700
     42 H11C        7.5860   -3.3280    0.3790 hc        1 B7M      0.033033
     43 H12C        8.0510   -2.7130   -1.2590 hc        1 B7M      0.033033
     44 H13C        9.3100   -2.8930    0.0320 hc        1 B7M      0.033033
     45 HXT        -8.3560   -0.5620   -1.1720 h4        1 B7M     -0.006800
@<TRIPOS>BOND
     1    1    2 2   
     2    2    3 1   
     3    2   45 1   
     4    3    4 1   
     5    3   18 1   
     6    3   19 1   
     7    4    5 1   
     8    4   20 1   
     9    4   21 1   
    10    5    6 1   
    11    5   22 1   
    12    5   23 1   
    13    6    7 1   
    14    6   24 1   
    15    6   25 1   
    16    7    8 1   
    17    7   26 1   
    18    7   27 1   
    19    8    9 1   
    20    8   28 1   
    21    8   29 1   
    22    9   10 1   
    23    9   30 1   
    24    9   31 1   
    25   10   11 1   
    26   10   32 1   
    27   10   33 1   
    28   11   12 2   
    29   11   34 1   
    30   12   13 1   
    31   12   35 1   
    32   13   14 2   
    33   13   36 1   
    34   14   15 1   
    35   14   37 1   
    36   15   16 1   
    37   15   38 1   
    38   15   39 1   
    39   16   17 1   
    40   16   40 1   
    41   16   41 1   
    42   17   42 1   
    43   17   43 1   
    44   17   44 1   
@<TRIPOS>SUBSTRUCTURE
     1 B7M         1 TEMP              0 ****  ****    0 ROOT
