@<TRIPOS>MOLECULE
B80
   59    62     1     0     0
SMALL
bcc


@<TRIPOS>ATOM
      1 O31        -0.0840   -0.1390    0.3720 o         1 B80     -0.562800
      2 S35         1.2400   -0.3090    0.0280 s6        1 B80      1.411900
      3 O30         2.1970   -0.5880    0.9840 o         1 B80     -0.562800
      4 C20         1.4850   -1.1130   -1.3760 c3        1 B80     -0.466300
      5 N26         1.7540    1.4550   -0.4320 n4        1 B80     -0.559300
      6 C10         1.2180    1.8830   -1.7110 ca        1 B80     -0.147400
      7 C4         -0.1490    2.2660   -1.8070 ca        1 B80     -0.059000
      8 C3         -0.6690    2.6630   -3.0130 ca        1 B80     -0.112000
      9 C7          2.0370    1.9690   -2.8370 ca        1 B80      0.034000
     10 C12         1.5180    2.3540   -4.0750 ca        1 B80     -0.441500
     11 C9          0.1480    2.7080   -4.1900 ca        1 B80      0.341400
     12 N23        -0.4510    3.0830   -5.3770 ne        1 B80     -0.666100
     13 S34         2.5980    2.3760   -5.3840 sy        1 B80      1.521200
     14 O28         3.4850    3.4370   -5.2270 o         1 B80     -0.625800
     15 O29         3.1790    1.1100   -5.4860 o         1 B80     -0.625800
     16 N24         1.5620    2.6610   -6.6330 nh        1 B80     -0.829100
     17 C15         0.2310    3.0550   -6.5240 cf        1 B80      0.857500
     18 C13        -0.4740    3.4500   -7.7660 cf        1 B80     -0.363800
     19 C14        -1.2440    4.5730   -7.8490 c2        1 B80      0.238900
     20 O32        -1.2940    5.4390   -6.8020 oh        1 B80     -0.459100
     21 C17        -2.0300    4.8900   -9.0730 c3        1 B80     -0.116200
     22 C18        -1.4580    4.2240  -10.3360 c3        1 B80      0.117700
     23 C22        -2.4900    4.3770  -11.4680 c3        1 B80     -0.092400
     24 C19        -2.8620    5.8200  -11.6960 c3        1 B80     -0.101100
     25 C16        -0.3630    2.5310   -8.9270 c         1 B80      0.723700
     26 O27         0.2950    1.4690   -8.8360 o         1 B80     -0.660500
     27 N25        -1.0500    2.8450  -10.0960 n         1 B80     -0.450800
     28 C21        -0.9590    1.9300  -11.2190 c3        1 B80      0.134300
     29 C8          0.1230    2.2190  -12.2190 ca        1 B80     -0.143300
     30 C1          1.4660    2.1530  -11.8330 ca        1 B80     -0.094000
     31 C5          2.4820    2.3780  -12.7540 ca        1 B80     -0.166000
     32 C2         -0.2000    2.4930  -13.5520 ca        1 B80     -0.094000
     33 C6          0.8010    2.7170  -14.4920 ca        1 B80     -0.166000
     34 C11         2.1500    2.6660  -14.0920 ca        1 B80      0.141900
     35 F33         3.1300    2.8890  -14.9970 f         1 B80     -0.130900
     36 H20         2.5110   -1.5720   -1.4760 h1        1 B80      0.181700
     37 H20A        1.3390   -0.5390   -2.3360 h1        1 B80      0.181700
     38 H20B        0.7780   -1.9890   -1.4990 h1        1 B80      0.181700
     39 HN26        2.7710    1.5500   -0.4400 hn        1 B80      0.459800
     40 H4         -0.8010    2.2330   -0.9140 ha        1 B80      0.168000
     41 H3         -1.7320    2.9550   -3.0870 ha        1 B80      0.187000
     42 H7          3.1160    1.7220   -2.7780 ha        1 B80      0.157000
     43 HN24        1.8510    2.4720   -7.5770 hn        1 B80      0.496800
     44 HO32       -1.9110    6.1610   -7.0150 ho        1 B80      0.446000
     45 H17        -2.0460    6.0010   -9.2450 hc        1 B80      0.093700
     46 H17A       -3.0900    4.5510   -8.9050 hc        1 B80      0.093700
     47 H18        -0.5360    4.8110  -10.6420 h1        1 B80      0.056700
     48 H22        -2.0460    3.9700  -12.4180 hc        1 B80      0.063200
     49 H22A       -3.4080    3.7780  -11.2330 hc        1 B80      0.063200
     50 H19        -3.5150    6.2060  -10.8760 hc        1 B80      0.044033
     51 H19A       -3.4260    5.9130  -12.6560 hc        1 B80      0.044033
     52 H19B       -1.9520    6.4650  -11.7610 hc        1 B80      0.044033
     53 H21        -1.9640    1.9190  -11.7320 h1        1 B80      0.080200
     54 H21A       -0.7790    0.8930  -10.8010 h1        1 B80      0.080200
     55 H1          1.7160    1.9020  -10.7890 ha        1 B80      0.142000
     56 H5          3.5390    2.3260  -12.4560 ha        1 B80      0.156000
     57 H2         -1.2530    2.5200  -13.8740 ha        1 B80      0.142000
     58 H6          0.5520    2.9290  -15.5420 ha        1 B80      0.156000
     59 H262        1.4060    2.0980    0.2850 hn        1 B80      0.459800
@<TRIPOS>BOND
     1    1    2 2   
     2    2    3 2   
     3    2    4 1   
     4    2    5 1   
     5    4   36 1   
     6    4   37 1   
     7    4   38 1   
     8    5    6 1   
     9    5   39 1   
    10    5   59 1   
    11    6    7 ar  
    12    6    9 ar  
    13    7    8 ar  
    14    7   40 1   
    15    8   11 ar  
    16    8   41 1   
    17    9   10 ar  
    18    9   42 1   
    19   10   11 ar  
    20   10   13 1   
    21   11   12 1   
    22   12   17 2   
    23   13   14 2   
    24   13   15 2   
    25   13   16 1   
    26   16   17 1   
    27   16   43 1   
    28   17   18 1   
    29   18   19 2   
    30   18   25 1   
    31   19   20 1   
    32   19   21 1   
    33   20   44 1   
    34   21   22 1   
    35   21   45 1   
    36   21   46 1   
    37   22   23 1   
    38   22   27 1   
    39   22   47 1   
    40   23   24 1   
    41   23   48 1   
    42   23   49 1   
    43   24   50 1   
    44   24   51 1   
    45   24   52 1   
    46   25   26 2   
    47   25   27 1   
    48   27   28 1   
    49   28   29 1   
    50   28   53 1   
    51   28   54 1   
    52   29   30 ar  
    53   29   32 ar  
    54   30   31 ar  
    55   30   55 1   
    56   31   34 ar  
    57   31   56 1   
    58   32   33 ar  
    59   32   57 1   
    60   33   34 ar  
    61   33   58 1   
    62   34   35 1   
@<TRIPOS>SUBSTRUCTURE
     1 B80         1 TEMP              0 ****  ****    0 ROOT
