@<TRIPOS>MOLECULE
B80
   58    53     1     0     0
SMALL
bcc


@<TRIPOS>ATOM
      1 O31        -2.9150    5.3800   -4.3500 o         1 B80     -0.926000
      2 S35        -1.6990    5.1740   -5.0860 ss        1 B80      2.825000
      3 O30        -0.7280    5.7090   -4.1760 o         1 B80     -0.926000
      4 C20        -1.7120    6.0750   -6.6200 c2        1 B80     -0.952000
      5 N26        -1.4340    3.5640   -5.3690 n2        1 B80     -0.832000
      6 C10        -1.5590    2.6170   -4.3000 c2        1 B80      0.042000
      7 C4         -0.4190    1.8230   -4.3810 c1        1 B80     -0.099000
      8 C3         -0.2220    0.7940   -3.4680 c1        1 B80     -0.111000
      9 C7         -2.5010    2.3800   -3.3040 c2        1 B80     -0.059000
     10 C12        -2.3020    1.3390   -2.3800 c1        1 B80     -0.839000
     11 C9         -1.1770    0.5540   -2.4600 c1        1 B80      0.109000
     12 N23        -1.0390   -0.6600   -1.5730 n2        1 B80     -0.215000
     13 S34        -3.3910    1.1370   -1.0680 s4        1 B80      2.076800
     14 O28        -4.6790    0.7930   -1.6040 o         1 B80     -0.526900
     15 O29        -3.4950    2.3820   -0.3680 o         1 B80     -0.526900
     16 N24        -2.9330    0.0320   -0.0190 n2        1 B80     -0.821000
     17 C15        -1.7070   -0.6930   -0.2290 c2        1 B80      0.253000
     18 C13        -1.1950   -1.6690    0.8620 c2        1 B80     -0.213000
     19 C14        -1.1320   -3.2210    0.5710 c1        1 B80      0.154000
     20 O32        -2.1440   -3.8350   -0.1940 o         1 B80     -0.212000
     21 C17        -0.2630   -4.0590    1.4940 c3        1 B80     -0.189000
     22 C18         0.8370   -3.2400    2.1060 c3        1 B80      0.042000
     23 C22         1.6040   -4.1640    3.1430 c3        1 B80     -0.171000
     24 C19         2.5800   -5.0540    2.4020 c3        1 B80     -0.216000
     25 C16        -0.3240   -1.1290    2.0630 c2        1 B80      0.362000
     26 O27        -0.5760   -0.0460    2.5600 o         1 B80     -0.372000
     27 N25         0.4670   -2.0660    2.7720 n         1 B80     -0.322000
     28 C21         1.1560   -1.6690    3.9850 c3        1 B80      0.012000
     29 C8          2.0100   -0.4220    3.7070 c2        1 B80     -0.129000
     30 C1          1.6530    0.7980    4.2660 c2        1 B80     -0.087000
     31 C5          2.4970    1.8930    4.1420 c1        1 B80     -0.164000
     32 C2          3.2090   -0.5450    3.0260 c1        1 B80     -0.101000
     33 C6          4.0540    0.5510    2.9020 c1        1 B80     -0.170000
     34 C11         3.6970    1.7690    3.4600 c1        1 B80      0.096000
     35 F33         4.5440    2.8110    3.3980 f         1 B80     -0.104000
     36 H20        -1.0820    5.6640   -7.2450 ha        1 B80      0.159333
     37 H20A       -2.6080    6.0550   -7.0020 ha        1 B80      0.159333
     38 H20B       -1.4480    7.0070   -6.4550 ha        1 B80      0.159333
     39 HN26       -1.2040    3.2810   -6.2020 hn        1 B80      0.254000
     40 H4          0.2240    1.9640   -5.1070 ha        1 B80      0.139000
     41 H3          0.5760    0.2380   -3.5250 ha        1 B80      0.156000
     42 H7         -3.2770    2.9740   -3.2130 ha        1 B80      0.183000
     43 HN24       -3.4360   -0.1260    0.7290 hn        1 B80      0.279000
     44 HO32       -2.4480   -4.5520    0.2380 ho        1 B80      0.229000
     45 H17        -0.7670   -4.6420    2.1030 hc        1 B80      0.121000
     46 H17A        0.1810   -4.7390    0.9410 hc        1 B80      0.121000
     47 H18         1.4590   -2.9990    1.3980 h1        1 B80      0.094000
     48 H22         0.9600   -4.7180    3.6240 hc        1 B80      0.097000
     49 H22A        2.0880   -3.6090    3.7740 hc        1 B80      0.097000
     50 H19         3.3470   -5.2520    2.9820 hc        1 B80      0.079667
     51 H19A        2.8900   -4.5970    1.5950 hc        1 B80      0.079667
     52 H19B        2.1350   -5.8890    2.1540 hc        1 B80      0.079667
     53 H21         1.7320   -2.3980    4.2850 h1        1 B80      0.115500
     54 H21A        0.4960   -1.4650    4.6840 h1        1 B80      0.115500
     55 H1          0.8140    0.8860    4.7430 ha        1 B80      0.161000
     56 H5          2.2450    2.7510    4.5350 ha        1 B80      0.154000
     57 H2          3.4610   -1.4020    2.6330 ha        1 B80      0.133000
     58 H6          4.8970    0.4650    2.4230 ha        1 B80      0.149000
@<TRIPOS>BOND
     1    1    2 1   
     2    2    3 1   
     3    4   36 1   
     4    4   37 1   
     5    4   38 1   
     6    5    6 1   
     7    5   39 1   
     8    6    7 1   
     9    6    9 1   
    10    7   40 1   
    11    8   11 1   
    12    8   41 1   
    13    9   10 1   
    14    9   42 1   
    15   10   13 1   
    16   11   12 1   
    17   12   17 1   
    18   13   14 1   
    19   13   15 1   
    20   16   17 1   
    21   16   43 1   
    22   17   18 1   
    23   18   19 1   
    24   18   25 1   
    25   19   21 1   
    26   20   44 1   
    27   21   22 1   
    28   21   45 1   
    29   21   46 1   
    30   22   23 1   
    31   22   27 1   
    32   22   47 1   
    33   23   24 1   
    34   23   48 1   
    35   23   49 1   
    36   24   50 1   
    37   24   51 1   
    38   24   52 1   
    39   25   26 1   
    40   25   27 1   
    41   27   28 1   
    42   28   29 1   
    43   28   53 1   
    44   28   54 1   
    45   29   30 1   
    46   29   32 1   
    47   30   31 1   
    48   30   55 1   
    49   31   56 1   
    50   32   57 1   
    51   33   34 1   
    52   33   58 1   
    53   34   35 1   
@<TRIPOS>SUBSTRUCTURE
     1 B80         1 TEMP              0 ****  ****    0 ROOT
