@<TRIPOS>MOLECULE
B80
   58    61     1     0     0
SMALL
bcc


@<TRIPOS>ATOM
      1 O31         7.6930   -1.0830   -0.6460 o         1 B80     -0.649800
      2 S35         7.6340    0.2960   -0.3730 s6        1 B80      1.470900
      3 O30         8.7500    0.8720    0.2650 o         1 B80     -0.649800
      4 C20         7.3710    1.1100   -1.8380 c3        1 B80     -0.374300
      5 N26         6.3170    0.6710    0.5110 nh        1 B80     -0.783500
      6 C10         5.0090    0.1850    0.3450 ca        1 B80      0.119600
      7 C4          4.7630   -1.1610   -0.0350 ca        1 B80     -0.095000
      8 C3          3.4720   -1.6210   -0.2020 ca        1 B80     -0.117000
      9 C7          3.9070    1.0220    0.5730 ca        1 B80     -0.041000
     10 C12         2.5920    0.5650    0.4240 ca        1 B80     -0.413500
     11 C9          2.3590   -0.7690    0.0180 ca        1 B80      0.263400
     12 N23         1.0800   -1.2920   -0.1860 ne        1 B80     -0.723100
     13 S34         1.3620    1.6540    0.7660 sy        1 B80      1.523200
     14 O28         1.2450    1.8290    2.1490 o         1 B80     -0.641300
     15 O29         1.5290    2.8390    0.0390 o         1 B80     -0.641300
     16 N24         0.0420    0.8340    0.2030 nh        1 B80     -0.837100
     17 C15         0.0010   -0.5240   -0.1160 cf        1 B80      0.802500
     18 C13        -1.3170   -1.1590   -0.3610 cf        1 B80     -0.397800
     19 C14        -1.5720   -2.4720   -0.0710 c2        1 B80      0.248900
     20 O32        -0.7170   -3.3900    0.4330 oh        1 B80     -0.483100
     21 C17        -2.9250   -3.0730   -0.2780 c3        1 B80     -0.081200
     22 C18        -4.0270   -2.0030   -0.2350 c3        1 B80      0.115700
     23 C22        -5.3660   -2.6630   -0.6030 c3        1 B80     -0.090400
     24 C19        -5.7060   -3.7950    0.3330 c3        1 B80     -0.098100
     25 C16        -2.3810   -0.3440   -1.0010 c         1 B80      0.730700
     26 O27        -2.1380    0.7630   -1.5330 o         1 B80     -0.662500
     27 N25        -3.6770   -0.8570   -1.0620 n         1 B80     -0.466800
     28 C21        -4.7170   -0.0640   -1.6810 c3        1 B80      0.138300
     29 C8         -5.5170    0.8070   -0.7520 ca        1 B80     -0.132300
     30 C1         -4.8850    1.8330   -0.0420 ca        1 B80     -0.094500
     31 C5         -5.6140    2.6730    0.7920 ca        1 B80     -0.166500
     32 C2         -6.8990    0.6350   -0.6350 ca        1 B80     -0.094500
     33 C6         -7.6490    1.4670    0.1910 ca        1 B80     -0.166500
     34 C11        -7.0050    2.4890    0.9120 ca        1 B80      0.130900
     35 F33        -7.7260    3.3000    1.7220 f         1 B80     -0.138900
     36 H20         6.4000    0.8610   -2.3320 h1        1 B80      0.120700
     37 H20A        7.4000    2.2230   -1.7370 h1        1 B80      0.120700
     38 H20B        8.1690    0.8460   -2.5790 h1        1 B80      0.120700
     39 HN26        6.3920    1.3400    1.2460 hn        1 B80      0.461800
     40 H4          5.6080   -1.8550   -0.2070 ha        1 B80      0.180000
     41 H3          3.3060   -2.6660   -0.5110 ha        1 B80      0.158000
     42 H7          4.0640    2.0720    0.8800 ha        1 B80      0.150000
     43 HN24       -0.7990    1.3370   -0.0050 hn        1 B80      0.485800
     44 HO32        0.1890   -3.0320    0.4970 ho        1 B80      0.475000
     45 H17        -2.9280   -3.6070   -1.2660 hc        1 B80      0.094200
     46 H17A       -3.1220   -3.8330    0.5250 hc        1 B80      0.094200
     47 H18        -4.1150   -1.6430    0.8390 h1        1 B80      0.052700
     48 H22        -6.1810   -1.8910   -0.5390 hc        1 B80      0.056200
     49 H22A       -5.3290   -3.0400   -1.6580 hc        1 B80      0.056200
     50 H19        -6.7730   -4.0940    0.1870 hc        1 B80      0.041700
     51 H19A       -5.0680   -4.6900    0.1350 hc        1 B80      0.041700
     52 H19B       -5.5690   -3.4900    1.3990 hc        1 B80      0.041700
     53 H21        -4.2260    0.6110   -2.4470 h1        1 B80      0.076200
     54 H21A       -5.4060   -0.7620   -2.2380 h1        1 B80      0.076200
     55 H1         -3.7980    1.9810   -0.1600 ha        1 B80      0.144000
     56 H5         -5.1210    3.4810    1.3530 ha        1 B80      0.152000
     57 H2         -7.4090   -0.1570   -1.2050 ha        1 B80      0.144000
     58 H6         -8.7370    1.3370    0.2840 ha        1 B80      0.152000
@<TRIPOS>BOND
     1    1    2 2   
     2    2    3 2   
     3    2    4 1   
     4    2    5 1   
     5    4   36 1   
     6    4   37 1   
     7    4   38 1   
     8    5    6 1   
     9    5   39 1   
    10    6    7 ar  
    11    6    9 ar  
    12    7    8 ar  
    13    7   40 1   
    14    8   11 ar  
    15    8   41 1   
    16    9   10 ar  
    17    9   42 1   
    18   10   11 ar  
    19   10   13 1   
    20   11   12 1   
    21   12   17 2   
    22   13   14 2   
    23   13   15 2   
    24   13   16 1   
    25   16   17 1   
    26   16   43 1   
    27   17   18 1   
    28   18   19 2   
    29   18   25 1   
    30   19   20 1   
    31   19   21 1   
    32   20   44 1   
    33   21   22 1   
    34   21   45 1   
    35   21   46 1   
    36   22   23 1   
    37   22   27 1   
    38   22   47 1   
    39   23   24 1   
    40   23   48 1   
    41   23   49 1   
    42   24   50 1   
    43   24   51 1   
    44   24   52 1   
    45   25   26 2   
    46   25   27 1   
    47   27   28 1   
    48   28   29 1   
    49   28   53 1   
    50   28   54 1   
    51   29   30 ar  
    52   29   32 ar  
    53   30   31 ar  
    54   30   55 1   
    55   31   34 ar  
    56   31   56 1   
    57   32   33 ar  
    58   32   57 1   
    59   33   34 ar  
    60   33   58 1   
    61   34   35 1   
@<TRIPOS>SUBSTRUCTURE
     1 B80         1 TEMP              0 ****  ****    0 ROOT
