@<TRIPOS>MOLECULE
B80
   58    61     1     0     0
SMALL
bcc


@<TRIPOS>ATOM
      1 O31        -0.1040    0.5000    0.6790 o         1 B80     -0.650800
      2 S35         1.2440    0.1760    0.4360 s6        1 B80      1.470900
      3 O30         2.1050    0.1440    1.5510 o         1 B80     -0.650800
      4 C20         1.2880   -1.3420   -0.3220 c3        1 B80     -0.373300
      5 N26         1.9080    1.1710   -0.6680 nu        1 B80     -0.784500
      6 C10         1.3360    1.6100   -1.8750 ca        1 B80      0.118600
      7 C4         -0.0460    1.9140   -1.9700 ca        1 B80     -0.101000
      8 C3         -0.5940    2.3360   -3.1650 ca        1 B80     -0.108000
      9 C7          2.1330    1.7760   -3.0170 ca        1 B80     -0.044000
     10 C12         1.5950    2.2180   -4.2310 ca        1 B80     -0.405500
     11 C9          0.2110    2.4920   -4.3220 ca        1 B80      0.251400
     12 N23        -0.4140    2.9130   -5.5050 ne        1 B80     -0.634100
     13 S34         2.6650    2.4070   -5.5150 sy        1 B80      1.522200
     14 O28         3.4460    3.5540   -5.3260 o         1 B80     -0.645800
     15 O29         3.4030    1.2340   -5.7240 o         1 B80     -0.645800
     16 N24         1.6220    2.6390   -6.7680 nu        1 B80     -0.844100
     17 C15         0.2680    2.9720   -6.6320 cf        1 B80      0.779500
     18 C13        -0.4430    3.4180   -7.8600 cf        1 B80     -0.319800
     19 C14        -1.1810    4.5590   -7.8980 c2        1 B80      0.198900
     20 O32        -1.1940    5.3960   -6.8210 oh        1 B80     -0.456100
     21 C17        -1.9810    4.9360   -9.0960 c3        1 B80     -0.106200
     22 C18        -1.4540    4.2890  -10.3880 c3        1 B80      0.119700
     23 C22        -2.5040    4.4990  -11.4940 c3        1 B80     -0.092400
     24 C19        -2.8470    5.9560  -11.6730 c3        1 B80     -0.098100
     25 C16        -0.3610    2.5370   -9.0470 c         1 B80      0.721700
     26 O27         0.2930    1.4720   -9.0230 o         1 B80     -0.646500
     27 N25        -1.0770    2.8950  -10.1950 n         1 B80     -0.462800
     28 C21        -1.0160    2.0190  -11.3470 c3        1 B80      0.133300
     29 C8          0.0560    2.3200  -12.3560 ca        1 B80     -0.136300
     30 C1          1.4050    2.2280  -11.9910 ca        1 B80     -0.095000
     31 C5          2.4090    2.4650  -12.9220 ca        1 B80     -0.167500
     32 C2         -0.2810    2.6340  -13.6750 ca        1 B80     -0.095000
     33 C6          0.7090    2.8710  -14.6240 ca        1 B80     -0.167500
     34 C11         2.0620    2.7920  -14.2460 ca        1 B80      0.131900
     35 F33         3.0320    3.0260  -15.1610 f         1 B80     -0.137900
     36 H20         2.3250   -1.7340   -0.4640 h1        1 B80      0.120033
     37 H20A        0.7980   -1.3670   -1.3250 h1        1 B80      0.120033
     38 H20B        0.7520   -2.1040    0.3010 h1        1 B80      0.120033
     39 HN26        2.8370    1.5080   -0.5330 hn        1 B80      0.461800
     40 H4         -0.7010    1.8110   -1.0830 ha        1 B80      0.178000
     41 H3         -1.6730    2.5580   -3.2200 ha        1 B80      0.161000
     42 H7          3.2160    1.5580   -2.9740 ha        1 B80      0.148000
     43 HN24        1.9020    2.4520   -7.7080 hn        1 B80      0.477800
     44 HO32       -1.8350    6.1060   -6.9870 ho        1 B80      0.431000
     45 H17        -3.0480    4.6250   -8.9180 hc        1 B80      0.082200
     46 H17A       -1.9630    6.0510   -9.2350 hc        1 B80      0.082200
     47 H18        -0.5240    4.8630  -10.6980 h1        1 B80      0.049700
     48 H22        -3.4310    3.9160  -11.2560 hc        1 B80      0.058200
     49 H22A       -2.0910    4.1090  -12.4640 hc        1 B80      0.058200
     50 H19        -3.4280    6.0920  -12.6170 hc        1 B80      0.040033
     51 H19A       -3.4730    6.3320  -10.8280 hc        1 B80      0.040033
     52 H19B       -1.9230    6.5810  -11.7370 hc        1 B80      0.040033
     53 H21        -2.0270    2.0380  -11.8470 h1        1 B80      0.076700
     54 H21A       -0.8440    0.9670  -10.9650 h1        1 B80      0.076700
     55 H1          1.6660    1.9480  -10.9560 ha        1 B80      0.146000
     56 H5          3.4700    2.3930  -12.6380 ha        1 B80      0.152000
     57 H2         -1.3390    2.6860  -13.9790 ha        1 B80      0.146000
     58 H6          0.4470    3.1160  -15.6630 ha        1 B80      0.152000
@<TRIPOS>BOND
     1    1    2 2   
     2    2    3 2   
     3    2    4 1   
     4    2    5 1   
     5    4   36 1   
     6    4   37 1   
     7    4   38 1   
     8    5    6 1   
     9    5   39 1   
    10    6    7 ar  
    11    6    9 ar  
    12    7    8 ar  
    13    7   40 1   
    14    8   11 ar  
    15    8   41 1   
    16    9   10 ar  
    17    9   42 1   
    18   10   11 ar  
    19   10   13 1   
    20   11   12 1   
    21   12   17 2   
    22   13   14 2   
    23   13   15 2   
    24   13   16 1   
    25   16   17 1   
    26   16   43 1   
    27   17   18 1   
    28   18   19 2   
    29   18   25 1   
    30   19   20 1   
    31   19   21 1   
    32   20   44 1   
    33   21   22 1   
    34   21   45 1   
    35   21   46 1   
    36   22   23 1   
    37   22   27 1   
    38   22   47 1   
    39   23   24 1   
    40   23   48 1   
    41   23   49 1   
    42   24   50 1   
    43   24   51 1   
    44   24   52 1   
    45   25   26 2   
    46   25   27 1   
    47   27   28 1   
    48   28   29 1   
    49   28   53 1   
    50   28   54 1   
    51   29   30 ar  
    52   29   32 ar  
    53   30   31 ar  
    54   30   55 1   
    55   31   34 ar  
    56   31   56 1   
    57   32   33 ar  
    58   32   57 1   
    59   33   34 ar  
    60   33   58 1   
    61   34   35 1   
@<TRIPOS>SUBSTRUCTURE
     1 B80         1 TEMP              0 ****  ****    0 ROOT
