@<TRIPOS>MOLECULE
B80
   58    61     1     0     0
SMALL
bcc


@<TRIPOS>ATOM
      1 O31        -0.1000    0.4620    0.6690 o         1 B80     -0.650800
      2 S35         1.2550    0.1680    0.4320 s6        1 B80      1.470900
      3 O30         2.1110    0.1500    1.5510 o         1 B80     -0.650800
      4 C20         1.3370   -1.3460   -0.3310 c3        1 B80     -0.373300
      5 N26         1.9040    1.1820   -0.6650 nh        1 B80     -0.784500
      6 C10         1.3290    1.6120   -1.8730 ca        1 B80      0.118600
      7 C4         -0.0590    1.8870   -1.9740 ca        1 B80     -0.101000
      8 C3         -0.6100    2.3010   -3.1710 ca        1 B80     -0.108000
      9 C7          2.1280    1.8000   -3.0100 ca        1 B80     -0.044000
     10 C12         1.5870    2.2350   -4.2260 ca        1 B80     -0.405500
     11 C9          0.1970    2.4800   -4.3220 ca        1 B80      0.251400
     12 N23        -0.4300    2.8920   -5.5070 ne        1 B80     -0.634100
     13 S34         2.6590    2.4530   -5.5030 sy        1 B80      1.522200
     14 O28         3.4130    3.6150   -5.3050 o         1 B80     -0.645800
     15 O29         3.4230    1.2960   -5.7130 o         1 B80     -0.645800
     16 N24         1.6170    2.6670   -6.7600 nh        1 B80     -0.844100
     17 C15         0.2560    2.9700   -6.6300 cf        1 B80      0.779500
     18 C13        -0.4580    3.4060   -7.8600 cf        1 B80     -0.319800
     19 C14        -1.2200    4.5310   -7.8980 c2        1 B80      0.198900
     20 O32        -1.2570    5.3630   -6.8170 oh        1 B80     -0.456100
     21 C17        -2.0230    4.8960   -9.0980 c3        1 B80     -0.106200
     22 C18        -1.4740    4.2660  -10.3900 c3        1 B80      0.119700
     23 C22        -2.5220    4.4580  -11.5010 c3        1 B80     -0.092400
     24 C19        -2.8960    5.9080  -11.6750 c3        1 B80     -0.098100
     25 C16        -0.3510    2.5320   -9.0500 c         1 B80      0.721700
     26 O27         0.3260    1.4810   -9.0270 o         1 B80     -0.646500
     27 N25        -1.0680    2.8800  -10.2010 n         1 B80     -0.462800
     28 C21        -0.9810    2.0100  -11.3560 c3        1 B80      0.133300
     29 C8          0.0900    2.3390  -12.3570 ca        1 B80     -0.136300
     30 C1          1.4380    2.2730  -11.9850 ca        1 B80     -0.095000
     31 C5          2.4430    2.5360  -12.9080 ca        1 B80     -0.167500
     32 C2         -0.2460    2.6530  -13.6770 ca        1 B80     -0.095000
     33 C6          0.7440    2.9150  -14.6190 ca        1 B80     -0.167500
     34 C11         2.0960    2.8620  -14.2330 ca        1 B80      0.131900
     35 F33         3.0670    3.1220  -15.1410 f         1 B80     -0.137900
     36 H20         0.8140   -2.1210    0.2850 h1        1 B80      0.120033
     37 H20A        2.3830   -1.7150   -0.4700 h1        1 B80      0.120033
     38 H20B        0.8530   -1.3770   -1.3380 h1        1 B80      0.120033
     39 HN26        2.8240    1.5380   -0.5230 hn        1 B80      0.461800
     40 H4         -0.7160    1.7660   -1.0910 ha        1 B80      0.178000
     41 H3         -1.6930    2.5010   -3.2300 ha        1 B80      0.161000
     42 H7          3.2150    1.6060   -2.9620 ha        1 B80      0.148000
     43 HN24        1.9060    2.4900   -7.7000 hn        1 B80      0.477800
     44 HO32       -1.9130    6.0600   -6.9830 ho        1 B80      0.431000
     45 H17        -3.0830    4.5610   -8.9270 hc        1 B80      0.082200
     46 H17A       -2.0280    6.0120   -9.2320 hc        1 B80      0.082200
     47 H18        -0.5550    4.8620  -10.6930 h1        1 B80      0.049700
     48 H22        -2.0960    4.0820  -12.4700 hc        1 B80      0.058200
     49 H22A       -3.4380    3.8530  -11.2700 hc        1 B80      0.058200
     50 H19        -3.5350    6.2660  -10.8320 hc        1 B80      0.040033
     51 H19A       -1.9860    6.5530  -11.7320 hc        1 B80      0.040033
     52 H19B       -3.4750    6.0350  -12.6220 hc        1 B80      0.040033
     53 H21        -0.7890    0.9600  -10.9780 h1        1 B80      0.076700
     54 H21A       -1.9890    2.0100  -11.8620 h1        1 B80      0.076700
     55 H1          1.6990    1.9940  -10.9490 ha        1 B80      0.146000
     56 H5          3.5030    2.4850  -12.6190 ha        1 B80      0.152000
     57 H2         -1.3020    2.6840  -13.9870 ha        1 B80      0.146000
     58 H6          0.4830    3.1600  -15.6580 ha        1 B80      0.152000
@<TRIPOS>BOND
     1    1    2 2   
     2    2    3 2   
     3    2    4 1   
     4    2    5 1   
     5    4   36 1   
     6    4   37 1   
     7    4   38 1   
     8    5    6 1   
     9    5   39 1   
    10    6    7 ar  
    11    6    9 ar  
    12    7    8 ar  
    13    7   40 1   
    14    8   11 ar  
    15    8   41 1   
    16    9   10 ar  
    17    9   42 1   
    18   10   11 ar  
    19   10   13 1   
    20   11   12 1   
    21   12   17 2   
    22   13   14 2   
    23   13   15 2   
    24   13   16 1   
    25   16   17 1   
    26   16   43 1   
    27   17   18 1   
    28   18   19 2   
    29   18   25 1   
    30   19   20 1   
    31   19   21 1   
    32   20   44 1   
    33   21   22 1   
    34   21   45 1   
    35   21   46 1   
    36   22   23 1   
    37   22   27 1   
    38   22   47 1   
    39   23   24 1   
    40   23   48 1   
    41   23   49 1   
    42   24   50 1   
    43   24   51 1   
    44   24   52 1   
    45   25   26 2   
    46   25   27 1   
    47   27   28 1   
    48   28   29 1   
    49   28   53 1   
    50   28   54 1   
    51   29   30 ar  
    52   29   32 ar  
    53   30   31 ar  
    54   30   55 1   
    55   31   34 ar  
    56   31   56 1   
    57   32   33 ar  
    58   32   57 1   
    59   33   34 ar  
    60   33   58 1   
    61   34   35 1   
@<TRIPOS>SUBSTRUCTURE
     1 B80         1 TEMP              0 ****  ****    0 ROOT
