@<TRIPOS>MOLECULE
B81
   51    53     1     0     0
SMALL
bcc


@<TRIPOS>ATOM
      1 C1          2.1230    1.5850   -0.7230 c3        1 B81     -0.145000
      2 C2          3.6030    1.5850   -0.7230 c3        1 B81     -0.192000
      3 C3          4.1320    1.5850    0.5500 c3        1 B81      0.034000
      4 O3          5.5750    1.4340    0.4550 oh        1 B81     -0.329000
      5 C4          3.5480    0.4030    1.4680 c3        1 B81     -0.122000
      6 C5          1.9720    0.4350    1.3960 c2        1 B81     -0.101000
      7 C6          1.1400   -0.2500    2.4020 c1        1 B81     -0.162000
      8 C7         -0.5020   -0.2070    2.0960 c2        1 B81     -0.126000
      9 C8         -0.7590   -0.2470    0.8080 c3        1 B81     -0.086000
     10 C9         -0.1570    0.5420    0.1050 c3        1 B81     -0.088000
     11 C10         1.4920    0.4260    0.2000 c3        1 B81     -0.004000
     12 C11        -0.5820    0.3900   -1.5710 c3        1 B81     -0.153000
     13 C12        -1.7480    0.4130   -1.7310 c3        1 B81     -0.144000
     14 C13        -2.2950   -0.3850   -1.0100 c3        1 B81     -0.092000
     15 C14        -1.8100   -0.2150    0.6630 c3        1 B81     -0.099000
     16 C15        -2.5080   -1.2930    1.2650 c3        1 B81     -0.153000
     17 C16        -4.0330   -1.1840    0.5040 c3        1 B81     -0.157000
     18 C17        -3.6490   -0.2260   -0.9200 c3        1 B81      0.032000
     19 O17        -4.2550   -0.7080   -1.9910 oh        1 B81     -0.321000
     20 C18        -1.9790   -1.8060   -1.4910 c3        1 B81     -0.197000
     21 C19         1.8830   -0.9120   -0.4270 c3        1 B81     -0.202000
     22 H1          1.8090    1.4620   -1.6390 hc        1 B81      0.083000
     23 H1A         1.8090    2.4500   -0.3980 hc        1 B81      0.083000
     24 H2          3.9180    2.3790   -1.1950 hc        1 B81      0.086500
     25 H2A         3.9180    0.7910   -1.1950 hc        1 B81      0.086500
     26 H3          3.9310    2.4410    0.9740 h1        1 B81      0.075000
     27 HO3         5.9710    2.0930    0.9000 ho        1 B81      0.198000
     28 H4          4.0120   -0.4480    1.3560 hc        1 B81      0.100000
     29 H4A         3.7700    0.5950    2.3990 hc        1 B81      0.100000
     30 H6          1.4630   -0.3490    3.3180 ha        1 B81      0.122000
     31 H7         -0.9120   -0.8650    2.6890 ha        1 B81      0.089000
     32 H7A        -0.9250    0.6110    2.4200 ha        1 B81      0.089000
     33 H8         -0.4750   -1.1320    0.5090 hc        1 B81      0.100000
     34 H9         -0.4070    1.4400    0.3930 hc        1 B81      0.087000
     35 H11        -0.1780    1.1260   -2.0690 hc        1 B81      0.082000
     36 H11A       -0.2320   -0.4550   -1.9120 hc        1 B81      0.082000
     37 H12        -2.0820    1.3080   -1.5310 hc        1 B81      0.078000
     38 H12A       -1.9490    0.1960   -2.6610 hc        1 B81      0.078000
     39 H14        -2.1570    0.6270    1.0130 hc        1 B81      0.085000
     40 H15        -2.5890   -1.1620    2.2290 hc        1 B81      0.084500
     41 H15A       -2.0770   -2.1450    1.0620 hc        1 B81      0.084500
     42 H16        -4.6750   -0.7200    1.0750 hc        1 B81      0.095500
     43 H16A       -4.3620   -2.0680    0.2520 hc        1 B81      0.095500
     44 H17        -3.8800    0.7120   -0.7800 h1        1 B81      0.074000
     45 HO17       -5.0550   -0.3330   -2.0730 ho        1 B81      0.199000
     46 H18        -1.8790   -1.8060   -2.4620 hc        1 B81      0.078333
     47 H18A       -2.7090   -2.4040   -1.2400 hc        1 B81      0.078333
     48 H18B       -1.1500   -2.1140   -1.0780 hc        1 B81      0.078333
     49 H19         1.6010   -0.9290   -1.3620 hc        1 B81      0.077333
     50 H19A        1.4470   -1.6390    0.0570 hc        1 B81      0.077333
     51 H19B        2.8520   -1.0240   -0.3780 hc        1 B81      0.077333
@<TRIPOS>BOND
     1    1    2 1   
     2    1   11 1   
     3    1   22 1   
     4    1   23 1   
     5    2    3 1   
     6    2   24 1   
     7    2   25 1   
     8    3    4 1   
     9    3    5 1   
    10    3   26 1   
    11    4   27 1   
    12    5    6 1   
    13    5   28 1   
    14    5   29 1   
    15    6    7 1   
    16    6   11 1   
    17    7   30 1   
    18    8    9 1   
    19    8   31 1   
    20    8   32 1   
    21    9   10 1   
    22    9   15 1   
    23    9   33 1   
    24   10   11 1   
    25   10   12 1   
    26   10   34 1   
    27   11   21 1   
    28   12   13 1   
    29   12   35 1   
    30   12   36 1   
    31   13   14 1   
    32   13   37 1   
    33   13   38 1   
    34   14   15 1   
    35   14   18 1   
    36   14   20 1   
    37   15   16 1   
    38   15   39 1   
    39   16   17 1   
    40   16   40 1   
    41   16   41 1   
    42   17   18 1   
    43   17   42 1   
    44   17   43 1   
    45   18   19 1   
    46   18   44 1   
    47   19   45 1   
    48   20   46 1   
    49   20   47 1   
    50   20   48 1   
    51   21   49 1   
    52   21   50 1   
    53   21   51 1   
@<TRIPOS>SUBSTRUCTURE
     1 B81         1 TEMP              0 ****  ****    0 ROOT
