@<TRIPOS>MOLECULE
B81
   51    54     1     0     0
SMALL
bcc


@<TRIPOS>ATOM
      1 C1          0.0760   -0.1260   -0.0310 c3        1 B81     -0.066400
      2 C2          1.5650    0.1110    0.0750 c3        1 B81     -0.113400
      3 C3          1.9890    0.1950    1.5350 c3        1 B81      0.145100
      4 O3          3.4030    0.3040    1.6560 oh        1 B81     -0.601800
      5 C4          1.5930   -1.0750    2.2830 c3        1 B81     -0.039200
      6 C5          0.1460   -1.3940    2.1050 c2        1 B81     -0.109400
      7 C6         -0.6040   -1.7000    3.1740 c2        1 B81     -0.167200
      8 C7         -2.0350   -2.0610    3.1170 c3        1 B81     -0.043200
      9 C8         -2.4870   -2.4210    1.7090 c3        1 B81     -0.045700
     10 C9         -1.9330   -1.4010    0.7030 c3        1 B81     -0.048700
     11 C10        -0.3870   -1.4000    0.6940 c3        1 B81      0.000200
     12 C11        -2.5090   -1.5890   -0.6980 c3        1 B81     -0.075400
     13 C12        -4.0240   -1.7140   -0.7430 c3        1 B81     -0.063400
     14 C13        -4.4940   -2.7950    0.2130 c3        1 B81     -0.043000
     15 C14        -3.9980   -2.4020    1.6230 c3        1 B81     -0.067700
     16 C15        -4.8120   -3.2780    2.5670 c3        1 B81     -0.068400
     17 C16        -6.1750   -3.4170    1.8850 c3        1 B81     -0.117400
     18 C17        -6.0230   -2.8570    0.4540 c3        1 B81      0.141100
     19 O17        -6.6300   -3.6880   -0.5180 oh        1 B81     -0.591800
     20 C18        -4.0150   -4.1620   -0.2440 c3        1 B81     -0.075100
     21 C19         0.1630   -2.6240   -0.0340 c3        1 B81     -0.084100
     22 H1         -0.4670    0.7560    0.4000 hc        1 B81      0.044200
     23 H1A        -0.2030   -0.2000   -1.1150 hc        1 B81      0.044200
     24 H2          2.1280   -0.7180   -0.4270 hc        1 B81      0.047200
     25 H2A         1.8320    1.0660   -0.4500 hc        1 B81      0.047200
     26 H3          1.5090    1.0920    2.0200 h1        1 B81      0.035700
     27 HO3         3.6680    1.0640    1.1260 ho        1 B81      0.399000
     28 H4          2.2160   -1.9300    1.9030 hc        1 B81      0.060700
     29 H4A         1.8440   -0.9440    3.3690 hc        1 B81      0.060700
     30 H6         -0.1700   -1.6820    4.1880 ha        1 B81      0.122000
     31 H7         -2.6410   -1.1940    3.5020 hc        1 B81      0.048700
     32 H7A        -2.2380   -2.9310    3.7990 hc        1 B81      0.048700
     33 H8         -2.1020   -3.4470    1.4600 hc        1 B81      0.060700
     34 H9         -2.2610   -0.3830    1.0650 hc        1 B81      0.046700
     35 H11        -2.0650   -2.5040   -1.1710 hc        1 B81      0.042200
     36 H11A       -2.2110   -0.7110   -1.3290 hc        1 B81      0.042200
     37 H12        -4.3450   -1.9620   -1.7870 hc        1 B81      0.043700
     38 H12A       -4.4950   -0.7340   -0.4660 hc        1 B81      0.043700
     39 H14        -4.3250   -1.3350    1.8070 hc        1 B81      0.045700
     40 H15        -4.9040   -2.8080    3.5760 hc        1 B81      0.045200
     41 H15A       -4.3290   -4.2780    2.6980 hc        1 B81      0.045200
     42 H16        -6.4880   -4.4890    1.8430 hc        1 B81      0.047200
     43 H16A       -6.9580   -2.8470    2.4410 hc        1 B81      0.047200
     44 H17        -6.4650   -1.8250    0.3860 h1        1 B81      0.033700
     45 HO17       -7.5610   -3.7560   -0.2740 ho        1 B81      0.398000
     46 H18        -4.4450   -4.3880   -1.2510 hc        1 B81      0.040033
     47 H18A       -4.3630   -4.9480    0.4690 hc        1 B81      0.040033
     48 H18B       -2.9020   -4.2070   -0.3110 hc        1 B81      0.040033
     49 H19         0.0330   -2.5140   -1.1380 hc        1 B81      0.038367
     50 H19A        1.2540   -2.7460    0.1730 hc        1 B81      0.038367
     51 H19B       -0.3650   -3.5500    0.2990 hc        1 B81      0.038367
@<TRIPOS>BOND
     1    1    2 1   
     2    1   11 1   
     3    1   22 1   
     4    1   23 1   
     5    2    3 1   
     6    2   24 1   
     7    2   25 1   
     8    3    4 1   
     9    3    5 1   
    10    3   26 1   
    11    4   27 1   
    12    5    6 1   
    13    5   28 1   
    14    5   29 1   
    15    6    7 2   
    16    6   11 1   
    17    7    8 1   
    18    7   30 1   
    19    8    9 1   
    20    8   31 1   
    21    8   32 1   
    22    9   10 1   
    23    9   15 1   
    24    9   33 1   
    25   10   11 1   
    26   10   12 1   
    27   10   34 1   
    28   11   21 1   
    29   12   13 1   
    30   12   35 1   
    31   12   36 1   
    32   13   14 1   
    33   13   37 1   
    34   13   38 1   
    35   14   15 1   
    36   14   18 1   
    37   14   20 1   
    38   15   16 1   
    39   15   39 1   
    40   16   17 1   
    41   16   40 1   
    42   16   41 1   
    43   17   18 1   
    44   17   42 1   
    45   17   43 1   
    46   18   19 1   
    47   18   44 1   
    48   19   45 1   
    49   20   46 1   
    50   20   47 1   
    51   20   48 1   
    52   21   49 1   
    53   21   50 1   
    54   21   51 1   
@<TRIPOS>SUBSTRUCTURE
     1 B81         1 TEMP              0 ****  ****    0 ROOT
