@<TRIPOS>MOLECULE
B81
   51    54     1     0     0
SMALL
bcc


@<TRIPOS>ATOM
      1 C1          0.0840   -0.1290   -0.0150 c3        1 B81     -0.066400
      2 C2          1.5720    0.1040    0.0950 c3        1 B81     -0.113400
      3 C3          1.9930    0.1800    1.5570 c3        1 B81      0.145100
      4 O3          3.4070    0.2850    1.6820 oh        1 B81     -0.601800
      5 C4          1.5910   -1.0920    2.2980 c3        1 B81     -0.039200
      6 C5          0.1450   -1.4060    2.1150 c2        1 B81     -0.109400
      7 C6         -0.6090   -1.7140    3.1810 c2        1 B81     -0.167200
      8 C7         -2.0420   -2.0720    3.1190 c3        1 B81     -0.043200
      9 C8         -2.4900   -2.4250    1.7080 c3        1 B81     -0.045700
     10 C9         -1.9310   -1.4010    0.7080 c3        1 B81     -0.048700
     11 C10        -0.3850   -1.4050    0.7030 c3        1 B81      0.000200
     12 C11        -2.5040   -1.5820   -0.6950 c3        1 B81     -0.075400
     13 C12        -4.0190   -1.7020   -0.7450 c3        1 B81     -0.063400
     14 C13        -4.4940   -2.7870    0.2050 c3        1 B81     -0.043000
     15 C14        -4.0010   -2.4020    1.6180 c3        1 B81     -0.067700
     16 C15        -4.8190   -3.2800    2.5560 c3        1 B81     -0.068400
     17 C16        -6.1810   -3.4120    1.8700 c3        1 B81     -0.117400
     18 C17        -6.0240   -2.8460    0.4420 c3        1 B81      0.141100
     19 O17        -6.6310   -3.6710   -0.5360 oh        1 B81     -0.591800
     20 C18        -4.0180   -4.1540   -0.2570 c3        1 B81     -0.075100
     21 C19         0.1640   -2.6270   -0.0290 c3        1 B81     -0.084100
     22 H1         -0.1930   -0.1970   -1.1000 hc        1 B81      0.044200
     23 H1A        -0.4590    0.7530    0.4180 hc        1 B81      0.044200
     24 H2          1.8430    1.0600   -0.4240 hc        1 B81      0.047200
     25 H2A         2.1350   -0.7250   -0.4090 hc        1 B81      0.047200
     26 H3          1.5140    1.0770    2.0440 h1        1 B81      0.035700
     27 HO3         3.6750    1.0470    1.1550 ho        1 B81      0.399000
     28 H4          1.8400   -0.9660    3.3850 hc        1 B81      0.060700
     29 H4A         2.2130   -1.9460    1.9160 hc        1 B81      0.060700
     30 H6         -0.1770   -1.7030    4.1960 ha        1 B81      0.122000
     31 H7         -2.6460   -1.2060    3.5060 hc        1 B81      0.048700
     32 H7A        -2.2480   -2.9440    3.7970 hc        1 B81      0.048700
     33 H8         -2.1070   -3.4500    1.4550 hc        1 B81      0.060700
     34 H9         -2.2570   -0.3840    1.0740 hc        1 B81      0.046700
     35 H11        -2.0610   -2.4960   -1.1710 hc        1 B81      0.042200
     36 H11A       -2.2020   -0.7020   -1.3220 hc        1 B81      0.042200
     37 H12        -4.4880   -0.7230   -0.4650 hc        1 B81      0.043700
     38 H12A       -4.3380   -1.9450   -1.7910 hc        1 B81      0.043700
     39 H14        -4.3260   -1.3350    1.8060 hc        1 B81      0.045700
     40 H15        -4.9130   -2.8130    3.5670 hc        1 B81      0.045200
     41 H15A       -4.3390   -4.2810    2.6840 hc        1 B81      0.045200
     42 H16        -6.4970   -4.4830    1.8230 hc        1 B81      0.047200
     43 H16A       -6.9640   -2.8420    2.4260 hc        1 B81      0.047200
     44 H17        -6.4630   -1.8130    0.3770 h1        1 B81      0.033700
     45 HO17       -7.5630   -3.7380   -0.2940 ho        1 B81      0.398000
     46 H18        -2.9050   -4.2010   -0.3210 hc        1 B81      0.040033
     47 H18A       -4.3690   -4.9410    0.4520 hc        1 B81      0.040033
     48 H18B       -4.4460   -4.3730   -1.2660 hc        1 B81      0.040033
     49 H19         1.2530   -2.7520    0.1800 hc        1 B81      0.038367
     50 H19A       -0.3670   -3.5530    0.2980 hc        1 B81      0.038367
     51 H19B        0.0370   -2.5120   -1.1330 hc        1 B81      0.038367
@<TRIPOS>BOND
     1    1    2 1   
     2    1   11 1   
     3    1   22 1   
     4    1   23 1   
     5    2    3 1   
     6    2   24 1   
     7    2   25 1   
     8    3    4 1   
     9    3    5 1   
    10    3   26 1   
    11    4   27 1   
    12    5    6 1   
    13    5   28 1   
    14    5   29 1   
    15    6    7 2   
    16    6   11 1   
    17    7    8 1   
    18    7   30 1   
    19    8    9 1   
    20    8   31 1   
    21    8   32 1   
    22    9   10 1   
    23    9   15 1   
    24    9   33 1   
    25   10   11 1   
    26   10   12 1   
    27   10   34 1   
    28   11   21 1   
    29   12   13 1   
    30   12   35 1   
    31   12   36 1   
    32   13   14 1   
    33   13   37 1   
    34   13   38 1   
    35   14   15 1   
    36   14   18 1   
    37   14   20 1   
    38   15   16 1   
    39   15   39 1   
    40   16   17 1   
    41   16   40 1   
    42   16   41 1   
    43   17   18 1   
    44   17   42 1   
    45   17   43 1   
    46   18   19 1   
    47   18   44 1   
    48   19   45 1   
    49   20   46 1   
    50   20   47 1   
    51   20   48 1   
    52   21   49 1   
    53   21   50 1   
    54   21   51 1   
@<TRIPOS>SUBSTRUCTURE
     1 B81         1 TEMP              0 ****  ****    0 ROOT
