@<TRIPOS>MOLECULE
B81
   51    54     1     0     0
SMALL
bcc


@<TRIPOS>ATOM
      1 C1          2.4340   -1.3690   -0.7400 c3        1 B81     -0.070400
      2 C2          3.9110   -1.3700   -0.4200 c3        1 B81     -0.075400
      3 C3          4.4720    0.0420   -0.5270 c3        1 B81      0.145100
      4 O3          5.8460   -0.0350   -0.1660 oh        1 B81     -0.600800
      5 C4          3.7190    0.9890    0.4040 c3        1 B81     -0.076200
      6 C5          2.2450    0.9290    0.1900 c2        1 B81     -0.104400
      7 C6          1.5410    2.0630    0.0640 c2        1 B81     -0.168200
      8 C7          0.0760    2.1230   -0.1260 c3        1 B81     -0.042200
      9 C8         -0.6060    0.8060    0.2090 c3        1 B81     -0.045700
     10 C9          0.1800   -0.3640   -0.4020 c3        1 B81     -0.048700
     11 C10         1.6140   -0.4420    0.1720 c3        1 B81      0.000200
     12 C11        -0.5560   -1.6950   -0.2710 c3        1 B81     -0.075400
     13 C12        -2.0110   -1.6540   -0.7130 c3        1 B81     -0.063400
     14 C13        -2.7460   -0.5280   -0.0080 c3        1 B81     -0.043000
     15 C14        -2.0100    0.7840   -0.3580 c3        1 B81     -0.067700
     16 C15        -2.9900    1.8830    0.0300 c3        1 B81     -0.068400
     17 C16        -4.3700    1.2900   -0.2650 c3        1 B81     -0.117400
     18 C17        -4.1640   -0.2150   -0.5480 c3        1 B81      0.141100
     19 O17        -5.1200   -1.0240    0.1110 oh        1 B81     -0.591800
     20 C18        -2.8390   -0.7980    1.4840 c3        1 B81     -0.075100
     21 C19         1.6120   -1.0010    1.5920 c3        1 B81     -0.084100
     22 H1          2.2890   -1.0520   -1.8070 hc        1 B81      0.045200
     23 H1A         2.0450   -2.4160   -0.6410 hc        1 B81      0.045200
     24 H2          4.0900   -1.7620    0.6150 hc        1 B81      0.055200
     25 H2A         4.4570   -2.0390   -1.1330 hc        1 B81      0.055200
     26 H3          4.3910    0.4090   -1.5890 h1        1 B81      0.035700
     27 HO3         6.1890    0.8660   -0.1840 ho        1 B81      0.398000
     28 H4          3.9530    0.7120    1.4680 hc        1 B81      0.051200
     29 H4A         4.0980    2.0340    0.2450 hc        1 B81      0.051200
     30 H6          2.0460    3.0430    0.0860 ha        1 B81      0.119000
     31 H7         -0.3600    2.9350    0.5170 hc        1 B81      0.048200
     32 H7A        -0.1360    2.4020   -1.1950 hc        1 B81      0.048200
     33 H8         -0.6430    0.6940    1.3270 hc        1 B81      0.060700
     34 H9          0.2780   -0.1440   -1.5050 hc        1 B81      0.046700
     35 H11        -0.0220   -2.4620   -0.8920 hc        1 B81      0.043200
     36 H11A       -0.5200   -2.0450    0.7940 hc        1 B81      0.043200
     37 H12        -2.0680   -1.5060   -1.8230 hc        1 B81      0.044200
     38 H12A       -2.4980   -2.6350   -0.4760 hc        1 B81      0.044200
     39 H14        -1.9100    0.8210   -1.4840 hc        1 B81      0.045700
     40 H15        -2.8910    2.1400    1.1140 hc        1 B81      0.044700
     41 H15A       -2.8090    2.8140   -0.5600 hc        1 B81      0.044700
     42 H16        -5.0520    1.4220    0.6110 hc        1 B81      0.047200
     43 H16A       -4.8370    1.7880   -1.1480 hc        1 B81      0.047200
     44 H17        -4.2080   -0.4160   -1.6540 h1        1 B81      0.034700
     45 HO17       -5.9850   -0.7340   -0.2050 ho        1 B81      0.398000
     46 H18        -1.8300   -0.9070    1.9460 hc        1 B81      0.040033
     47 H18A       -3.3770    0.0390    1.9910 hc        1 B81      0.040033
     48 H18B       -3.4160   -1.7400    1.6550 hc        1 B81      0.040033
     49 H19         2.6020   -0.8300    2.0810 hc        1 B81      0.038033
     50 H19A        0.8240   -0.5090    2.2090 hc        1 B81      0.038033
     51 H19B        1.4220   -2.1020    1.5780 hc        1 B81      0.038033
@<TRIPOS>BOND
     1    1    2 1   
     2    1   11 1   
     3    1   22 1   
     4    1   23 1   
     5    2    3 1   
     6    2   24 1   
     7    2   25 1   
     8    3    4 1   
     9    3    5 1   
    10    3   26 1   
    11    4   27 1   
    12    5    6 1   
    13    5   28 1   
    14    5   29 1   
    15    6    7 2   
    16    6   11 1   
    17    7    8 1   
    18    7   30 1   
    19    8    9 1   
    20    8   31 1   
    21    8   32 1   
    22    9   10 1   
    23    9   15 1   
    24    9   33 1   
    25   10   11 1   
    26   10   12 1   
    27   10   34 1   
    28   11   21 1   
    29   12   13 1   
    30   12   35 1   
    31   12   36 1   
    32   13   14 1   
    33   13   37 1   
    34   13   38 1   
    35   14   15 1   
    36   14   18 1   
    37   14   20 1   
    38   15   16 1   
    39   15   39 1   
    40   16   17 1   
    41   16   40 1   
    42   16   41 1   
    43   17   18 1   
    44   17   42 1   
    45   17   43 1   
    46   18   19 1   
    47   18   44 1   
    48   19   45 1   
    49   20   46 1   
    50   20   47 1   
    51   20   48 1   
    52   21   49 1   
    53   21   50 1   
    54   21   51 1   
@<TRIPOS>SUBSTRUCTURE
     1 B81         1 TEMP              0 ****  ****    0 ROOT
