@<TRIPOS>MOLECULE
B82
   46    46     1     0     0
SMALL
bcc


@<TRIPOS>ATOM
      1 S1         -0.2200   -0.6360    0.6030 s4        1 B82      1.655300
      2 O26         1.0220   -0.3590    1.0880 o         1 B82     -0.445900
      3 O25        -1.3180   -0.2630    1.3240 o         1 B82     -0.445900
      4 N20        -0.2700    1.2690   -0.7050 n3        1 B82     -0.910200
      5 C23        -1.6090    1.5520   -1.2330 c3        1 B82      0.114800
      6 C24        -1.8170    2.9540   -1.7740 c3        1 B82     -0.116600
      7 C21         0.8110    1.3160   -1.6970 c3        1 B82      0.114800
      8 C22         0.5650    0.5510   -2.9830 c3        1 B82     -0.116600
      9 C2         -0.4500   -1.7020   -0.5270 ca        1 B82     -0.584500
     10 C18         0.4550   -2.6730   -1.0410 ca        1 B82      0.115100
     11 BR          2.1130   -2.9900   -0.2290 br        1 B82     -0.023100
     12 C17         0.1240   -3.4400   -2.1480 ca        1 B82     -0.144000
     13 C16        -1.1080   -3.2860   -2.8040 ca        1 B82      0.049000
     14 C4         -2.0420   -2.3820   -2.2800 ca        1 B82     -0.169600
     15 C5         -3.3350   -2.0560   -2.9890 c         1 B82      0.662700
     16 O15        -3.7260   -0.8700   -2.9380 o         1 B82     -0.613100
     17 N6         -4.0220   -3.1000   -3.5720 n         1 B82     -0.406100
     18 C7         -4.7030   -2.9080   -4.8120 ca        1 B82      0.007600
     19 C14        -5.9600   -2.2800   -4.8520 ca        1 B82     -0.118000
     20 C13        -6.6370   -2.1700   -6.0650 ca        1 B82     -0.141000
     21 C12        -6.0700   -2.6670   -7.2370 ca        1 B82     -0.137000
     22 C11        -4.8140   -3.2700   -7.2040 ca        1 B82     -0.094000
     23 C8         -4.1150   -3.3970   -6.0030 ca        1 B82     -0.134600
     24 C9         -2.7330   -4.0210   -6.0110 c         1 B82      0.905200
     25 O45        -1.9490   -3.7490   -6.9520 o         1 B82     -0.828800
     26 O10        -2.3990   -4.7810   -5.0370 o         1 B82     -0.828800
     27 C3         -1.7290   -1.6460   -1.1490 ca        1 B82      0.032000
     28 H23        -1.8440    0.8060   -2.0510 h1        1 B82      0.078450
     29 H23A       -2.3340    1.3770   -0.3840 h1        1 B82      0.078450
     30 H24        -1.6260    3.7250   -0.9900 hc        1 B82      0.059533
     31 H24A       -1.1480    3.1520   -2.6460 hc        1 B82      0.059533
     32 H24B       -2.8780    3.0490   -2.1160 hc        1 B82      0.059533
     33 H21         1.0310    2.3910   -1.9690 h1        1 B82      0.078450
     34 H22         1.5110    0.5480   -3.5790 hc        1 B82      0.059533
     35 H22A        0.2660   -0.5080   -2.7880 hc        1 B82      0.059533
     36 H17         0.8330   -4.1910   -2.5450 ha        1 B82      0.191000
     37 H16        -1.3210   -3.8800   -3.7410 ha        1 B82      0.277000
     38 HN6        -3.5490   -3.9980   -3.5580 hn        1 B82      0.351500
     39 H14        -6.4060   -1.8720   -3.9330 ha        1 B82      0.134000
     40 H13        -7.6230   -1.6850   -6.0920 ha        1 B82      0.123000
     41 H12        -6.6110   -2.5770   -8.1900 ha        1 B82      0.125000
     42 H11        -4.3390   -3.6400   -8.1270 ha        1 B82      0.156000
     43 H3         -2.5020   -0.9580   -0.7440 ha        1 B82      0.182000
     44 H18         1.7290    0.9040   -1.1830 h1        1 B82      0.078450
     45 H19        -0.2330    1.0370   -3.5970 hc        1 B82      0.059533
     46 H201       -0.0590    1.9710   -0.0050 hn        1 B82      0.392800
@<TRIPOS>BOND
     1    1    2 1   
     2    1    3 1   
     3    1    9 1   
     4    4    5 1   
     5    4    7 1   
     6    4   46 1   
     7    5    6 1   
     8    5   28 1   
     9    5   29 1   
    10    6   30 1   
    11    6   31 1   
    12    6   32 1   
    13    7    8 1   
    14    7   33 1   
    15    7   44 1   
    16    8   34 1   
    17    8   35 1   
    18    8   45 1   
    19    9   10 ar  
    20    9   27 ar  
    21   10   11 1   
    22   10   12 ar  
    23   12   13 ar  
    24   12   36 1   
    25   13   14 ar  
    26   13   37 1   
    27   14   15 1   
    28   14   27 ar  
    29   15   16 2   
    30   15   17 1   
    31   17   18 1   
    32   17   38 1   
    33   18   19 ar  
    34   18   23 ar  
    35   19   20 ar  
    36   19   39 1   
    37   20   21 ar  
    38   20   40 1   
    39   21   22 ar  
    40   21   41 1   
    41   22   23 ar  
    42   22   42 1   
    43   23   24 1   
    44   24   25 1   
    45   24   26 1   
    46   27   43 1   
@<TRIPOS>SUBSTRUCTURE
     1 B82         1 TEMP              0 ****  ****    0 ROOT
