@<TRIPOS>MOLECULE
B82
   45    40     1     0     0
SMALL
bcc


@<TRIPOS>ATOM
      1 S1          2.5190    1.7500    1.1470 ss        1 B82      2.836000
      2 O26         2.0140    2.9140    0.5550 o         1 B82     -0.933500
      3 O25         3.8940    1.8520    0.8250 o         1 B82     -0.933500
      4 N20         2.2810    1.7610    2.8040 n2        1 B82     -0.827000
      5 C23         1.1150    2.3920    3.3550 c3        1 B82     -0.014500
      6 C24         1.4070    3.8290    3.6220 c3        1 B82     -0.237500
      7 C21         3.1670    1.0290    3.6590 c3        1 B82     -0.014500
      8 C22         4.2790    1.9390    4.1360 c3        1 B82     -0.237500
      9 C2          1.7840    0.2770    0.4190 c1        1 B82     -0.812000
     10 C18         2.2940   -0.9710    0.7180 c1        1 B82     -0.042000
     11 BR          3.8750   -1.1170    1.7010 br        1 B82      0.043000
     12 C17         1.7170   -2.1120    0.1590 c1        1 B82     -0.149000
     13 C16         0.6430   -1.9940   -0.6870 c1        1 B82     -0.029000
     14 C4          0.1300   -0.7400   -0.9870 c2        1 B82     -0.138000
     15 C5         -1.1220   -0.6180   -1.8590 c2        1 B82      0.335000
     16 O15        -1.5290    0.4590   -2.1690 o         1 B82     -0.369000
     17 N6         -1.7600   -1.7980   -2.3660 n         1 B82     -0.286000
     18 C7         -2.9050   -1.6790   -3.2580 c2        1 B82      0.061000
     19 C14        -2.7640   -1.0200   -4.4840 c2        1 B82     -0.157000
     20 C13        -3.8090   -1.0600   -5.4310 c1        1 B82     -0.137000
     21 C12        -4.9920   -1.7610   -5.1430 c1        1 B82     -0.133000
     22 C11        -5.1350   -2.4240   -3.9110 c1        1 B82     -0.133000
     23 C8         -4.0980   -2.3850   -2.9690 c1        1 B82     -0.138000
     24 C9         -4.2410   -3.1330   -1.6380 c2        1 B82      0.365000
     25 O45        -3.9460   -4.3310   -1.5670 o         1 B82     -0.573000
     26 O10        -4.6980   -2.5270   -0.6110 o         1 B82     -0.573000
     27 C3          0.7050    0.3960   -0.4310 c2        1 B82      0.007000
     28 H23         0.8640    1.9420    4.2030 h1        1 B82      0.091750
     29 H23A        0.3590    2.3230    2.7060 h1        1 B82      0.091750
     30 H24         0.5900    4.3220    3.6270 hc        1 B82      0.082167
     31 H24A        1.9890    4.1740    2.9300 hc        1 B82      0.082167
     32 H24B        1.8390    3.9160    4.4760 hc        1 B82      0.082167
     33 H21         2.6670    0.6900    4.4330 h1        1 B82      0.091750
     34 H22         4.2490    2.7570    3.6490 hc        1 B82      0.082167
     35 H22A        4.1660    2.1230    5.0930 hc        1 B82      0.082167
     36 H17         2.0780   -2.9930    0.3680 ha        1 B82      0.158000
     37 H16         0.2330   -2.8060   -1.0840 DU        1 B82      0.225000
     38 HN6        -1.5210   -2.6050   -2.0530 hn        1 B82      0.267000
     39 H14        -1.9360   -0.5320   -4.6870 ha        1 B82      0.146000
     40 H13        -3.7130   -0.6100   -6.2680 ha        1 B82      0.110000
     41 H12        -5.7310   -1.7890   -5.8130 ha        1 B82      0.132500
     42 H11        -5.9720   -2.9190   -3.7080 ha        1 B82      0.132500
     43 H3          0.3260    1.2860   -0.6240 ha        1 B82      0.186000
     44 H18         3.5410    0.2960    3.1760 h1        1 B82      0.091750
     45 H19         5.1480    1.4990    3.9870 hc        1 B82      0.082167
@<TRIPOS>BOND
     1    1    2 1   
     2    1    3 1   
     3    4    5 1   
     4    4    7 1   
     5    5    6 1   
     6    5   28 1   
     7    5   29 1   
     8    6   30 1   
     9    6   31 1   
    10    6   32 1   
    11    7    8 1   
    12    7   33 1   
    13    7   44 1   
    14    8   34 1   
    15    8   35 1   
    16    8   45 1   
    17    9   10 1   
    18    9   27 1   
    19   10   11 1   
    20   12   13 1   
    21   12   36 1   
    22   13   14 1   
    23   14   15 1   
    24   14   27 1   
    25   15   16 1   
    26   15   17 1   
    27   17   18 1   
    28   17   38 1   
    29   18   19 1   
    30   18   23 1   
    31   19   20 1   
    32   19   39 1   
    33   20   40 1   
    34   21   22 1   
    35   21   41 1   
    36   22   42 1   
    37   23   24 1   
    38   24   25 1   
    39   24   26 1   
    40   27   43 1   
@<TRIPOS>SUBSTRUCTURE
     1 B82         1 TEMP              0 ****  ****    0 ROOT
