@<TRIPOS>MOLECULE
B82
   45    46     1     0     0
SMALL
bcc


@<TRIPOS>ATOM
      1 S1         -3.3420   -0.5070   -0.3040 sy        1 B82      1.490200
      2 O26        -3.9320   -0.0120   -1.4900 o         1 B82     -0.648300
      3 O25        -4.1070   -0.3690    0.8760 o         1 B82     -0.648300
      4 N20        -3.0070   -2.0910   -0.5160 n3        1 B82     -0.811500
      5 C23        -2.9380   -2.7010   -1.8190 c3        1 B82      0.219800
      6 C24        -1.5350   -2.9950   -2.3340 c3        1 B82     -0.118100
      7 C21        -2.7890   -2.9610    0.6130 c3        1 B82      0.219800
      8 C22        -4.0030   -3.7700    1.0460 c3        1 B82     -0.118100
      9 C2         -1.8280    0.2510   -0.0650 ca        1 B82     -0.348500
     10 C18        -1.7190    1.6390    0.1530 ca        1 B82      0.091100
     11 BR         -3.2240    2.7680    0.1780 br        1 B82     -0.079100
     12 C17        -0.4820    2.2460    0.3640 ca        1 B82     -0.145000
     13 C16         0.6950    1.4940    0.3600 ca        1 B82     -0.032000
     14 C4          0.6120    0.1180    0.1340 ca        1 B82     -0.159600
     15 C5          1.8280   -0.7620    0.1510 c         1 B82      0.663700
     16 O15         1.7280   -1.9420    0.5550 o         1 B82     -0.628100
     17 N6          2.9830   -0.2190   -0.3790 n         1 B82     -0.429100
     18 C7          4.2840   -0.6240   -0.0010 ca        1 B82      0.054600
     19 C14         4.6150   -1.9930    0.0920 ca        1 B82     -0.159000
     20 C13         5.9150   -2.3800    0.3980 ca        1 B82     -0.137000
     21 C12         6.9030   -1.4210    0.6100 ca        1 B82     -0.172000
     22 C11         6.5800   -0.0690    0.5300 ca        1 B82     -0.092000
     23 C8          5.2810    0.3560    0.2390 ca        1 B82     -0.158600
     24 C9          5.0300    1.8580    0.2150 c         1 B82      0.916200
     25 O45         3.8380    2.3010    0.2560 o         1 B82     -0.836800
     26 O10         6.0330    2.6190    0.1670 o         1 B82     -0.836800
     27 C3         -0.6340   -0.4810   -0.0650 ca        1 B82      0.000000
     28 H23        -3.5160   -3.6710   -1.7910 h1        1 B82      0.055450
     29 H23A       -3.4570   -2.0190   -2.5570 h1        1 B82      0.055450
     30 H24        -0.9700   -3.6540   -1.6320 hc        1 B82      0.043367
     31 H24A       -1.6190   -3.5130   -3.3200 hc        1 B82      0.043367
     32 H24B       -0.9520   -2.0540   -2.4780 hc        1 B82      0.043367
     33 H21        -1.9440   -3.6710    0.3760 h1        1 B82      0.055450
     34 H22        -4.8380   -3.0960    1.3560 hc        1 B82      0.043367
     35 H22A       -4.3640   -4.4300    0.2210 hc        1 B82      0.043367
     36 H17        -0.4140    3.3330    0.5380 ha        1 B82      0.158000
     37 H16         1.6720    1.9980    0.5380 ha        1 B82      0.222000
     38 HN6         2.9390    0.7670   -0.6100 hn        1 B82      0.357500
     39 H14         3.8360   -2.7570   -0.0590 ha        1 B82      0.144000
     40 H13         6.1580   -3.4500    0.4710 ha        1 B82      0.109000
     41 H12         7.9310   -1.7300    0.8440 ha        1 B82      0.111000
     42 H11         7.3480    0.7070    0.6950 ha        1 B82      0.157000
     43 H3         -0.6310   -1.5780   -0.2140 ha        1 B82      0.162000
     44 H18        -2.4590   -2.3210    1.4860 h1        1 B82      0.055450
     45 H19        -3.7150   -4.4090    1.9150 hc        1 B82      0.043367
@<TRIPOS>BOND
     1    1    2 2   
     2    1    3 2   
     3    1    4 1   
     4    1    9 1   
     5    4    5 1   
     6    4    7 1   
     7    5    6 1   
     8    5   28 1   
     9    5   29 1   
    10    6   30 1   
    11    6   31 1   
    12    6   32 1   
    13    7    8 1   
    14    7   33 1   
    15    7   44 1   
    16    8   34 1   
    17    8   35 1   
    18    8   45 1   
    19    9   10 ar  
    20    9   27 ar  
    21   10   11 1   
    22   10   12 ar  
    23   12   13 ar  
    24   12   36 1   
    25   13   14 ar  
    26   13   37 1   
    27   14   15 1   
    28   14   27 ar  
    29   15   16 2   
    30   15   17 1   
    31   17   18 1   
    32   17   38 1   
    33   18   19 ar  
    34   18   23 ar  
    35   19   20 ar  
    36   19   39 1   
    37   20   21 ar  
    38   20   40 1   
    39   21   22 ar  
    40   21   41 1   
    41   22   23 ar  
    42   22   42 1   
    43   23   24 1   
    44   24   25 1   
    45   24   26 1   
    46   27   43 1   
@<TRIPOS>SUBSTRUCTURE
     1 B82         1 TEMP              0 ****  ****    0 ROOT
