@<TRIPOS>MOLECULE
B82
   46    46     1     0     0
SMALL
bcc


@<TRIPOS>ATOM
      1 S1         -0.2260   -0.6470    0.6070 s4        1 B82      1.655300
      2 O26         1.0110   -0.3570    1.0950 o         1 B82     -0.445900
      3 O25        -1.3290   -0.3000    1.3320 o         1 B82     -0.445900
      4 N20        -0.3070    1.2720   -0.6780 n7        1 B82     -0.910200
      5 C23        -1.6490    1.5390   -1.2040 c3        1 B82      0.114300
      6 C24        -1.8810    2.9430   -1.7280 c3        1 B82     -0.116600
      7 C21         0.7740    1.3480   -1.6700 c3        1 B82      0.114300
      8 C22         0.5390    0.5940   -2.9650 c3        1 B82     -0.116600
      9 C2         -0.4390   -1.7040   -0.5350 ca        1 B82     -0.584500
     10 C18         0.4800   -2.6550   -1.0600 ca        1 B82      0.115100
     11 Br          2.1440   -2.9540   -0.2530 br        1 B82     -0.023100
     12 C17         0.1610   -3.4140   -2.1750 ca        1 B82     -0.144000
     13 C16        -1.0730   -3.2720   -2.8290 ca        1 B82      0.049000
     14 C4         -2.0210   -2.3890   -2.2950 ca        1 B82     -0.169600
     15 C5         -3.3200   -2.0760   -3.0000 c         1 B82      0.662700
     16 O15        -3.7300   -0.8980   -2.9360 o         1 B82     -0.613100
     17 N6         -3.9900   -3.1250   -3.5940 ns        1 B82     -0.406100
     18 C7         -4.6760   -2.9310   -4.8310 ca        1 B82      0.008600
     19 C14        -5.9430   -2.3220   -4.8640 ca        1 B82     -0.118000
     20 C13        -6.6220   -2.2090   -6.0740 ca        1 B82     -0.141000
     21 C12        -6.0490   -2.6860   -7.2520 ca        1 B82     -0.137000
     22 C11        -4.7840   -3.2690   -7.2270 ca        1 B82     -0.094000
     23 C8         -4.0810   -3.3980   -6.0280 ca        1 B82     -0.134600
     24 C9         -2.6910   -4.0000   -6.0430 c         1 B82      0.905200
     25 O45        -1.9120   -3.7070   -6.9830 o         1 B82     -0.828800
     26 O10        -2.3430   -4.7640   -5.0780 o         1 B82     -0.828800
     27 C3         -1.7200   -1.6610   -1.1570 ca        1 B82      0.032000
     28 H23        -1.8730    0.7990   -2.0300 h1        1 B82      0.078450
     29 H23A       -2.3720    1.3430   -0.3560 h1        1 B82      0.078450
     30 H24        -2.9420    3.0250   -2.0700 hc        1 B82      0.059533
     31 H24A       -1.2140    3.1620   -2.5980 hc        1 B82      0.059533
     32 H24B       -1.7020    3.7090   -0.9360 hc        1 B82      0.059533
     33 H21         0.9760    2.4280   -1.9290 h1        1 B82      0.078450
     34 H22         1.4860    0.6120   -3.5600 hc        1 B82      0.059533
     35 H22A        0.2580   -0.4720   -2.7810 hc        1 B82      0.059533
     36 H17         0.8820   -4.1490   -2.5820 ha        1 B82      0.191000
     37 H16        -1.2780   -3.8590   -3.7730 ha        1 B82      0.277000
     38 HN6        -3.5030   -4.0150   -3.5900 hn        1 B82      0.351500
     39 H14        -6.3940   -1.9300   -3.9400 ha        1 B82      0.134000
     40 H13        -7.6160   -1.7400   -6.0960 ha        1 B82      0.123000
     41 H12        -6.5930   -2.5940   -8.2040 ha        1 B82      0.125000
     42 H11        -4.3040   -3.6220   -8.1540 ha        1 B82      0.156000
     43 H3         -2.5040   -0.9910   -0.7430 ha        1 B82      0.182000
     44 H18         1.6980    0.9440   -1.1610 h1        1 B82      0.078450
     45 H19        -0.2660    1.0730   -3.5730 hc        1 B82      0.059533
     46 H201       -0.1060    1.9680    0.0300 hn        1 B82      0.392800
@<TRIPOS>BOND
     1    1    2 1   
     2    1    3 1   
     3    1    9 1   
     4    4    5 1   
     5    4    7 1   
     6    4   46 1   
     7    5    6 1   
     8    5   28 1   
     9    5   29 1   
    10    6   30 1   
    11    6   31 1   
    12    6   32 1   
    13    7    8 1   
    14    7   33 1   
    15    7   44 1   
    16    8   34 1   
    17    8   35 1   
    18    8   45 1   
    19    9   10 ar  
    20    9   27 ar  
    21   10   11 1   
    22   10   12 ar  
    23   12   13 ar  
    24   12   36 1   
    25   13   14 ar  
    26   13   37 1   
    27   14   15 1   
    28   14   27 ar  
    29   15   16 2   
    30   15   17 1   
    31   17   18 1   
    32   17   38 1   
    33   18   19 ar  
    34   18   23 ar  
    35   19   20 ar  
    36   19   39 1   
    37   20   21 ar  
    38   20   40 1   
    39   21   22 ar  
    40   21   41 1   
    41   22   23 ar  
    42   22   42 1   
    43   23   24 1   
    44   24   25 1   
    45   24   26 1   
    46   27   43 1   
@<TRIPOS>SUBSTRUCTURE
     1 B82         1 TEMP              0 ****  ****    0 ROOT
