@<TRIPOS>MOLECULE
B82
   47    48     1     0     0
SMALL
bcc


@<TRIPOS>ATOM
      1 S1         -0.8640   -0.5430    0.4690 sy        1 B82      1.451200
      2 O26         0.0640   -0.7150    1.4700 o         1 B82     -0.557800
      3 O25        -2.1970   -0.3750    0.8040 o         1 B82     -0.557800
      4 N20        -0.4470    1.2730   -0.0730 n4        1 B82     -0.609300
      5 C23         0.9790    1.5010   -0.4190 c3        1 B82      0.105300
      6 C24         1.3690    1.2360   -1.8590 c3        1 B82     -0.122600
      7 C21        -1.4040    1.7910   -1.0810 c3        1 B82      0.105300
      8 C22        -1.3830    3.2960   -1.2620 c3        1 B82     -0.122600
      9 C2         -0.6750   -1.3740   -0.9210 ca        1 B82     -0.470500
     10 C18         0.4240   -2.1640   -1.3330 ca        1 B82      0.112100
     11 BR          2.0110   -2.3010   -0.3520 br        1 B82      0.013900
     12 C17         0.3670   -2.8950   -2.5210 ca        1 B82     -0.133000
     13 C16        -0.7610   -2.8580   -3.3420 ca        1 B82      0.010000
     14 C4         -1.8560   -2.0750   -2.9630 ca        1 B82     -0.153600
     15 C5         -3.0870   -1.9160   -3.8120 c         1 B82      0.677700
     16 O15        -3.6460   -0.8040   -3.8600 o         1 B82     -0.576100
     17 N6         -3.5100   -3.0400   -4.4870 n         1 B82     -0.459100
     18 C7         -4.6200   -3.1400   -5.3510 ca        1 B82      0.076600
     19 C14        -5.6540   -2.1850   -5.3870 ca        1 B82     -0.148000
     20 C13        -6.7430   -2.3680   -6.2380 ca        1 B82     -0.076000
     21 C12        -6.8340   -3.4940   -7.0540 ca        1 B82     -0.139000
     22 C11        -5.8180   -4.4490   -7.0290 ca        1 B82     -0.051000
     23 C8         -4.7080   -4.2740   -6.2040 ca        1 B82     -0.215600
     24 C9         -3.6390   -5.2920   -6.2010 c         1 B82      0.629700
     25 O45        -3.7180   -6.4820   -5.9130 o         1 B82     -0.448000
     26 O10        -2.3580   -4.8800   -6.4870 oh        1 B82     -0.609100
     27 C3         -1.8060   -1.3570   -1.7730 ca        1 B82      0.021000
     28 H23         1.5870    0.8430    0.2730 hx        1 B82      0.099700
     29 H23A        1.2360    2.5760   -0.1810 hx        1 B82      0.099700
     30 H24         2.4830    1.3270   -1.9350 hc        1 B82      0.070867
     31 H24A        0.9120    1.9860   -2.5510 hc        1 B82      0.070867
     32 H24B        1.0760    0.2120   -2.1930 hc        1 B82      0.070867
     33 H21        -2.4400    1.4830   -0.7400 hx        1 B82      0.099700
     34 H22        -0.3900    3.6500   -1.6310 hc        1 B82      0.070867
     35 H22A       -1.6240    3.8260   -0.3080 hc        1 B82      0.070867
     36 H17         1.2260   -3.5220   -2.8270 ha        1 B82      0.191000
     37 H16        -0.7670   -3.4410   -4.2820 ha        1 B82      0.184000
     38 HN6        -3.0030   -3.8880   -4.3360 hn        1 B82      0.334500
     39 H14        -5.6140   -1.2890   -4.7460 ha        1 B82      0.172000
     40 H13        -7.5430   -1.6110   -6.2550 ha        1 B82      0.153000
     41 H12        -7.7050   -3.6350   -7.7120 ha        1 B82      0.158000
     42 H11        -5.8860   -5.3500   -7.6610 ha        1 B82      0.163000
     43 H3         -2.7000   -0.7580   -1.4920 ha        1 B82      0.190000
     44 H18        -1.1850    1.2860   -2.0650 hx        1 B82      0.099700
     45 H19        -2.1590    3.5690   -2.0210 hc        1 B82      0.070867
     46 H201       -0.6100    1.8210    0.7800 hn        1 B82      0.440800
     47 H62        -2.3870   -4.0360   -6.9590 ho        1 B82      0.434000
@<TRIPOS>BOND
     1    1    2 2   
     2    1    3 2   
     3    1    4 1   
     4    1    9 1   
     5    4    5 1   
     6    4    7 1   
     7    4   46 1   
     8    5    6 1   
     9    5   28 1   
    10    5   29 1   
    11    6   30 1   
    12    6   31 1   
    13    6   32 1   
    14    7    8 1   
    15    7   33 1   
    16    7   44 1   
    17    8   34 1   
    18    8   35 1   
    19    8   45 1   
    20    9   10 ar  
    21    9   27 ar  
    22   10   11 1   
    23   10   12 ar  
    24   12   13 ar  
    25   12   36 1   
    26   13   14 ar  
    27   13   37 1   
    28   14   15 1   
    29   14   27 ar  
    30   15   16 2   
    31   15   17 1   
    32   17   18 1   
    33   17   38 1   
    34   18   19 ar  
    35   18   23 ar  
    36   19   20 ar  
    37   19   39 1   
    38   20   21 ar  
    39   20   40 1   
    40   21   22 ar  
    41   21   41 1   
    42   22   23 ar  
    43   22   42 1   
    44   23   24 1   
    45   24   25 2   
    46   24   26 1   
    47   26   47 1   
    48   27   43 1   
@<TRIPOS>SUBSTRUCTURE
     1 B82         1 TEMP              0 ****  ****    0 ROOT
