@<TRIPOS>MOLECULE
B83
   60    63     1     0     0
SMALL
bcc


@<TRIPOS>ATOM
      1 C1         -5.4910    1.3960   -0.3430 ca        1 B83     -0.161600
      2 C2         -4.8700    0.2620    0.2430 ca        1 B83      0.061600
      3 C3         -5.6420   -0.6290    1.0200 ca        1 B83     -0.163000
      4 C4         -7.0040   -0.4080    1.1940 ca        1 B83     -0.137000
      5 C5         -7.6210    0.6900    0.6010 ca        1 B83     -0.177000
      6 C6         -6.8640    1.5780   -0.1590 ca        1 B83     -0.092000
      7 C7         -4.7550    2.4490   -1.1610 c         1 B83      0.914200
      8 O8         -3.4880    2.5340   -1.0880 o         1 B83     -0.837800
      9 O9         -5.4450    3.2200   -1.8810 o         1 B83     -0.837800
     10 N10        -3.5010    0.0120    0.0010 n         1 B83     -0.435100
     11 C11        -2.6080   -0.4110    0.9710 c         1 B83      0.667700
     12 O12        -2.9310   -1.0970    1.9640 o         1 B83     -0.625100
     13 C13        -1.1670   -0.0800    0.7250 ca        1 B83     -0.157600
     14 C14        -0.7820    1.1390    0.1570 ca        1 B83     -0.069000
     15 C15         0.5660    1.4320   -0.0250 ca        1 B83     -0.188000
     16 C16         1.5810    0.5190    0.3380 ca        1 B83      0.136600
     17 C17         1.1600   -0.7100    0.9120 ca        1 B83      0.029100
     18 C18        -0.1920   -1.0010    1.1110 ca        1 B83     -0.069000
     19 O19         2.0910   -1.6220    1.4260 os        1 B83     -0.253200
     20 C20         2.5500   -2.5910    0.5450 ca        1 B83      0.140100
     21 C21         2.1310   -2.7120   -0.7860 ca        1 B83     -0.170500
     22 C22         2.6570   -3.7370   -1.5700 ca        1 B83     -0.104500
     23 C23         3.5860   -4.6310   -1.0380 ca        1 B83     -0.174000
     24 C24         3.9960   -4.5020    0.2900 ca        1 B83     -0.104500
     25 C25         3.4860   -3.4860    1.0930 ca        1 B83     -0.170500
     26 N26         2.9560    0.7610    0.0810 nh        1 B83     -0.631000
     27 C27         3.2380    1.7990   -0.8990 c3        1 B83      0.185800
     28 C28         4.7190    1.8220   -1.3080 c3        1 B83     -0.070200
     29 C29         5.6000    1.9640   -0.0780 c3        1 B83     -0.071400
     30 C30         5.2930    0.8680    0.9280 c3        1 B83     -0.070200
     31 C31         3.7950    0.8570    1.2690 c3        1 B83      0.185800
     32 C32         6.0960    1.0560    2.1960 c3        1 B83     -0.090100
     33 C33         4.9570    2.9560   -2.2790 c3        1 B83     -0.090100
     34 H3         -5.1610   -1.4930    1.5040 ha        1 B83      0.146000
     35 H4         -7.5910   -1.1090    1.8050 ha        1 B83      0.108000
     36 H5         -8.6980    0.8580    0.7340 ha        1 B83      0.108000
     37 H6         -7.3330    2.4540   -0.6390 ha        1 B83      0.154000
     38 HN10       -3.1170    0.6200   -0.7130 hn        1 B83      0.356500
     39 H14        -1.5420    1.8920   -0.1490 ha        1 B83      0.211000
     40 H15         0.8270    2.4070   -0.4670 ha        1 B83      0.142000
     41 H18        -0.4870   -1.9530    1.5820 ha        1 B83      0.163000
     42 H21         1.4020   -2.0010   -1.2020 ha        1 B83      0.148500
     43 H22         2.3320   -3.8380   -2.6160 ha        1 B83      0.125500
     44 H23         3.9930   -5.4370   -1.6630 ha        1 B83      0.123000
     45 H24         4.7270   -5.2080    0.7090 ha        1 B83      0.125500
     46 H25         3.7970   -3.3740    2.1390 ha        1 B83      0.148500
     47 H27         2.6110    1.5960   -1.8130 h1        1 B83      0.043700
     48 H27A        2.9670    2.8250   -0.5100 h1        1 B83      0.043700
     49 H28         4.9670    0.8490   -1.8170 hc        1 B83      0.061700
     50 H29         6.6780    1.9120   -0.3770 hc        1 B83      0.036700
     51 H29A        5.4280    2.9670    0.3940 hc        1 B83      0.036700
     52 H30         5.5620   -0.1250    0.4700 hc        1 B83      0.061700
     53 H31         3.5570    1.7920    1.8570 h1        1 B83      0.043700
     54 H31A        3.5770   -0.0320    1.9270 h1        1 B83      0.043700
     55 H32         5.8540    2.0340    2.6770 hc        1 B83      0.033200
     56 H32A        5.8700    0.2390    2.9220 hc        1 B83      0.033200
     57 H32B        7.1880    1.0360    1.9640 hc        1 B83      0.033200
     58 H33         4.7220    3.9400   -1.8050 hc        1 B83      0.033200
     59 H33A        6.0250    2.9670   -2.6040 hc        1 B83      0.033200
     60 H33B        4.3100    2.8370   -3.1820 hc        1 B83      0.033200
@<TRIPOS>BOND
     1    1    2 ar  
     2    1    6 ar  
     3    1    7 1   
     4    2    3 ar  
     5    2   10 1   
     6    3    4 ar  
     7    3   34 1   
     8    4    5 ar  
     9    4   35 1   
    10    5    6 ar  
    11    5   36 1   
    12    6   37 1   
    13    7    8 1   
    14    7    9 1   
    15   10   11 1   
    16   10   38 1   
    17   11   12 2   
    18   11   13 1   
    19   13   14 ar  
    20   13   18 ar  
    21   14   15 ar  
    22   14   39 1   
    23   15   16 ar  
    24   15   40 1   
    25   16   17 ar  
    26   16   26 1   
    27   17   18 ar  
    28   17   19 1   
    29   18   41 1   
    30   19   20 1   
    31   20   21 ar  
    32   20   25 ar  
    33   21   22 ar  
    34   21   42 1   
    35   22   23 ar  
    36   22   43 1   
    37   23   24 ar  
    38   23   44 1   
    39   24   25 ar  
    40   24   45 1   
    41   25   46 1   
    42   26   27 1   
    43   26   31 1   
    44   27   28 1   
    45   27   47 1   
    46   27   48 1   
    47   28   29 1   
    48   28   33 1   
    49   28   49 1   
    50   29   30 1   
    51   29   50 1   
    52   29   51 1   
    53   30   31 1   
    54   30   32 1   
    55   30   52 1   
    56   31   53 1   
    57   31   54 1   
    58   32   55 1   
    59   32   56 1   
    60   32   57 1   
    61   33   58 1   
    62   33   59 1   
    63   33   60 1   
@<TRIPOS>SUBSTRUCTURE
     1 B83         1 TEMP              0 ****  ****    0 ROOT
