@<TRIPOS>MOLECULE
B83
   60    63     1     0     0
SMALL
bcc


@<TRIPOS>ATOM
      1 C1         -0.3770   -0.1700   -0.1490 ca        1 B83     -0.161600
      2 C2          0.9650   -0.2190    0.3120 ca        1 B83      0.061600
      3 C3          1.2430    0.0570    1.6690 ca        1 B83     -0.163000
      4 C4          0.2100    0.3570    2.5500 ca        1 B83     -0.137000
      5 C5         -1.1090    0.3830    2.1060 ca        1 B83     -0.177000
      6 C6         -1.3900    0.1200    0.7670 ca        1 B83     -0.092000
      7 C7         -0.7940   -0.4040   -1.5950 c         1 B83      0.914200
      8 O8          0.0730   -0.3370   -2.5230 o         1 B83     -0.837800
      9 O9         -2.0110   -0.6450   -1.8220 o         1 B83     -0.837800
     10 N10         1.9960   -0.5930   -0.5780 ns        1 B83     -0.435100
     11 C11         3.2330    0.0280   -0.6330 c         1 B83      0.667700
     12 O12         3.7810    0.5800    0.3460 o         1 B83     -0.625100
     13 C13         3.9590   -0.0720   -1.9410 ca        1 B83     -0.157600
     14 C14         3.2810    0.0040   -3.1630 ca        1 B83     -0.069000
     15 C15         3.9880   -0.0550   -4.3600 ca        1 B83     -0.188000
     16 C16         5.3930   -0.2060   -4.3880 ca        1 B83      0.136600
     17 C17         6.0530   -0.2800   -3.1320 ca        1 B83      0.029100
     18 C18         5.3480   -0.2050   -1.9280 ca        1 B83     -0.069000
     19 O19         7.4500   -0.2950   -3.0530 os        1 B83     -0.253200
     20 C20         8.0500   -1.5470   -3.0500 ca        1 B83      0.140100
     21 C21         7.3510   -2.7590   -3.1030 ca        1 B83     -0.170500
     22 C22         8.0670   -3.9540   -3.0800 ca        1 B83     -0.104500
     23 C23         9.4600   -3.9450   -3.0050 ca        1 B83     -0.174000
     24 C24        10.1470   -2.7320   -2.9530 ca        1 B83     -0.104500
     25 C25         9.4550   -1.5250   -2.9740 ca        1 B83     -0.170500
     26 N26         6.1220   -0.3570   -5.5960 nh        1 B83     -0.631000
     27 C27         5.3350   -0.7270   -6.7620 c3        1 B83      0.185800
     28 C28         6.2190   -1.1190   -7.9570 c3        1 B83     -0.070200
     29 C29         7.1940    0.0020   -8.2760 c3        1 B83     -0.071400
     30 C30         8.0090    0.3670   -7.0460 c3        1 B83     -0.070200
     31 C31         7.0810    0.7060   -5.8690 c3        1 B83      0.185800
     32 C32         8.9150    1.5440   -7.3280 c3        1 B83     -0.090100
     33 C33         5.3450   -1.4330   -9.1490 c3        1 B83     -0.090100
     34 H3          2.2850    0.0520    2.0260 ha        1 B83      0.146000
     35 H4          0.4440    0.5740    3.6020 ha        1 B83      0.108000
     36 H5         -1.9240    0.6120    2.8060 ha        1 B83      0.108000
     37 H6         -2.4290    0.1330    0.3950 ha        1 B83      0.154000
     38 HN10        1.6390   -0.9380   -1.4600 hn        1 B83      0.356500
     39 H14         2.1760    0.1200   -3.1960 ha        1 B83      0.211000
     40 H15         3.4170    0.0170   -5.2990 ha        1 B83      0.142000
     41 H18         5.8900   -0.2400   -0.9690 ha        1 B83      0.163000
     42 H21         6.2530   -2.7610   -3.1660 ha        1 B83      0.148500
     43 H22         7.5240   -4.9100   -3.1200 ha        1 B83      0.125500
     44 H23        10.0160   -4.8920   -2.9860 ha        1 B83      0.123000
     45 H24        11.2450   -2.7250   -2.8920 ha        1 B83      0.125500
     46 H25         9.9820   -0.5620   -2.9310 ha        1 B83      0.148500
     47 H27         4.6890   -1.6060   -6.4840 h1        1 B83      0.043700
     48 H27A        4.6560    0.1150   -7.0920 h1        1 B83      0.043700
     49 H28         6.8060   -2.0390   -7.6830 hc        1 B83      0.061700
     50 H29         6.6290    0.9020   -8.6350 hc        1 B83      0.036700
     51 H29A        7.8800   -0.3180   -9.1030 hc        1 B83      0.036700
     52 H30         8.6420   -0.5190   -6.7590 hc        1 B83      0.061700
     53 H31         7.7070    0.8630   -4.9460 h1        1 B83      0.043700
     54 H31A        6.5530    1.6770   -6.1020 h1        1 B83      0.043700
     55 H32         9.6150    1.3000   -8.1630 hc        1 B83      0.033200
     56 H32A        8.3200    2.4430   -7.6180 hc        1 B83      0.033200
     57 H32B        9.5160    1.7970   -6.4210 hc        1 B83      0.033200
     58 H33         4.7470   -0.5380   -9.4510 hc        1 B83      0.033200
     59 H33A        5.9750   -1.7440  -10.0170 hc        1 B83      0.033200
     60 H33B        4.6380   -2.2630   -8.9050 hc        1 B83      0.033200
@<TRIPOS>BOND
     1    1    2 ar  
     2    1    6 ar  
     3    1    7 1   
     4    2    3 ar  
     5    2   10 1   
     6    3    4 ar  
     7    3   34 1   
     8    4    5 ar  
     9    4   35 1   
    10    5    6 ar  
    11    5   36 1   
    12    6   37 1   
    13    7    8 1   
    14    7    9 1   
    15   10   11 1   
    16   10   38 1   
    17   11   12 2   
    18   11   13 1   
    19   13   14 ar  
    20   13   18 ar  
    21   14   15 ar  
    22   14   39 1   
    23   15   16 ar  
    24   15   40 1   
    25   16   17 ar  
    26   16   26 1   
    27   17   18 ar  
    28   17   19 1   
    29   18   41 1   
    30   19   20 1   
    31   20   21 ar  
    32   20   25 ar  
    33   21   22 ar  
    34   21   42 1   
    35   22   23 ar  
    36   22   43 1   
    37   23   24 ar  
    38   23   44 1   
    39   24   25 ar  
    40   24   45 1   
    41   25   46 1   
    42   26   27 1   
    43   26   31 1   
    44   27   28 1   
    45   27   47 1   
    46   27   48 1   
    47   28   29 1   
    48   28   33 1   
    49   28   49 1   
    50   29   30 1   
    51   29   50 1   
    52   29   51 1   
    53   30   31 1   
    54   30   32 1   
    55   30   52 1   
    56   31   53 1   
    57   31   54 1   
    58   32   55 1   
    59   32   56 1   
    60   32   57 1   
    61   33   58 1   
    62   33   59 1   
    63   33   60 1   
@<TRIPOS>SUBSTRUCTURE
     1 B83         1 TEMP              0 ****  ****    0 ROOT
