@<TRIPOS>MOLECULE
B83
   60    56     1     0     0
SMALL
bcc


@<TRIPOS>ATOM
      1 C1         -4.5480   -0.7550    4.1770 c1        1 B83     -0.141000
      2 C2         -3.4760    0.0900    3.9150 c1        1 B83      0.070000
      3 C3         -3.2070    1.1500    4.7660 c1        1 B83     -0.164000
      4 C4         -4.0080    1.3670    5.8810 c1        1 B83     -0.147000
      5 C5         -5.0780    0.5230    6.1410 c1        1 B83     -0.147000
      6 C6         -5.3470   -0.5370    5.2890 c1        1 B83     -0.092000
      7 C7         -4.8140   -1.9340    3.2770 c2        1 B83      0.363000
      8 O8         -5.6500   -1.8360    2.3410 o         1 B83     -0.573000
      9 O9         -4.2450   -3.0370    3.5010 o         1 B83     -0.573000
     10 N10        -2.7170   -0.0660    2.6950 n         1 B83     -0.290000
     11 C11        -1.4130    0.5250    2.5780 c2        1 B83      0.342000
     12 O12        -0.9480    1.1550    3.5040 o         1 B83     -0.388000
     13 C13        -0.6520    0.4410    1.2500 c2        1 B83     -0.149000
     14 C14        -0.9100    1.3630    0.2430 c2        1 B83     -0.061000
     15 C15        -0.1760    1.3290   -0.9350 c1        1 B83     -0.201000
     16 C16         0.8180    0.3740   -1.1070 c1        1 B83      0.085000
     17 C17         1.0770   -0.5470   -0.1020 c1        1 B83     -0.040000
     18 C18         0.3410   -0.5130    1.0780 c2        1 B83     -0.062000
     19 O19         2.0270   -1.5670   -0.3100 o         1 B83     -0.165000
     20 C20         2.3260   -2.1890    0.9190 c2        1 B83      0.090000
     21 C21         3.3170   -1.6640    1.7360 c2        1 B83     -0.166000
     22 C22         3.7270   -2.3580    2.8640 c1        1 B83     -0.109000
     23 C23         3.1460   -3.5770    3.1770 c1        1 B83     -0.147000
     24 C24         2.1560   -4.1020    2.3630 c1        1 B83     -0.147000
     25 C25         1.7460   -3.4090    1.2340 c1        1 B83     -0.177000
     26 N26         1.5500    0.3170   -2.3340 n3        1 B83     -0.251000
     27 C27         0.5510    0.1370   -3.5340 c3        1 B83     -0.035000
     28 C28         1.2590    0.1800   -4.9510 c3        1 B83     -0.118500
     29 C29         2.4260    0.7430   -4.8850 c3        1 B83     -0.150000
     30 C30         2.7300    1.8310   -4.1280 c3        1 B83     -0.118500
     31 C31         2.0240    1.7740   -2.7340 c3        1 B83     -0.035000
     32 C32         2.2580    3.1450   -4.8950 c3        1 B83     -0.209000
     33 C33         0.3280    1.0190   -5.9780 c3        1 B83     -0.209000
     34 H3         -2.4700    1.7570    4.5700 ha        1 B83      0.146000
     35 H4         -3.8110    2.1080    6.4890 ha        1 B83      0.116750
     36 H5         -5.6600    0.6930    6.9110 ha        1 B83      0.116750
     37 H6         -6.0860   -1.1480    5.4870 ha        1 B83      0.154000
     38 HN10       -3.0610   -0.5560    2.0020 hn        1 B83      0.270000
     39 H14        -1.6190    2.0240    0.3570 ha        1 B83      0.210000
     40 H15        -0.3760    1.9610   -1.6530 ha        1 B83      0.141000
     41 H18         0.5220   -1.1600    1.7840 ha        1 B83      0.162000
     42 H21         3.7360   -0.8100    1.5080 ha        1 B83      0.141000
     43 H22         4.4270   -1.9860    3.4410 ha        1 B83      0.122000
     44 H23         3.4350   -4.0660    3.9740 ha        1 B83      0.116750
     45 H24         1.7460   -4.9630    2.5840 ha        1 B83      0.116750
     46 H25         1.0480   -3.7800    0.6590 ha        1 B83      0.158000
     47 H27        -0.1170    0.8510   -3.4960 h1        1 B83      0.089000
     48 H27A        0.0960   -0.7230   -3.4360 h1        1 B83      0.089000
     49 H28         1.3630   -0.7330   -5.2850 hc        1 B83      0.091000
     50 H29         2.6610    0.9830   -5.8080 hc        1 B83      0.076500
     51 H29A        3.0510    0.0380   -4.6080 hc        1 B83      0.076500
     52 H30         3.6980    1.8680   -3.9960 hc        1 B83      0.091000
     53 H31         1.2450    2.3630   -2.7540 h1        1 B83      0.089000
     54 H31A        2.6460    2.0990   -2.0540 h1        1 B83      0.089000
     55 H32         2.6200    3.9360   -4.4420 hc        1 B83      0.075000
     56 H32A        2.5840    3.1190   -5.8190 hc        1 B83      0.075000
     57 H32B        1.2790    3.1880   -4.8960 hc        1 B83      0.075000
     58 H33         0.8060    1.1430   -6.8260 hc        1 B83      0.075000
     59 H33A        0.1200    1.8940   -5.5890 hc        1 B83      0.075000
     60 H33B       -0.5040    0.5270   -6.1400 hc        1 B83      0.075000
@<TRIPOS>BOND
     1    1    6 1   
     2    1    7 1   
     3    2    3 1   
     4    2   10 1   
     5    3   34 1   
     6    4    5 1   
     7    4   35 1   
     8    5   36 1   
     9    6   37 1   
    10    7    8 1   
    11    7    9 1   
    12   10   11 1   
    13   10   38 1   
    14   11   12 1   
    15   11   13 1   
    16   13   14 1   
    17   13   18 1   
    18   14   15 1   
    19   14   39 1   
    20   15   40 1   
    21   16   17 1   
    22   16   26 1   
    23   17   18 1   
    24   18   41 1   
    25   19   20 1   
    26   20   21 1   
    27   20   25 1   
    28   21   22 1   
    29   21   42 1   
    30   22   43 1   
    31   23   24 1   
    32   23   44 1   
    33   24   45 1   
    34   25   46 1   
    35   26   27 1   
    36   26   31 1   
    37   27   28 1   
    38   27   47 1   
    39   27   48 1   
    40   28   29 1   
    41   28   33 1   
    42   28   49 1   
    43   29   30 1   
    44   29   50 1   
    45   29   51 1   
    46   30   31 1   
    47   30   32 1   
    48   30   52 1   
    49   31   53 1   
    50   31   54 1   
    51   32   55 1   
    52   32   56 1   
    53   32   57 1   
    54   33   58 1   
    55   33   59 1   
    56   33   60 1   
@<TRIPOS>SUBSTRUCTURE
     1 B83         1 TEMP              0 ****  ****    0 ROOT
