@<TRIPOS>MOLECULE
B83
   61    64     1     0     0
SMALL
bcc


@<TRIPOS>ATOM
      1 C1         -0.1720   -0.6970    0.2340 ca        1 B83     -0.240600
      2 C2          1.0360    0.0490    0.3070 ca        1 B83      0.113600
      3 C3          1.2520    0.8510    1.4510 ca        1 B83     -0.165000
      4 C4          0.2990    0.9090    2.4610 ca        1 B83     -0.076000
      5 C5         -0.8930    0.1900    2.3680 ca        1 B83     -0.166000
      6 C6         -1.1260   -0.6030    1.2510 ca        1 B83     -0.052000
      7 C7         -0.4730   -1.5620   -0.9210 c         1 B83      0.637700
      8 O8         -1.4510   -1.5150   -1.6670 o         1 B83     -0.478000
      9 O9          0.4180   -2.5490   -1.2600 oh        1 B83     -0.594100
     10 N10         1.9460   -0.0240   -0.7550 n         1 B83     -0.485100
     11 C11         3.2410    0.4960   -0.7960 c         1 B83      0.691700
     12 O12         3.7870    1.0140    0.1930 o         1 B83     -0.575100
     13 C13         3.9540    0.3540   -2.0960 ca        1 B83     -0.184600
     14 C14         3.3170    0.5390   -3.3260 ca        1 B83     -0.072000
     15 C15         4.0270    0.4230   -4.5130 ca        1 B83     -0.193000
     16 C16         5.4080    0.1030   -4.5290 ca        1 B83      0.180600
     17 C17         6.0320   -0.0770   -3.2610 ca        1 B83      0.042100
     18 C18         5.3190    0.0580   -2.0670 ca        1 B83     -0.053000
     19 O19         7.4110   -0.2640   -3.1550 os        1 B83     -0.253200
     20 C20         7.8470   -1.5860   -3.0910 ca        1 B83      0.119100
     21 C21         7.0390   -2.6960   -3.3550 ca        1 B83     -0.165500
     22 C22         7.5970   -3.9710   -3.2760 ca        1 B83     -0.103000
     23 C23         8.9400   -4.1350   -2.9400 ca        1 B83     -0.159000
     24 C24         9.7370   -3.0190   -2.6800 ca        1 B83     -0.103000
     25 C25         9.2030   -1.7360   -2.7500 ca        1 B83     -0.165500
     26 N26         6.1130   -0.1130   -5.7280 nh        1 B83     -0.638000
     27 C27         5.3100   -0.3240   -6.9230 c3        1 B83      0.190300
     28 C28         6.1370   -0.8750   -8.0940 c3        1 B83     -0.069700
     29 C29         7.3330    0.0220   -8.3640 c3        1 B83     -0.075400
     30 C30         8.1640    0.1950   -7.1040 c3        1 B83     -0.069700
     31 C31         7.2890    0.7160   -5.9540 c3        1 B83      0.190300
     32 C32         9.3080    1.1560   -7.3370 c3        1 B83     -0.092100
     33 C33         5.2570   -0.9900   -9.3190 c3        1 B83     -0.092100
     34 H3          2.1800    1.4400    1.5520 ha        1 B83      0.180000
     35 H4          0.4910    1.5390    3.3440 ha        1 B83      0.142000
     36 H5         -1.6440    0.2530    3.1690 ha        1 B83      0.143000
     37 H6         -2.0690   -1.1660    1.1520 ha        1 B83      0.150000
     38 HN10        1.6180   -0.4720   -1.5850 hn        1 B83      0.329500
     39 H14         2.2490    0.8050   -3.3730 ha        1 B83      0.141000
     40 H15         3.4900    0.5960   -5.4600 ha        1 B83      0.146000
     41 H18         5.8410   -0.0640   -1.1030 ha        1 B83      0.170000
     42 H21         5.9830   -2.5610   -3.6290 ha        1 B83      0.147000
     43 H22         6.9690   -4.8510   -3.4820 ha        1 B83      0.133500
     44 H23         9.3720   -5.1440   -2.8800 ha        1 B83      0.133000
     45 H24        10.7970   -3.1510   -2.4160 ha        1 B83      0.133500
     46 H25         9.8170   -0.8480   -2.5470 ha        1 B83      0.147000
     47 H27         4.5000   -1.0670   -6.6770 h1        1 B83      0.045450
     48 H27A        4.8170    0.6360   -7.2580 h1        1 B83      0.045450
     49 H28         6.5130   -1.9000   -7.8180 hc        1 B83      0.064700
     50 H29         6.9810    1.0240   -8.7250 hc        1 B83      0.044200
     51 H29A        7.9650   -0.4250   -9.1750 hc        1 B83      0.044200
     52 H30         8.5840   -0.8080   -6.8090 hc        1 B83      0.064700
     53 H31         6.9790    1.7760   -6.1950 h1        1 B83      0.045450
     54 H31A        7.9070    0.7400   -5.0130 h1        1 B83      0.045450
     55 H32         9.9180    1.2660   -6.4080 hc        1 B83      0.037700
     56 H32A        8.9280    2.1630   -7.6330 hc        1 B83      0.037700
     57 H32B        9.9680    0.7740   -8.1530 hc        1 B83      0.037700
     58 H33         4.8690    0.0120   -9.6250 hc        1 B83      0.037700
     59 H33A        4.3880   -1.6590   -9.1130 hc        1 B83      0.037700
     60 H33B        5.8410   -1.4170  -10.1690 hc        1 B83      0.037700
     61 H102        1.0790   -2.6520   -0.5600 ho        1 B83      0.434000
@<TRIPOS>BOND
     1    1    2 ar  
     2    1    6 ar  
     3    1    7 1   
     4    2    3 ar  
     5    2   10 1   
     6    3    4 ar  
     7    3   34 1   
     8    4    5 ar  
     9    4   35 1   
    10    5    6 ar  
    11    5   36 1   
    12    6   37 1   
    13    7    8 2   
    14    7    9 1   
    15    9   61 1   
    16   10   11 1   
    17   10   38 1   
    18   11   12 2   
    19   11   13 1   
    20   13   14 ar  
    21   13   18 ar  
    22   14   15 ar  
    23   14   39 1   
    24   15   16 ar  
    25   15   40 1   
    26   16   17 ar  
    27   16   26 1   
    28   17   18 ar  
    29   17   19 1   
    30   18   41 1   
    31   19   20 1   
    32   20   21 ar  
    33   20   25 ar  
    34   21   22 ar  
    35   21   42 1   
    36   22   23 ar  
    37   22   43 1   
    38   23   24 ar  
    39   23   44 1   
    40   24   25 ar  
    41   24   45 1   
    42   25   46 1   
    43   26   27 1   
    44   26   31 1   
    45   27   28 1   
    46   27   47 1   
    47   27   48 1   
    48   28   29 1   
    49   28   33 1   
    50   28   49 1   
    51   29   30 1   
    52   29   50 1   
    53   29   51 1   
    54   30   31 1   
    55   30   32 1   
    56   30   52 1   
    57   31   53 1   
    58   31   54 1   
    59   32   55 1   
    60   32   56 1   
    61   32   57 1   
    62   33   58 1   
    63   33   59 1   
    64   33   60 1   
@<TRIPOS>SUBSTRUCTURE
     1 B83         1 TEMP              0 ****  ****    0 ROOT
