@<TRIPOS>MOLECULE
B83
   60    63     1     0     0
SMALL
bcc


@<TRIPOS>ATOM
      1 C1         -0.3750   -0.1930   -0.1450 ca        1 B83     -0.161600
      2 C2          0.9670   -0.2400    0.3160 ca        1 B83      0.061600
      3 C3          1.2460    0.0320    1.6730 ca        1 B83     -0.163000
      4 C4          0.2120    0.3270    2.5560 ca        1 B83     -0.137000
      5 C5         -1.1080    0.3510    2.1130 ca        1 B83     -0.177000
      6 C6         -1.3890    0.0920    0.7740 ca        1 B83     -0.092000
      7 C7         -0.7930   -0.4230   -1.5910 c         1 B83      0.914200
      8 O8          0.0730   -0.3500   -2.5190 o         1 B83     -0.837800
      9 O9         -2.0090   -0.6660   -1.8180 o         1 B83     -0.837800
     10 N10         1.9980   -0.6090   -0.5760 n         1 B83     -0.435100
     11 C11         3.2340    0.0140   -0.6300 c         1 B83      0.667700
     12 O12         3.7810    0.5640    0.3500 o         1 B83     -0.625100
     13 C13         3.9590   -0.0800   -1.9380 ca        1 B83     -0.157600
     14 C14         3.2810   -0.0020   -3.1600 ca        1 B83     -0.069000
     15 C15         3.9870   -0.0560   -4.3570 ca        1 B83     -0.188000
     16 C16         5.3910   -0.2030   -4.3870 ca        1 B83      0.136600
     17 C17         6.0530   -0.2800   -3.1320 ca        1 B83      0.029100
     18 C18         5.3480   -0.2100   -1.9270 ca        1 B83     -0.069000
     19 O19         7.4500   -0.2930   -3.0540 os        1 B83     -0.253200
     20 C20         8.0530   -1.5430   -3.0550 ca        1 B83      0.140100
     21 C21         7.3560   -2.7560   -3.1100 ca        1 B83     -0.170500
     22 C22         8.0740   -3.9500   -3.0920 ca        1 B83     -0.104500
     23 C23         9.4670   -3.9390   -3.0180 ca        1 B83     -0.174000
     24 C24        10.1520   -2.7240   -2.9630 ca        1 B83     -0.104500
     25 C25         9.4570   -1.5180   -2.9810 ca        1 B83     -0.170500
     26 N26         6.1210   -0.3480   -5.5960 nh        1 B83     -0.631000
     27 C27         5.3330   -0.7160   -6.7630 c3        1 B83      0.185800
     28 C28         6.2170   -1.1020   -7.9590 c3        1 B83     -0.070200
     29 C29         7.1900    0.0220   -8.2750 c3        1 B83     -0.071400
     30 C30         8.0050    0.3840   -7.0450 c3        1 B83     -0.070200
     31 C31         7.0770    0.7170   -5.8660 c3        1 B83      0.185800
     32 C32         8.9090    1.5640   -7.3230 c3        1 B83     -0.090100
     33 C33         5.3430   -1.4140   -9.1530 c3        1 B83     -0.090100
     34 H3          2.2870    0.0280    2.0300 ha        1 B83      0.146000
     35 H4          0.4460    0.5400    3.6080 ha        1 B83      0.108000
     36 H5         -1.9220    0.5770    2.8140 ha        1 B83      0.108000
     37 H6         -2.4280    0.1040    0.4020 ha        1 B83      0.154000
     38 HN10        1.6410   -0.9520   -1.4600 hn        1 B83      0.356500
     39 H14         2.1750    0.1120   -3.1920 ha        1 B83      0.211000
     40 H15         3.4150    0.0190   -5.2960 ha        1 B83      0.142000
     41 H18         5.8910   -0.2470   -0.9680 ha        1 B83      0.163000
     42 H21         6.2580   -2.7600   -3.1720 ha        1 B83      0.148500
     43 H22         7.5330   -4.9070   -3.1340 ha        1 B83      0.125500
     44 H23        10.0250   -4.8850   -3.0020 ha        1 B83      0.123000
     45 H24        11.2500   -2.7150   -2.9040 ha        1 B83      0.125500
     46 H25         9.9820   -0.5550   -2.9360 ha        1 B83      0.148500
     47 H27         4.6890   -1.5970   -6.4870 h1        1 B83      0.043700
     48 H27A        4.6520    0.1260   -7.0890 h1        1 B83      0.043700
     49 H28         6.8070   -2.0230   -7.6890 hc        1 B83      0.061700
     50 H29         6.6230    0.9220   -8.6310 hc        1 B83      0.036700
     51 H29A        7.8760   -0.2940   -9.1040 hc        1 B83      0.036700
     52 H30         8.6400   -0.5020   -6.7620 hc        1 B83      0.061700
     53 H31         7.7040    0.8720   -4.9430 h1        1 B83      0.043700
     54 H31A        6.5470    1.6880   -6.0950 h1        1 B83      0.043700
     55 H32         9.5100    1.8140   -6.4160 hc        1 B83      0.033200
     56 H32A        9.6080    1.3240   -8.1600 hc        1 B83      0.033200
     57 H32B        8.3110    2.4630   -7.6090 hc        1 B83      0.033200
     58 H33         5.9730   -1.7210  -10.0210 hc        1 B83      0.033200
     59 H33A        4.7430   -0.5200   -9.4500 hc        1 B83      0.033200
     60 H33B        4.6380   -2.2460   -8.9110 hc        1 B83      0.033200
@<TRIPOS>BOND
     1    1    2 ar  
     2    1    6 ar  
     3    1    7 1   
     4    2    3 ar  
     5    2   10 1   
     6    3    4 ar  
     7    3   34 1   
     8    4    5 ar  
     9    4   35 1   
    10    5    6 ar  
    11    5   36 1   
    12    6   37 1   
    13    7    8 1   
    14    7    9 1   
    15   10   11 1   
    16   10   38 1   
    17   11   12 2   
    18   11   13 1   
    19   13   14 ar  
    20   13   18 ar  
    21   14   15 ar  
    22   14   39 1   
    23   15   16 ar  
    24   15   40 1   
    25   16   17 ar  
    26   16   26 1   
    27   17   18 ar  
    28   17   19 1   
    29   18   41 1   
    30   19   20 1   
    31   20   21 ar  
    32   20   25 ar  
    33   21   22 ar  
    34   21   42 1   
    35   22   23 ar  
    36   22   43 1   
    37   23   24 ar  
    38   23   44 1   
    39   24   25 ar  
    40   24   45 1   
    41   25   46 1   
    42   26   27 1   
    43   26   31 1   
    44   27   28 1   
    45   27   47 1   
    46   27   48 1   
    47   28   29 1   
    48   28   33 1   
    49   28   49 1   
    50   29   30 1   
    51   29   50 1   
    52   29   51 1   
    53   30   31 1   
    54   30   32 1   
    55   30   52 1   
    56   31   53 1   
    57   31   54 1   
    58   32   55 1   
    59   32   56 1   
    60   32   57 1   
    61   33   58 1   
    62   33   59 1   
    63   33   60 1   
@<TRIPOS>SUBSTRUCTURE
     1 B83         1 TEMP              0 ****  ****    0 ROOT
