@<TRIPOS>MOLECULE
B84
   71    75     1     0     0
SMALL
bcc


@<TRIPOS>ATOM
      1 S1          0.5030   -0.1860   -0.6570 sy        1 B84      1.499200
      2 O2          1.7130   -0.3800   -1.3490 o         1 B84     -0.633800
      3 O3          0.5350   -0.1200    0.7490 o         1 B84     -0.633800
      4 N4         -0.3100    1.0690   -1.2680 n3        1 B84     -0.825500
      5 C5         -1.2480    1.8450   -0.4930 c3        1 B84      0.220800
      6 C8         -1.0280    3.3690   -0.5980 c3        1 B84      0.154800
      7 N11        -0.9060    3.8230   -1.9760 n3        1 B84     -0.732600
      8 C12         0.1000    3.0700   -2.7110 c3        1 B84      0.154800
      9 C15        -0.1140    1.5450   -2.6160 c3        1 B84      0.220800
     10 C18        -0.7090    5.2520   -2.0730 c3        1 B84      0.153100
     11 C22        -0.5090   -1.5240   -1.0590 ca        1 B84     -0.319500
     12 C23        -0.3210   -2.2220   -2.2530 ca        1 B84     -0.012500
     13 C25        -1.0950   -3.3430   -2.5570 ca        1 B84     -0.155500
     14 C27        -2.0670   -3.7820   -1.6540 ca        1 B84     -0.101300
     15 C28        -2.2550   -3.0930   -0.4490 ca        1 B84     -0.155500
     16 C30        -1.4770   -1.9760   -0.1570 ca        1 B84     -0.012500
     17 C32        -2.8600   -5.0150   -1.9580 c3        1 B84     -0.075400
     18 C34        -2.4230   -6.1990   -1.0920 c3        1 B84     -0.069400
     19 C37        -1.0950   -6.7580   -1.5650 c3        1 B84     -0.072700
     20 C39        -0.5480   -7.7870   -0.5740 c3        1 B84     -0.077900
     21 C42         0.1710   -8.8480   -1.3950 c3        1 B84     -0.079400
     22 C45        -0.2480   -8.6690   -2.8490 c3        1 B84     -0.079400
     23 C48        -1.1890   -7.4730   -2.9130 c3        1 B84     -0.077900
     24 C51        -4.3380   -4.7730   -1.7620 c         1 B84      0.570100
     25 O52        -5.1800   -5.4580   -1.2120 o         1 B84     -0.404100
     26 N53        -4.8710   -3.4570   -2.3510 n4        1 B84     -0.590800
     27 C55        -5.3790   -3.6440   -3.6990 cc        1 B84      0.251100
     28 S56        -7.0330   -3.3530   -4.1020 ss        1 B84      0.087500
     29 C57        -6.7290   -3.7840   -5.7080 ca        1 B84      0.453600
     30 N58        -7.6280   -3.8000   -6.7130 nb        1 B84     -0.713000
     31 C59        -7.1540   -4.1850   -7.9220 ca        1 B84      0.702600
     32 C60        -5.7820   -4.5640   -8.1770 ca        1 B84     -0.236300
     33 C62        -4.8780   -4.5430   -7.1490 ca        1 B84      0.004000
     34 C64        -5.3300   -4.1450   -5.8550 ca        1 B84     -0.077900
     35 N65        -4.5810   -4.0600   -4.7040 nd        1 B84     -0.454100
     36 O66        -7.9550   -4.2460   -9.0210 os        1 B84     -0.414100
     37 C67        -9.3400   -3.8940   -8.8860 c3        1 B84      0.116700
     38 H5         -1.1580    1.5600    0.5950 h1        1 B84      0.055450
     39 H5A        -2.2940    1.6090   -0.8430 h1        1 B84      0.055450
     40 H8         -1.9260    3.8740   -0.1450 h1        1 B84      0.049450
     41 H8A        -0.1240    3.6490    0.0190 h1        1 B84      0.049450
     42 H12         1.1460    3.3130   -2.3620 h1        1 B84      0.049450
     43 H12A        0.0210    3.3570   -3.7970 h1        1 B84      0.049450
     44 H15         0.7950    1.0430   -3.0590 h1        1 B84      0.055450
     45 H15A       -1.0160    1.2700   -3.2350 h1        1 B84      0.055450
     46 H18         0.2540    5.6010   -1.6080 h1        1 B84      0.041367
     47 H18A       -0.7100    5.5420   -3.1560 h1        1 B84      0.041367
     48 H18B       -1.5620    5.7680   -1.5590 h1        1 B84      0.041367
     49 H23         0.4700   -1.8970   -2.9550 ha        1 B84      0.172500
     50 H25        -0.9200   -3.8910   -3.4970 ha        1 B84      0.147000
     51 H28        -2.9820   -3.4610    0.2920 ha        1 B84      0.147000
     52 H30        -1.6010   -1.4570    0.8120 ha        1 B84      0.172500
     53 H32        -2.7240   -5.3050   -3.0460 hc        1 B84      0.132700
     54 H34        -2.3290   -5.8650   -0.0250 hc        1 B84      0.072200
     55 H34A       -3.2090   -7.0010   -1.1330 hc        1 B84      0.072200
     56 H37        -0.3600   -5.9090   -1.6530 hc        1 B84      0.060700
     57 H39        -1.3840   -8.2490    0.0100 hc        1 B84      0.043200
     58 H39A        0.1450   -7.3010    0.1560 hc        1 B84      0.043200
     59 H42         1.2800   -8.7340   -1.2940 hc        1 B84      0.052700
     60 H42A       -0.0910   -9.8720   -1.0280 hc        1 B84      0.052700
     61 H45        -0.7590   -9.5880   -3.2310 hc        1 B84      0.052700
     62 H45A        0.6490   -8.4950   -3.4940 hc        1 B84      0.052700
     63 H48        -0.9030   -6.7840   -3.7470 hc        1 B84      0.043200
     64 H48A       -2.2370   -7.8160   -3.1040 hc        1 B84      0.043200
     65 HN53       -4.1050   -2.7650   -2.3600 hn        1 B84      0.469800
     66 H60        -5.5060   -4.8600   -9.2010 ha        1 B84      0.190000
     67 H62        -3.8230   -4.8240   -7.3000 ha        1 B84      0.176000
     68 H67        -9.7270   -4.0400   -9.9280 h1        1 B84      0.069367
     69 H67A       -9.8460   -4.5820   -8.1670 h1        1 B84      0.069367
     70 H67B       -9.4400   -2.8310   -8.5630 h1        1 B84      0.069367
     71 H532       -5.6400   -3.1060   -1.7670 hn        1 B84      0.469800
@<TRIPOS>BOND
     1    1    2 2   
     2    1    3 2   
     3    1    4 1   
     4    1   11 1   
     5    4    5 1   
     6    4    9 1   
     7    5    6 1   
     8    5   38 1   
     9    5   39 1   
    10    6    7 1   
    11    6   40 1   
    12    6   41 1   
    13    7    8 1   
    14    7   10 1   
    15    8    9 1   
    16    8   42 1   
    17    8   43 1   
    18    9   44 1   
    19    9   45 1   
    20   10   46 1   
    21   10   47 1   
    22   10   48 1   
    23   11   12 ar  
    24   11   16 ar  
    25   12   13 ar  
    26   12   49 1   
    27   13   14 ar  
    28   13   50 1   
    29   14   15 ar  
    30   14   17 1   
    31   15   16 ar  
    32   15   51 1   
    33   16   52 1   
    34   17   18 1   
    35   17   24 1   
    36   17   53 1   
    37   18   19 1   
    38   18   54 1   
    39   18   55 1   
    40   19   20 1   
    41   19   23 1   
    42   19   56 1   
    43   20   21 1   
    44   20   57 1   
    45   20   58 1   
    46   21   22 1   
    47   21   59 1   
    48   21   60 1   
    49   22   23 1   
    50   22   61 1   
    51   22   62 1   
    52   23   63 1   
    53   23   64 1   
    54   24   25 2   
    55   24   26 1   
    56   26   27 1   
    57   26   65 1   
    58   26   71 1   
    59   27   28 1   
    60   27   35 2   
    61   28   29 1   
    62   29   30 ar  
    63   29   34 ar  
    64   30   31 ar  
    65   31   32 ar  
    66   31   36 1   
    67   32   33 ar  
    68   32   66 1   
    69   33   34 ar  
    70   33   67 1   
    71   34   35 1   
    72   36   37 1   
    73   37   68 1   
    74   37   69 1   
    75   37   70 1   
@<TRIPOS>SUBSTRUCTURE
     1 B84         1 TEMP              0 ****  ****    0 ROOT
