@<TRIPOS>MOLECULE
B84
   70    74     1     0     0
SMALL
bcc


@<TRIPOS>ATOM
      1 S1         -0.0950   -0.0950   -0.2840 sy        1 B84      1.507200
      2 O2          1.3110   -0.1720   -0.1690 o         1 B84     -0.650800
      3 O3         -0.8240    0.1380    0.9020 o         1 B84     -0.650800
      4 N4         -0.4970    1.0070   -1.4060 n3        1 B84     -0.819500
      5 C5         -1.7680    1.6860   -1.4180 c3        1 B84      0.222800
      6 C8         -1.6430    3.2190   -1.5520 c3        1 B84      0.156800
      7 N11        -0.7640    3.6220   -2.6400 n3        1 B84     -0.730600
      8 C12         0.5240    2.9460   -2.5980 c3        1 B84      0.156800
      9 C15         0.3940    1.4140   -2.4630 c3        1 B84      0.222800
     10 C18        -0.6310    5.0580   -2.7380 c3        1 B84      0.156100
     11 C22        -0.6430   -1.5550   -0.9540 ca        1 B84     -0.363500
     12 C23         0.2060   -2.3450   -1.7360 ca        1 B84     -0.014000
     13 C25        -0.2290   -3.5580   -2.2630 ca        1 B84     -0.150000
     14 C27        -1.5320   -4.0060   -2.0120 ca        1 B84     -0.040300
     15 C28        -2.3840   -3.2270   -1.2200 ca        1 B84     -0.150000
     16 C30        -1.9390   -2.0160   -0.6980 ca        1 B84     -0.014000
     17 C32        -1.9900   -5.3190   -2.5640 c3        1 B84     -0.089400
     18 C34        -2.1010   -6.3710   -1.4630 c3        1 B84     -0.065400
     19 C37        -0.7380   -6.8380   -0.9950 c3        1 B84     -0.071700
     20 C39        -0.8480   -7.7080    0.2580 c3        1 B84     -0.077400
     21 C42         0.2410   -8.7670    0.1590 c3        1 B84     -0.078400
     22 C45         0.7480   -8.7720   -1.2780 c3        1 B84     -0.078400
     23 C48        -0.0040   -7.6860   -2.0350 c3        1 B84     -0.077400
     24 C51        -3.3220   -5.1950   -3.3020 c         1 B84      0.661100
     25 O52        -4.2270   -6.0450   -3.2050 o         1 B84     -0.576100
     26 N53        -3.4670   -4.1020   -4.1480 n         1 B84     -0.457400
     27 C55        -4.6160   -3.8730   -4.9070 cc        1 B84      0.379800
     28 S56        -5.9570   -5.0000   -4.8980 ss        1 B84      0.028500
     29 C57        -6.7980   -4.0180   -5.9970 ca        1 B84      0.374600
     30 N58        -8.0280   -4.2590   -6.5070 nb        1 B84     -0.692000
     31 C59        -8.4970   -3.3320   -7.3660 ca        1 B84      0.630600
     32 C60        -7.7910   -2.1460   -7.7560 ca        1 B84     -0.249300
     33 C62        -6.5400   -1.9130   -7.2290 ca        1 B84     -0.026000
     34 C64        -6.0030   -2.8580   -6.3210 ca        1 B84     -0.039900
     35 N65        -4.7640   -2.7910   -5.6920 nd        1 B84     -0.568100
     36 O66        -9.7370   -3.4570   -7.9580 os        1 B84     -0.446100
     37 C67       -10.5160   -4.6070   -7.6300 c3        1 B84      0.123700
     38 H5         -2.3850    1.3000   -2.2800 h1        1 B84      0.058700
     39 H5A        -2.3150    1.4670   -0.4560 h1        1 B84      0.058700
     40 H8         -1.3050    3.6430   -0.5610 h1        1 B84      0.042200
     41 H8A        -2.6690    3.6260   -1.7700 h1        1 B84      0.042200
     42 H12         1.1720    3.3310   -1.7560 h1        1 B84      0.042200
     43 H12A        1.0550    3.1590   -3.5680 h1        1 B84      0.042200
     44 H15         0.0190    0.9980   -3.4430 h1        1 B84      0.058700
     45 H15A        1.4230    0.9970   -2.2630 h1        1 B84      0.058700
     46 H18        -0.1390    5.5230   -1.8400 h1        1 B84      0.034700
     47 H18A       -1.6520    5.5060   -2.8580 h1        1 B84      0.034700
     48 H18B       -0.0200    5.3010   -3.6460 h1        1 B84      0.034700
     49 H23         1.2420   -2.0080   -1.9200 ha        1 B84      0.157000
     50 H25         0.4580   -4.1710   -2.8670 ha        1 B84      0.147000
     51 H28        -3.4060   -3.5780   -1.0040 ha        1 B84      0.147000
     52 H30        -2.6100   -1.4150   -0.0580 ha        1 B84      0.157000
     53 H32        -1.2430   -5.6900   -3.3280 hc        1 B84      0.090700
     54 H34        -2.6670   -5.9390   -0.5960 hc        1 B84      0.068200
     55 H34A       -2.6940   -7.2440   -1.8490 hc        1 B84      0.068200
     56 H37        -0.1100   -5.9340   -0.7580 hc        1 B84      0.053700
     57 H39        -1.8560   -8.1920    0.3080 hc        1 B84      0.042700
     58 H39A       -0.7270   -7.0880    1.1800 hc        1 B84      0.042700
     59 H42        -0.1610   -9.7720    0.4420 hc        1 B84      0.042700
     60 H42A        1.0770   -8.5340    0.8650 hc        1 B84      0.042700
     61 H45         0.5810   -9.7690   -1.7540 hc        1 B84      0.042700
     62 H45A        1.8490   -8.5730   -1.3020 hc        1 B84      0.042700
     63 H48         0.6980   -7.0550   -2.6350 hc        1 B84      0.042700
     64 H48A       -0.7340   -8.1470   -2.7490 hc        1 B84      0.042700
     65 HN53       -2.7460   -3.4120   -4.1800 hn        1 B84      0.345500
     66 H60        -8.2660   -1.4560   -8.4650 ha        1 B84      0.162000
     67 H62        -5.9620   -1.0160   -7.5000 ha        1 B84      0.157000
     68 H67        -9.9870   -5.5410   -7.9380 h1        1 B84      0.051367
     69 H67A      -10.7470   -4.6280   -6.5380 h1        1 B84      0.051367
     70 H67B      -11.4470   -4.4590   -8.2330 h1        1 B84      0.051367
@<TRIPOS>BOND
     1    1    2 2   
     2    1    3 2   
     3    1    4 1   
     4    1   11 1   
     5    4    5 1   
     6    4    9 1   
     7    5    6 1   
     8    5   38 1   
     9    5   39 1   
    10    6    7 1   
    11    6   40 1   
    12    6   41 1   
    13    7    8 1   
    14    7   10 1   
    15    8    9 1   
    16    8   42 1   
    17    8   43 1   
    18    9   44 1   
    19    9   45 1   
    20   10   46 1   
    21   10   47 1   
    22   10   48 1   
    23   11   12 ar  
    24   11   16 ar  
    25   12   13 ar  
    26   12   49 1   
    27   13   14 ar  
    28   13   50 1   
    29   14   15 ar  
    30   14   17 1   
    31   15   16 ar  
    32   15   51 1   
    33   16   52 1   
    34   17   18 1   
    35   17   24 1   
    36   17   53 1   
    37   18   19 1   
    38   18   54 1   
    39   18   55 1   
    40   19   20 1   
    41   19   23 1   
    42   19   56 1   
    43   20   21 1   
    44   20   57 1   
    45   20   58 1   
    46   21   22 1   
    47   21   59 1   
    48   21   60 1   
    49   22   23 1   
    50   22   61 1   
    51   22   62 1   
    52   23   63 1   
    53   23   64 1   
    54   24   25 2   
    55   24   26 1   
    56   26   27 1   
    57   26   65 1   
    58   27   28 1   
    59   27   35 2   
    60   28   29 1   
    61   29   30 ar  
    62   29   34 ar  
    63   30   31 ar  
    64   31   32 ar  
    65   31   36 1   
    66   32   33 ar  
    67   32   66 1   
    68   33   34 ar  
    69   33   67 1   
    70   34   35 1   
    71   36   37 1   
    72   37   68 1   
    73   37   69 1   
    74   37   70 1   
@<TRIPOS>SUBSTRUCTURE
     1 B84         1 TEMP              0 ****  ****    0 ROOT
