@<TRIPOS>MOLECULE
B84
   70    66     1     0     0
SMALL
bcc


@<TRIPOS>ATOM
      1 S1          2.6390    3.3660    2.7530 ss        1 B84      2.844000
      2 O2          4.0240    3.2880    2.9560 o         1 B84     -0.927000
      3 O3          2.1710    3.4960    4.0780 o         1 B84     -0.927000
      4 N4          2.2420    4.6930    1.8500 n2        1 B84     -0.835000
      5 C5          3.2720    5.3960    1.0990 c3        1 B84     -0.011000
      6 C8          2.6890    6.2450   -0.0410 c3        1 B84     -0.084500
      7 N11         1.6480    7.1080    0.4040 n3        1 B84     -0.254000
      8 C12         0.6270    6.4050    1.1470 c3        1 B84     -0.084500
      9 C15         1.2130    5.5490    2.2880 c3        1 B84     -0.011000
     10 C18         1.0660    7.7470   -0.6950 c3        1 B84     -0.122000
     11 C22         2.0060    1.8730    1.9870 c1        1 B84     -0.810000
     12 C23         2.7540    1.2190    0.9810 c2        1 B84     -0.017000
     13 C25         2.3110    0.0050    0.4630 c1        1 B84     -0.153000
     14 C27         1.1370   -0.5630    0.9310 c1        1 B84     -0.034000
     15 C28         0.3880    0.0890    1.9350 c1        1 B84     -0.148000
     16 C30         0.8310    1.3030    2.4550 c1        1 B84     -0.015000
     17 C32         0.7090   -1.9870    0.4350 c3        1 B84     -0.086000
     18 C34         0.7520   -2.9590    1.5890 c3        1 B84     -0.144000
     19 C37         2.0590   -3.7140    1.5760 c3        1 B84     -0.110000
     20 C39         2.3900   -4.0890    2.8440 c3        1 B84     -0.156000
     21 C42         3.1570   -5.5500    2.6800 c3        1 B84     -0.157000
     22 C45         2.8890   -6.0140    1.1640 c3        1 B84     -0.157000
     23 C48         1.8960   -5.1390    0.6850 c3        1 B84     -0.156000
     24 C51        -0.6310   -1.9220   -0.0820 c2        1 B84      0.305000
     25 O52        -1.5470   -1.6560    0.6560 o         1 B84     -0.335000
     26 N53        -0.8880   -2.2580   -1.4530 n         1 B84     -0.298000
     27 C55        -2.2740   -2.2800   -1.9600 c2        1 B84     -0.138000
     28 S56        -3.6510   -2.7850   -1.5710 ss        1 B84      0.583000
     29 C57        -4.6220   -2.4520   -2.7380 c1        1 B84     -0.281000
     30 N58        -5.9400   -2.6410   -2.8850 n1        1 B84     -0.166000
     31 C59        -6.5800   -2.1980   -4.0250 c1        1 B84      0.133000
     32 C60        -5.8570   -1.5500   -5.0300 c1        1 B84     -0.106000
     33 C62        -4.5380   -1.3590   -4.8870 c1        1 B84     -0.106000
     34 C64        -3.8900   -1.8050   -3.7380 c1        1 B84     -0.114000
     35 N65        -2.3770   -1.6870   -3.2530 n1        1 B84     -0.145000
     36 O66        -8.0440   -2.4140   -4.1300 os        1 B84     -0.204000
     37 C67        -8.3990   -3.6930   -4.6100 c3        1 B84     -0.066000
     38 H5          3.7520    5.9690    1.6940 h1        1 B84      0.100250
     39 H5A         3.8930    4.7400    0.7230 h1        1 B84      0.100250
     40 H8          2.3540    5.6860   -0.6850 h1        1 B84      0.078500
     41 H8A         3.3940    6.7770   -0.4270 h1        1 B84      0.078500
     42 H12         0.0170    7.0430    1.5230 h1        1 B84      0.078500
     43 H12A        0.1390    5.8260    0.5330 h1        1 B84      0.078500
     44 H15         0.5520    5.0490    2.6470 h1        1 B84      0.100250
     45 H15A        1.5680    6.1370    2.9720 h1        1 B84      0.100250
     46 H18         1.7360    8.3060   -1.1470 h1        1 B84      0.076000
     47 H18A        0.7200    7.0580   -1.3330 h1        1 B84      0.076000
     48 H18B        0.3150    8.3180   -0.3840 h1        1 B84      0.076000
     49 H23         3.5710    1.6140    0.6540 ha        1 B84      0.158000
     50 H25         2.7740   -0.3990   -0.1600 ha        1 B84      0.144000
     51 H28        -0.3940   -0.2900    2.2470 ha        1 B84      0.150000
     52 H30         0.3270    1.7410    3.1290 ha        1 B84      0.156000
     53 H32         1.3140   -2.2830   -0.2600 hc        1 B84      0.130000
     54 H34         0.0240   -3.5850    1.5090 hc        1 B84      0.107000
     55 H34A        0.6680   -2.4800    2.4080 hc        1 B84      0.107000
     56 H37         2.8120   -3.1250    1.1720 hc        1 B84      0.093000
     57 H39         1.6120   -4.1870    3.3710 hc        1 B84      0.082000
     58 H39A        2.9570   -3.4660    3.2230 hc        1 B84      0.082000
     59 H42         4.0880   -5.4510    2.8300 hc        1 B84      0.082250
     60 H42A        2.7980   -6.1730    3.2770 hc        1 B84      0.082250
     61 H45         3.7330   -5.9280    0.6100 hc        1 B84      0.082250
     62 H45A        2.5600   -6.9550    1.1480 hc        1 B84      0.082250
     63 H48         2.0370   -4.9570   -0.2720 hc        1 B84      0.082000
     64 H48A        0.9710   -5.5390    0.8320 hc        1 B84      0.082000
     65 HN53       -0.1400   -2.3950   -2.0700 hn        1 B84      0.257000
     66 H60        -6.3010   -1.2470   -5.8160 ha        1 B84      0.158500
     67 H62        -4.0150   -0.8860   -5.6160 ha        1 B84      0.158500
     68 H67        -7.7170   -4.0010   -5.2810 h1        1 B84      0.091000
     69 H67A       -8.4290   -4.3400   -3.8500 h1        1 B84      0.091000
     70 H67B       -9.3220   -3.6430   -5.0580 h1        1 B84      0.091000
@<TRIPOS>BOND
     1    1    2 1   
     2    1    3 1   
     3    4    5 1   
     4    4    9 1   
     5    5    6 1   
     6    5   38 1   
     7    5   39 1   
     8    6    7 1   
     9    6   40 1   
    10    6   41 1   
    11    7    8 1   
    12    7   10 1   
    13    8    9 1   
    14    8   42 1   
    15    8   43 1   
    16    9   44 1   
    17    9   45 1   
    18   10   46 1   
    19   10   47 1   
    20   10   48 1   
    21   11   12 1   
    22   11   16 1   
    23   12   13 1   
    24   12   49 1   
    25   13   50 1   
    26   14   15 1   
    27   14   17 1   
    28   15   51 1   
    29   16   52 1   
    30   17   18 1   
    31   17   24 1   
    32   17   53 1   
    33   18   19 1   
    34   18   54 1   
    35   18   55 1   
    36   19   20 1   
    37   19   23 1   
    38   19   56 1   
    39   20   21 1   
    40   20   57 1   
    41   20   58 1   
    42   21   22 1   
    43   21   59 1   
    44   21   60 1   
    45   22   23 1   
    46   22   61 1   
    47   22   62 1   
    48   23   63 1   
    49   23   64 1   
    50   24   25 1   
    51   24   26 1   
    52   26   27 1   
    53   26   65 1   
    54   27   28 1   
    55   27   35 1   
    56   28   29 1   
    57   29   34 1   
    58   30   31 1   
    59   31   36 1   
    60   32   33 1   
    61   32   66 1   
    62   33   67 1   
    63   36   37 1   
    64   37   68 1   
    65   37   69 1   
    66   37   70 1   
@<TRIPOS>SUBSTRUCTURE
     1 B84         1 TEMP              0 ****  ****    0 ROOT
