@<TRIPOS>MOLECULE
B84
   70    74     1     0     0
SMALL
bcc


@<TRIPOS>ATOM
      1 S1         -4.6900   -0.1190    0.4390 sy        1 B84      1.507200
      2 O2         -5.6210    0.6560   -0.2870 o         1 B84     -0.650800
      3 O3         -4.9650   -0.3360    1.8080 o         1 B84     -0.650800
      4 N4         -4.4520   -1.5400   -0.3080 n3        1 B84     -0.819500
      5 C5         -3.9960   -2.7210    0.3790 c3        1 B84      0.222800
      6 C8         -4.8550   -3.9700    0.0880 c3        1 B84      0.156800
      7 N11        -5.0800   -4.1830   -1.3350 n3        1 B84     -0.730600
      8 C12        -5.5660   -2.9870   -2.0080 c3        1 B84      0.156800
      9 C15        -4.7040   -1.7400   -1.7130 c3        1 B84      0.222800
     10 C18        -5.9090   -5.3380   -1.5950 c3        1 B84      0.156100
     11 C22        -3.1780    0.6420    0.3260 ca        1 B84     -0.363500
     12 C23        -2.8810    1.4860   -0.7500 ca        1 B84     -0.014000
     13 C25        -1.6540    2.1370   -0.8330 ca        1 B84     -0.150000
     14 C27        -0.6930    1.9540    0.1700 ca        1 B84     -0.040300
     15 C28        -0.9860    1.1210    1.2570 ca        1 B84     -0.150000
     16 C30        -2.2170    0.4750    1.3290 ca        1 B84     -0.014000
     17 C32         0.6170    2.6710    0.0880 c3        1 B84     -0.089400
     18 C34         0.6870    3.8080    1.1050 c3        1 B84     -0.065400
     19 C37        -0.1850    4.9790    0.6970 c3        1 B84     -0.071700
     20 C39        -0.2960    6.0080    1.8230 c3        1 B84     -0.077400
     21 C42        -0.3660    7.3780    1.1640 c3        1 B84     -0.077900
     22 C45         0.0660    7.2130   -0.2880 c3        1 B84     -0.077900
     23 C48         0.3560    5.7360   -0.5170 c3        1 B84     -0.077400
     24 C51         1.8030    1.7270    0.2800 c         1 B84      0.661100
     25 O52         2.8170    2.0450    0.9290 o         1 B84     -0.576100
     26 N53         1.7310    0.4930   -0.3570 n         1 B84     -0.457400
     27 C55         2.7520   -0.4560   -0.2930 cc        1 B84      0.379800
     28 S56         4.2500   -0.1330    0.5540 ss        1 B84      0.028500
     29 C57         4.8270   -1.6720    0.1330 ca        1 B84      0.374600
     30 N58         6.0330   -2.1920    0.4620 nb        1 B84     -0.692000
     31 C59         6.2730   -3.4410    0.0140 ca        1 B84      0.630600
     32 C60         5.3550   -4.2220   -0.7640 ca        1 B84     -0.249300
     33 C62         4.1320   -3.6800   -1.0930 ca        1 B84     -0.026000
     34 C64         3.8330   -2.3700   -0.6450 ca        1 B84     -0.039900
     35 N65         2.6570   -1.6650   -0.8780 nd        1 B84     -0.568100
     36 O66         7.4620   -4.0880    0.2800 os        1 B84     -0.446100
     37 C67         8.4400   -3.3890    1.0500 c3        1 B84      0.123700
     38 H5         -2.9310   -2.9390    0.0740 h1        1 B84      0.058700
     39 H5A        -4.0220   -2.5370    1.4920 h1        1 B84      0.058700
     40 H8         -4.3000   -4.8660    0.4840 h1        1 B84      0.042200
     41 H8A        -5.8260   -3.8840    0.6570 h1        1 B84      0.042200
     42 H12        -5.5210   -3.1760   -3.1170 h1        1 B84      0.042200
     43 H12A       -6.6380   -2.7590   -1.7380 h1        1 B84      0.042200
     44 H15        -5.2460   -0.8410   -2.1260 h1        1 B84      0.058700
     45 H15A       -3.7190   -1.8490   -2.2530 h1        1 B84      0.058700
     46 H18        -6.9550   -5.2360   -1.1940 h1        1 B84      0.034700
     47 H18A       -5.9670   -5.4970   -2.7040 h1        1 B84      0.034700
     48 H18B       -5.4320   -6.2370   -1.1250 h1        1 B84      0.034700
     49 H23        -3.6430    1.6500   -1.5330 ha        1 B84      0.157000
     50 H25        -1.4440    2.8050   -1.6830 ha        1 B84      0.147000
     51 H28        -0.2430    0.9840    2.0580 ha        1 B84      0.147000
     52 H30        -2.4490   -0.1650    2.2000 ha        1 B84      0.157000
     53 H32         0.7410    3.1170   -0.9450 hc        1 B84      0.091700
     54 H34         0.3580    3.4270    2.1070 hc        1 B84      0.068200
     55 H34A        1.7550    4.1430    1.2070 hc        1 B84      0.068200
     56 H37        -1.2130    4.5920    0.4530 hc        1 B84      0.053700
     57 H39        -1.2020    5.8120    2.4470 hc        1 B84      0.042450
     58 H39A        0.5970    5.9460    2.4950 hc        1 B84      0.042450
     59 H42        -1.4090    7.7820    1.2150 hc        1 B84      0.042700
     60 H42A        0.2970    8.1040    1.6960 hc        1 B84      0.042700
     61 H45        -0.7430    7.5640   -0.9770 hc        1 B84      0.042700
     62 H45A        0.9750    7.8280   -0.5040 hc        1 B84      0.042700
     63 H48         1.4580    5.5690   -0.6230 hc        1 B84      0.042450
     64 H48A       -0.1300    5.3730   -1.4570 hc        1 B84      0.042450
     65 HN53        0.8930    0.2430   -0.8380 hn        1 B84      0.345500
     66 H60         5.6530   -5.2310   -1.0780 ha        1 B84      0.162000
     67 H62         3.3980   -4.2420   -1.6890 ha        1 B84      0.157000
     68 H67         8.7630   -2.4590    0.5250 h1        1 B84      0.051367
     69 H67A        8.0430   -3.1490    2.0650 h1        1 B84      0.051367
     70 H67B        9.2810   -4.1250    1.1130 h1        1 B84      0.051367
@<TRIPOS>BOND
     1    1    2 2   
     2    1    3 2   
     3    1    4 1   
     4    1   11 1   
     5    4    5 1   
     6    4    9 1   
     7    5    6 1   
     8    5   38 1   
     9    5   39 1   
    10    6    7 1   
    11    6   40 1   
    12    6   41 1   
    13    7    8 1   
    14    7   10 1   
    15    8    9 1   
    16    8   42 1   
    17    8   43 1   
    18    9   44 1   
    19    9   45 1   
    20   10   46 1   
    21   10   47 1   
    22   10   48 1   
    23   11   12 ar  
    24   11   16 ar  
    25   12   13 ar  
    26   12   49 1   
    27   13   14 ar  
    28   13   50 1   
    29   14   15 ar  
    30   14   17 1   
    31   15   16 ar  
    32   15   51 1   
    33   16   52 1   
    34   17   18 1   
    35   17   24 1   
    36   17   53 1   
    37   18   19 1   
    38   18   54 1   
    39   18   55 1   
    40   19   20 1   
    41   19   23 1   
    42   19   56 1   
    43   20   21 1   
    44   20   57 1   
    45   20   58 1   
    46   21   22 1   
    47   21   59 1   
    48   21   60 1   
    49   22   23 1   
    50   22   61 1   
    51   22   62 1   
    52   23   63 1   
    53   23   64 1   
    54   24   25 2   
    55   24   26 1   
    56   26   27 1   
    57   26   65 1   
    58   27   28 1   
    59   27   35 2   
    60   28   29 1   
    61   29   30 ar  
    62   29   34 ar  
    63   30   31 ar  
    64   31   32 ar  
    65   31   36 1   
    66   32   33 ar  
    67   32   66 1   
    68   33   34 ar  
    69   33   67 1   
    70   34   35 1   
    71   36   37 1   
    72   37   68 1   
    73   37   69 1   
    74   37   70 1   
@<TRIPOS>SUBSTRUCTURE
     1 B84         1 TEMP              0 ****  ****    0 ROOT
