@<TRIPOS>MOLECULE
B84
   70    74     1     0     0
SMALL
bcc


@<TRIPOS>ATOM
      1 S1         -0.1230   -0.1000   -0.2550 sy        1 B84      1.507200
      2 O2          1.2820   -0.1770   -0.1220 o         1 B84     -0.650800
      3 O3         -0.8660    0.1290    0.9240 o         1 B84     -0.650800
      4 N4         -0.5110    1.0050   -1.3770 n3        1 B84     -0.819500
      5 C5         -1.7820    1.6840   -1.4030 c3        1 B84      0.222800
      6 C8         -1.6550    3.2170   -1.5300 c3        1 B84      0.156800
      7 N11        -0.7640    3.6240   -2.6070 n3        1 B84     -0.730600
      8 C12         0.5240    2.9480   -2.5510 c3        1 B84      0.156800
      9 C15         0.3920    1.4150   -2.4220 c3        1 B84      0.222800
     10 C18        -0.6290    5.0600   -2.6990 c3        1 B84      0.156100
     11 C22        -0.6620   -1.5580   -0.9350 ca        1 B84     -0.363500
     12 C23         0.1950   -2.3450   -1.7120 ca        1 B84     -0.014000
     13 C25        -0.2330   -3.5560   -2.2480 ca        1 B84     -0.150000
     14 C27        -1.5380   -4.0060   -2.0120 ca        1 B84     -0.040300
     15 C28        -2.3990   -3.2310   -1.2250 ca        1 B84     -0.150000
     16 C30        -1.9600   -2.0220   -0.6940 ca        1 B84     -0.014000
     17 C32        -1.9880   -5.3170   -2.5730 c3        1 B84     -0.089400
     18 C34        -2.1050   -6.3750   -1.4770 c3        1 B84     -0.065400
     19 C37        -0.7430   -6.8400   -1.0020 c3        1 B84     -0.071700
     20 C39        -0.8590   -7.7160    0.2470 c3        1 B84     -0.077400
     21 C42         0.2330   -8.7710    0.1510 c3        1 B84     -0.078400
     22 C45         0.7510   -8.7680   -1.2820 c3        1 B84     -0.078400
     23 C48         0.0000   -7.6810   -2.0410 c3        1 B84     -0.077400
     24 C51        -3.3150   -5.1960   -3.3210 c         1 B84      0.661100
     25 O52        -4.2120   -6.0550   -3.2430 o         1 B84     -0.576100
     26 N53        -3.4640   -4.0930   -4.1540 ns        1 B84     -0.457400
     27 C55        -4.6080   -3.8660   -4.9200 cc        1 B84      0.379800
     28 S56        -5.9380   -5.0060   -4.9380 ss        1 B84      0.028500
     29 C57        -6.7780   -4.0180   -6.0310 ca        1 B84      0.374600
     30 N58        -8.0010   -4.2650   -6.5550 nb        1 B84     -0.692000
     31 C59        -8.4720   -3.3310   -7.4060 ca        1 B84      0.630600
     32 C60        -7.7750   -2.1320   -7.7740 ca        1 B84     -0.249300
     33 C62        -6.5310   -1.8930   -7.2320 ca        1 B84     -0.026000
     34 C64        -5.9930   -2.8450   -6.3330 ca        1 B84     -0.039900
     35 N65        -4.7610   -2.7740   -5.6920 nd        1 B84     -0.568100
     36 O66        -9.7060   -3.4600   -8.0110 os        1 B84     -0.446100
     37 C67       -10.4760   -4.6230   -7.7050 c3        1 B84      0.123700
     38 H5         -2.3890    1.3010   -2.2740 h1        1 B84      0.058700
     39 H5A        -2.3410    1.4630   -0.4480 h1        1 B84      0.058700
     40 H8         -1.3290    3.6380   -0.5340 h1        1 B84      0.042200
     41 H8A        -2.6790    3.6260   -1.7600 h1        1 B84      0.042200
     42 H12         1.1620    3.3300   -1.7000 h1        1 B84      0.042200
     43 H12A        1.0660    3.1630   -3.5140 h1        1 B84      0.042200
     44 H15         0.0290    1.0030   -3.4080 h1        1 B84      0.058700
     45 H15A        1.4190    0.9970   -2.2120 h1        1 B84      0.058700
     46 H18        -0.0070    5.3070   -3.5980 h1        1 B84      0.034700
     47 H18A       -0.1480    5.5230   -1.7930 h1        1 B84      0.034700
     48 H18B       -1.6490    5.5090   -2.8290 h1        1 B84      0.034700
     49 H23         1.2320   -2.0050   -1.8850 ha        1 B84      0.157000
     50 H25         0.4600   -4.1650   -2.8480 ha        1 B84      0.147000
     51 H28        -3.4220   -3.5850   -1.0210 ha        1 B84      0.147000
     52 H30        -2.6390   -1.4250   -0.0580 ha        1 B84      0.157000
     53 H32        -1.2350   -5.6830   -3.3330 hc        1 B84      0.090700
     54 H34        -2.6920   -7.2470   -1.8710 hc        1 B84      0.068200
     55 H34A       -2.6780   -5.9480   -0.6120 hc        1 B84      0.068200
     56 H37        -0.1200   -5.9360   -0.7570 hc        1 B84      0.053700
     57 H39        -0.7470   -7.0990    1.1720 hc        1 B84      0.042700
     58 H39A       -1.8660   -8.2030    0.2870 hc        1 B84      0.042700
     59 H42         1.0640   -8.5370    0.8640 hc        1 B84      0.042700
     60 H42A       -0.1670   -9.7780    0.4270 hc        1 B84      0.042700
     61 H45         0.5890   -9.7640   -1.7640 hc        1 B84      0.042700
     62 H45A        1.8510   -8.5670   -1.2980 hc        1 B84      0.042700
     63 H48        -0.7230   -8.1420   -2.7610 hc        1 B84      0.042700
     64 H48A        0.7050   -7.0460   -2.6320 hc        1 B84      0.042700
     65 HN53       -2.7490   -3.3960   -4.1700 hn        1 B84      0.345500
     66 H60        -8.2520   -1.4370   -8.4770 ha        1 B84      0.162000
     67 H62        -5.9600   -0.9880   -7.4860 ha        1 B84      0.157000
     68 H67        -9.9350   -5.5470   -8.0210 h1        1 B84      0.051367
     69 H67A      -11.4030   -4.4750   -8.3150 h1        1 B84      0.051367
     70 H67B      -10.7160   -4.6610   -6.6160 h1        1 B84      0.051367
@<TRIPOS>BOND
     1    1    2 2   
     2    1    3 2   
     3    1    4 1   
     4    1   11 1   
     5    4    5 1   
     6    4    9 1   
     7    5    6 1   
     8    5   38 1   
     9    5   39 1   
    10    6    7 1   
    11    6   40 1   
    12    6   41 1   
    13    7    8 1   
    14    7   10 1   
    15    8    9 1   
    16    8   42 1   
    17    8   43 1   
    18    9   44 1   
    19    9   45 1   
    20   10   46 1   
    21   10   47 1   
    22   10   48 1   
    23   11   12 ar  
    24   11   16 ar  
    25   12   13 ar  
    26   12   49 1   
    27   13   14 ar  
    28   13   50 1   
    29   14   15 ar  
    30   14   17 1   
    31   15   16 ar  
    32   15   51 1   
    33   16   52 1   
    34   17   18 1   
    35   17   24 1   
    36   17   53 1   
    37   18   19 1   
    38   18   54 1   
    39   18   55 1   
    40   19   20 1   
    41   19   23 1   
    42   19   56 1   
    43   20   21 1   
    44   20   57 1   
    45   20   58 1   
    46   21   22 1   
    47   21   59 1   
    48   21   60 1   
    49   22   23 1   
    50   22   61 1   
    51   22   62 1   
    52   23   63 1   
    53   23   64 1   
    54   24   25 2   
    55   24   26 1   
    56   26   27 1   
    57   26   65 1   
    58   27   28 1   
    59   27   35 2   
    60   28   29 1   
    61   29   30 ar  
    62   29   34 ar  
    63   30   31 ar  
    64   31   32 ar  
    65   31   36 1   
    66   32   33 ar  
    67   32   66 1   
    68   33   34 ar  
    69   33   67 1   
    70   34   35 1   
    71   36   37 1   
    72   37   68 1   
    73   37   69 1   
    74   37   70 1   
@<TRIPOS>SUBSTRUCTURE
     1 B84         1 TEMP              0 ****  ****    0 ROOT
