@<TRIPOS>MOLECULE
B85
   18    17     1     0     0
SMALL
bcc


@<TRIPOS>ATOM
      1 C1          0.1470   -0.2350    0.0250 ca        1 B85     -0.279000
      2 C2          1.5080   -0.4250   -0.0370 ca        1 B85     -0.075000
      3 C3          2.3150   -0.3310    1.1060 ca        1 B85     -0.374000
      4 C4          1.6990   -0.0100    2.3230 ca        1 B85     -0.075000
      5 C5          0.3410    0.1850    2.4140 ca        1 B85     -0.279000
      6 C6         -0.5190    0.0660    1.2660 ca        1 B85      0.124000
      7 C7         -1.8790    0.2040    1.3510 c2        1 B85     -0.609000
      8 P8         -3.6210    2.0540    1.1670 p3        1 B85      2.461000
      9 O9         -2.8500    3.2840    0.8880 o         1 B85     -1.160667
     10 O10        -4.3200    1.3820    0.0470 o         1 B85     -1.160667
     11 O11        -4.1170    1.8220    2.5440 o         1 B85     -1.160667
     12 H1         -0.4680   -0.2990   -0.8810 ha        1 B85      0.094000
     13 H2          1.9830   -0.6580   -1.0030 ha        1 B85      0.054000
     14 H3          3.3950   -0.4880    1.0460 ha        1 B85      0.065000
     15 H4          2.3250    0.0860    3.2240 ha        1 B85      0.054000
     16 H5         -0.1240    0.4490    3.3730 ha        1 B85      0.094000
     17 H7         -2.5140   -0.0200    0.4870 ha        1 B85      0.114000
     18 H7A        -2.3650    0.3040    2.3280 ha        1 B85      0.114000
@<TRIPOS>BOND
     1    1    2 1   
     2    1    6 1   
     3    1   12 1   
     4    2    3 1   
     5    2   13 1   
     6    3    4 1   
     7    3   14 1   
     8    4    5 1   
     9    4   15 1   
    10    5    6 1   
    11    5   16 1   
    12    6    7 1   
    13    7   17 1   
    14    7   18 1   
    15    8    9 1   
    16    8   10 1   
    17    8   11 1   
@<TRIPOS>SUBSTRUCTURE
     1 B85         1 TEMP              0 ****  ****    0 ROOT
