@<TRIPOS>MOLECULE
B85
   18    17     1     0     0
SMALL
bcc


@<TRIPOS>ATOM
      1 C1          0.1150   -0.3100    0.0510 ca        1 B85     -0.279000
      2 C2          1.4730   -0.5110   -0.0330 ca        1 B85     -0.075000
      3 C3          2.3080   -0.3520    1.0810 ca        1 B85     -0.374000
      4 C4          1.7250    0.0460    2.2920 ca        1 B85     -0.075000
      5 C5          0.3700    0.2550    2.4050 ca        1 B85     -0.279000
      6 C6         -0.5190    0.0700    1.2870 ca        1 B85      0.124000
      7 C7         -1.8760    0.2210    1.3980 c2        1 B85     -0.609000
      8 P8         -3.6140    2.0670    1.1440 p3        1 B85      2.461000
      9 O9         -2.8450    3.2720    0.7660 o         1 B85     -1.160667
     10 O10        -4.3460    1.3290    0.0870 o         1 B85     -1.160667
     11 O11        -4.0730    1.9260    2.5460 o         1 B85     -1.160667
     12 H1         -0.5230   -0.4260   -0.8340 ha        1 B85      0.094000
     13 H2          1.9220   -0.8050   -0.9940 ha        1 B85      0.054000
     14 H3          3.3860   -0.5190    1.0050 ha        1 B85      0.065000
     15 H4          2.3740    0.1940    3.1700 ha        1 B85      0.054000
     16 H5         -0.0690    0.5800    3.3560 ha        1 B85      0.094000
     17 H7         -2.5330   -0.0510    0.5650 ha        1 B85      0.114000
     18 H7A        -2.3370    0.3840    2.3780 ha        1 B85      0.114000
@<TRIPOS>BOND
     1    1    2 1   
     2    1    6 1   
     3    1   12 1   
     4    2    3 1   
     5    2   13 1   
     6    3    4 1   
     7    3   14 1   
     8    4    5 1   
     9    4   15 1   
    10    5    6 1   
    11    5   16 1   
    12    6    7 1   
    13    7   17 1   
    14    7   18 1   
    15    8    9 1   
    16    8   10 1   
    17    8   11 1   
@<TRIPOS>SUBSTRUCTURE
     1 B85         1 TEMP              0 ****  ****    0 ROOT
