@<TRIPOS>MOLECULE
B85
   18    15     1     0     0
SMALL
bcc


@<TRIPOS>ATOM
      1 C1          0.4900    0.3960   -1.1980 c1        1 B85     -0.221500
      2 C2          1.8740    0.3360   -1.2460 c1        1 B85     -0.143250
      3 C3          2.6060    0.2710   -0.0710 c1        1 B85     -0.143250
      4 C4          1.9540    0.2670    1.1530 c1        1 B85     -0.143250
      5 C5          0.5700    0.3270    1.2000 c1        1 B85     -0.143250
      6 C6         -0.1620    0.3910    0.0250 c1        1 B85      0.150900
      7 C7         -1.6690    0.5030    0.0780 c3        1 B85     -0.149500
      8 P8         -2.4020   -1.1570    0.0200 p5        1 B85      1.094700
      9 O9         -1.7210   -1.9700   -1.0560 o         1 B85     -0.841167
     10 O10        -3.8750   -1.0470   -0.2890 o         1 B85     -0.841167
     11 O11        -2.2170   -1.8360    1.3560 o         1 B85     -0.841167
     12 H1         -0.0260    0.4190   -2.0260 ha        1 B85      0.036500
     13 H2          2.3340    0.3390   -2.1070 ha        1 B85      0.009250
     14 H3          3.5810    0.2430   -0.1040 ha        1 B85      0.009250
     15 H4          2.4690    0.2220    1.9800 ha        1 B85      0.009250
     16 H5          0.1110    0.3240    2.0620 ha        1 B85      0.009250
     17 H7         -1.9850    1.0250   -0.6860 hc        1 B85      0.074700
     18 H7A        -1.9340    0.9470    0.9080 hc        1 B85      0.074700
@<TRIPOS>BOND
     1    1    6 3   
     2    1   12 1   
     3    2    3 3   
     4    2   13 1   
     5    3   14 1   
     6    4    5 3   
     7    4   15 1   
     8    5   16 1   
     9    6    7 1   
    10    7    8 1   
    11    7   17 1   
    12    7   18 1   
    13    8    9 1   
    14    8   10 1   
    15    8   11 1   
@<TRIPOS>SUBSTRUCTURE
     1 B85         1 TEMP              0 ****  ****    0 ROOT
