@<TRIPOS>MOLECULE
B85
   18    17     1     0     0
SMALL
bcc


@<TRIPOS>ATOM
      1 C1          1.7580   -1.2160    0.4380 ca        1 B85     -0.279000
      2 C2          3.0830   -1.2380    0.0720 ca        1 B85     -0.075000
      3 C3          3.7780   -0.0610   -0.2410 ca        1 B85     -0.374000
      4 C4          3.0760    1.1520   -0.1950 ca        1 B85     -0.075000
      5 C5          1.7510    1.2030    0.1680 ca        1 B85     -0.279000
      6 C6          1.0170    0.0160    0.5240 ca        1 B85      0.124000
      7 C7         -0.2880    0.0590    0.9400 c2        1 B85     -0.609000
      8 P8         -2.6170   -0.0620   -0.0840 p3        1 B85      2.461000
      9 O9         -2.3930   -0.2240   -1.5360 o         1 B85     -1.160667
     10 O10        -2.9850   -1.2540    0.7160 o         1 B85     -1.160667
     11 O11        -2.9920    1.2750    0.4340 o         1 B85     -1.160667
     12 H1          1.2250   -2.1470    0.6660 ha        1 B85      0.094000
     13 H2          3.6190   -2.1990    0.0200 ha        1 B85      0.054000
     14 H3          4.8330   -0.0900   -0.5260 ha        1 B85      0.065000
     15 H4          3.6060    2.0810   -0.4570 ha        1 B85      0.054000
     16 H5          1.2120    2.1590    0.1860 ha        1 B85      0.094000
     17 H7         -0.7760   -0.8430    1.3250 ha        1 B85      0.114000
     18 H7A        -0.7810    1.0200    1.1170 ha        1 B85      0.114000
@<TRIPOS>BOND
     1    1    2 1   
     2    1    6 1   
     3    1   12 1   
     4    2    3 1   
     5    2   13 1   
     6    3    4 1   
     7    3   14 1   
     8    4    5 1   
     9    4   15 1   
    10    5    6 1   
    11    5   16 1   
    12    6    7 1   
    13    7   17 1   
    14    7   18 1   
    15    8    9 1   
    16    8   10 1   
    17    8   11 1   
@<TRIPOS>SUBSTRUCTURE
     1 B85         1 TEMP              0 ****  ****    0 ROOT
