@<TRIPOS>MOLECULE
B86
   29    28     1     0     0
SMALL
bcc


@<TRIPOS>ATOM
      1 C1         -2.1580    0.8920   -3.1370 c1        1 B86      0.229000
      2 N2         -0.7660    0.5200   -3.1240 n1        1 B86     -0.291000
      3 C3         -0.0530    0.4040   -1.8560 c1        1 B86      0.360000
      4 N4         -0.7740    0.6220   -0.5710 n3        1 B86     -0.281000
      5 C5         -2.1610    0.9080   -0.5750 c2        1 B86      0.033000
      6 C6         -2.8710    1.1110   -1.8660 c1        1 B86     -0.128000
      7 N7         -2.8720    0.9590   -4.3800 n3        1 B86     -0.357000
      8 F8         -4.1750    1.4250   -1.8730 f         1 B86     -0.097000
      9 O9          1.1480    0.1750   -1.8510 o         1 B86     -0.352000
     10 C10        -0.0400    0.6040    0.6920 c3        1 B86      0.161000
     11 O11         1.5070    0.2190    0.4380 os        1 B86     -0.290000
     12 C12         1.9450   -0.2440    1.5540 c3        1 B86     -0.011000
     13 C13         0.7070   -0.8150    2.2610 c3        1 B86      0.013000
     14 O13         0.6510   -0.3760    3.5330 oh        1 B86     -0.321000
     15 C14        -0.5100   -0.2920    1.4590 c3        1 B86     -0.212000
     16 C15         2.9810   -1.3610    1.3060 c3        1 B86     -0.037000
     17 O16         4.1850   -0.7900    0.8450 oh        1 B86     -0.323000
     18 H5         -2.6420    1.0550    0.2870 h4        1 B86      0.173000
     19 HN7        -2.4360    0.8460   -5.1530 hn        1 B86      0.247500
     20 HN7A       -3.7570    1.1180   -4.3820 hn        1 B86      0.247500
     21 H10        -0.1000    1.4860    1.1290 h2        1 B86      0.118000
     22 H12         2.3430    0.4780    2.0900 h1        1 B86      0.138000
     23 H13         0.7290   -1.8130    2.2410 h1        1 B86      0.120000
     24 HO13        0.5840   -1.0570    4.0720 ho        1 B86      0.206000
     25 H14        -1.2070    0.1120    2.0920 hc        1 B86      0.119500
     26 H14A       -0.9130   -1.0290    0.9250 hc        1 B86      0.119500
     27 H15         3.1540   -1.8650    2.1790 h1        1 B86      0.104500
     28 H15A        2.6520   -1.9540    0.6650 h1        1 B86      0.104500
     29 HO16        4.8470   -1.3370    1.0010 ho        1 B86      0.207000
@<TRIPOS>BOND
     1    1    2 1   
     2    1    7 1   
     3    3    4 1   
     4    3    9 1   
     5    4    5 1   
     6    4   10 1   
     7    5    6 1   
     8    5   18 1   
     9    6    8 1   
    10    7   19 1   
    11    7   20 1   
    12   10   11 1   
    13   10   15 1   
    14   10   21 1   
    15   11   12 1   
    16   12   13 1   
    17   12   16 1   
    18   12   22 1   
    19   13   14 1   
    20   13   15 1   
    21   13   23 1   
    22   14   24 1   
    23   15   25 1   
    24   15   26 1   
    25   16   17 1   
    26   16   27 1   
    27   16   28 1   
    28   17   29 1   
@<TRIPOS>SUBSTRUCTURE
     1 B86         1 TEMP              0 ****  ****    0 ROOT
