@<TRIPOS>MOLECULE
B86
   30    31     1     0     0
SMALL
bcc


@<TRIPOS>ATOM
      1 C1          0.5590    0.3640    0.2200 cc        1 B86      0.589500
      2 N2          1.7410   -0.2030    0.2560 nd        1 B86     -0.602100
      3 C3          2.2800   -0.6000    1.5210 c         1 B86      0.841900
      4 N4          1.4950   -0.3960    2.7140 n         1 B86     -0.335000
      5 C5          0.2800    0.2160    2.6170 cd        1 B86      0.108600
      6 C6         -0.2660    0.5920    1.3880 cc        1 B86     -0.163100
      7 N7          0.0350    0.8200   -1.0930 n4        1 B86     -0.798600
      8 F8         -1.4890    1.1560    1.2850 f         1 B86     -0.135500
      9 O9          3.3970   -1.1270    1.5580 o         1 B86     -0.523500
     10 C10         2.0500   -0.5770    4.0840 c3        1 B86      0.298500
     11 O11         2.6080    0.6550    4.5260 os        1 B86     -0.404600
     12 C12         4.0460    0.6170    4.4380 c3        1 B86      0.086100
     13 C13         4.4580   -0.8700    4.3650 c3        1 B86      0.129100
     14 O13         5.1230   -1.1710    5.5740 oh        1 B86     -0.582800
     15 C14         3.1370   -1.6520    4.2480 c3        1 B86     -0.142400
     16 C15         4.4890    1.4250    3.2140 c3        1 B86      0.105400
     17 O16         3.4160    2.1860    2.6940 oh        1 B86     -0.612800
     18 H5         -0.2860    0.4120    3.5540 h4        1 B86      0.214000
     19 HN7         0.1650    1.8380   -1.1570 hn        1 B86      0.483467
     20 HN7A        0.5280    0.3640   -1.8740 hn        1 B86      0.483467
     21 H10         1.1620   -0.7720    4.7590 h2        1 B86      0.107700
     22 H12         4.4030    1.0880    5.3960 h1        1 B86      0.119700
     23 H13         5.1190   -1.0720    3.4800 h1        1 B86      0.078700
     24 HO13        5.5790   -2.0130    5.4500 ho        1 B86      0.421000
     25 H14         2.9360   -2.2050    5.2030 hc        1 B86      0.096700
     26 H14A        3.1680   -2.3910    3.4130 hc        1 B86      0.096700
     27 H15         5.3470    2.0910    3.4930 h1        1 B86      0.070700
     28 H15A        4.7930    0.7560    2.3610 h1        1 B86      0.070700
     29 HO16        3.1090    2.7680    3.4010 ho        1 B86      0.415000
     30 H73        -0.9690    0.6010   -1.1350 hn        1 B86      0.483467
@<TRIPOS>BOND
     1    1    2 2   
     2    1    6 1   
     3    1    7 1   
     4    2    3 1   
     5    3    4 1   
     6    3    9 2   
     7    4    5 1   
     8    4   10 1   
     9    5    6 2   
    10    5   18 1   
    11    6    8 1   
    12    7   19 1   
    13    7   20 1   
    14    7   30 1   
    15   10   11 1   
    16   10   15 1   
    17   10   21 1   
    18   11   12 1   
    19   12   13 1   
    20   12   16 1   
    21   12   22 1   
    22   13   14 1   
    23   13   15 1   
    24   13   23 1   
    25   14   24 1   
    26   15   25 1   
    27   15   26 1   
    28   16   17 1   
    29   16   27 1   
    30   16   28 1   
    31   17   29 1   
@<TRIPOS>SUBSTRUCTURE
     1 B86         1 TEMP              0 ****  ****    0 ROOT
