@<TRIPOS>MOLECULE
B86
   30    31     1     0     0
SMALL
bcc


@<TRIPOS>ATOM
      1 C1          0.5440    0.2980    0.2260 cc        1 B86      0.589500
      2 N2          1.7450   -0.2310    0.2570 nd        1 B86     -0.602100
      3 C3          2.2990   -0.6120    1.5200 c         1 B86      0.841900
      4 N4          1.5120   -0.4360    2.7150 n         1 B86     -0.335000
      5 C5          0.2770    0.1370    2.6230 cd        1 B86      0.108600
      6 C6         -0.2850    0.4970    1.3960 cc        1 B86     -0.163100
      7 N7          0.0020    0.7400   -1.0850 n4        1 B86     -0.798600
      8 F8         -1.5250    1.0220    1.2980 f         1 B86     -0.135500
      9 O9          3.4330   -1.1030    1.5530 o         1 B86     -0.523500
     10 C10         2.0760   -0.6020    4.0840 c3        1 B86      0.298500
     11 O11         2.5950    0.6470    4.5260 os        1 B86     -0.404600
     12 C12         4.0340    0.6550    4.4340 c3        1 B86      0.086100
     13 C13         4.4920   -0.8180    4.3580 c3        1 B86      0.129100
     14 O13         5.1710   -1.1000    5.5650 oh        1 B86     -0.582800
     15 C14         3.1970   -1.6420    4.2420 c3        1 B86     -0.142400
     16 C15         4.4470    1.4790    3.2110 c3        1 B86      0.105400
     17 O16         3.3490    2.2070    2.6950 oh        1 B86     -0.612800
     18 H5         -0.2920    0.3120    3.5620 h4        1 B86      0.214000
     19 HN7         0.0960    1.7620   -1.1460 hn        1 B86      0.483467
     20 HN7A        0.5100    0.3030   -1.8680 hn        1 B86      0.483467
     21 H10         1.1960   -0.8260    4.7600 h2        1 B86      0.107700
     22 H12         4.3770    1.1360    5.3920 h1        1 B86      0.119700
     23 H13         5.1580   -0.9970    3.4700 h1        1 B86      0.078700
     24 HO13        5.6520   -1.9270    5.4370 ho        1 B86      0.421000
     25 H14         3.0170   -2.2030    5.1970 hc        1 B86      0.096700
     26 H14A        3.2490   -2.3780    3.4060 hc        1 B86      0.096700
     27 H15         5.2840    2.1720    3.4890 h1        1 B86      0.070700
     28 H15A        4.7700    0.8220    2.3560 h1        1 B86      0.070700
     29 HO16        3.0250    2.7770    3.4040 ho        1 B86      0.415000
     30 H73        -0.9930    0.4850   -1.1270 hn        1 B86      0.483467
@<TRIPOS>BOND
     1    1    2 2   
     2    1    6 1   
     3    1    7 1   
     4    2    3 1   
     5    3    4 1   
     6    3    9 2   
     7    4    5 1   
     8    4   10 1   
     9    5    6 2   
    10    5   18 1   
    11    6    8 1   
    12    7   19 1   
    13    7   20 1   
    14    7   30 1   
    15   10   11 1   
    16   10   15 1   
    17   10   21 1   
    18   11   12 1   
    19   12   13 1   
    20   12   16 1   
    21   12   22 1   
    22   13   14 1   
    23   13   15 1   
    24   13   23 1   
    25   14   24 1   
    26   15   25 1   
    27   15   26 1   
    28   16   17 1   
    29   16   27 1   
    30   16   28 1   
    31   17   29 1   
@<TRIPOS>SUBSTRUCTURE
     1 B86         1 TEMP              0 ****  ****    0 ROOT
