@<TRIPOS>MOLECULE
B86
   30    31     1     0     0
SMALL
bcc


@<TRIPOS>ATOM
      1 C1          0.5720    0.3280    0.2070 cc        1 B86      0.589500
      2 N2          1.7710   -0.2020    0.2470 nd        1 B86     -0.602100
      3 C3          2.3120   -0.5930    1.5140 c         1 B86      0.841900
      4 N4          1.5110   -0.4250    2.7010 n         1 B86     -0.335000
      5 C5          0.2780    0.1490    2.5990 cd        1 B86      0.108600
      6 C6         -0.2700    0.5180    1.3700 cc        1 B86     -0.163100
      7 N7          0.0440    0.7790   -1.1070 nz        1 B86     -0.798600
      8 F8         -1.5090    1.0440    1.2610 f         1 B86     -0.135500
      9 O9          3.4450   -1.0850    1.5560 o         1 B86     -0.523500
     10 C10         2.0600   -0.6020    4.0750 c3        1 B86      0.298500
     11 O11         2.5750    0.6440    4.5320 os        1 B86     -0.404600
     12 C12         4.0140    0.6520    4.4560 c3        1 B86      0.086100
     13 C13         4.4730   -0.8200    4.3740 c3        1 B86      0.129100
     14 O13         5.1380   -1.1110    5.5860 oh        1 B86     -0.582800
     15 C14         3.1790   -1.6430    4.2380 c3        1 B86     -0.142400
     16 C15         4.4410    1.4850    3.2440 c3        1 B86      0.105400
     17 O16         3.3490    2.2170    2.7210 oh        1 B86     -0.612800
     18 H5         -0.3020    0.3170    3.5340 h4        1 B86      0.214000
     19 HN7         0.1390    1.8020   -1.1590 hn        1 B86      0.483467
     20 HN7A       -0.9510    0.5250   -1.1610 hn        1 B86      0.483467
     21 H10         1.1730   -0.8310    4.7400 h2        1 B86      0.107700
     22 H12         4.3470    1.1260    5.4210 h1        1 B86      0.119700
     23 H13         5.1480   -0.9930    3.4930 h1        1 B86      0.078700
     24 HO13        5.6210   -1.9370    5.4580 ho        1 B86      0.421000
     25 H14         3.2410   -2.3730    3.3970 hc        1 B86      0.096700
     26 H14A        2.9890   -2.2110    5.1860 hc        1 B86      0.096700
     27 H15         5.2750    2.1760    3.5360 h1        1 B86      0.070700
     28 H15A        4.7740    0.8350    2.3880 h1        1 B86      0.070700
     29 HO16        3.0170    2.7820    3.4310 ho        1 B86      0.415000
     30 H73         0.5610    0.3490   -1.8870 hn        1 B86      0.483467
@<TRIPOS>BOND
     1    1    2 2   
     2    1    6 1   
     3    1    7 1   
     4    2    3 1   
     5    3    4 1   
     6    3    9 2   
     7    4    5 1   
     8    4   10 1   
     9    5    6 2   
    10    5   18 1   
    11    6    8 1   
    12    7   19 1   
    13    7   20 1   
    14    7   30 1   
    15   10   11 1   
    16   10   15 1   
    17   10   21 1   
    18   11   12 1   
    19   12   13 1   
    20   12   16 1   
    21   12   22 1   
    22   13   14 1   
    23   13   15 1   
    24   13   23 1   
    25   14   24 1   
    26   15   25 1   
    27   15   26 1   
    28   16   17 1   
    29   16   27 1   
    30   16   28 1   
    31   17   29 1   
@<TRIPOS>SUBSTRUCTURE
     1 B86         1 TEMP              0 ****  ****    0 ROOT
