@<TRIPOS>MOLECULE
B86
   29    30     1     0     0
SMALL
bcc


@<TRIPOS>ATOM
      1 C1          2.8290   -0.8920   -0.4050 cc        1 B86      0.755500
      2 N2          1.8160   -0.9640   -1.2800 nd        1 B86     -0.718100
      3 C3          0.6260   -0.2680   -1.0320 c         1 B86      0.841900
      4 N4          0.4970    0.5750    0.1380 n         1 B86     -0.388000
      5 C5          1.5200    0.5860    1.0550 cd        1 B86      0.035600
      6 C6          2.6980   -0.0980    0.8360 cc        1 B86     -0.152100
      7 N7          4.0100   -1.5410   -0.6520 nh        1 B86     -0.918800
      8 F8          3.7080   -0.0570    1.7360 f         1 B86     -0.159500
      9 O9         -0.3410   -0.3440   -1.8170 o         1 B86     -0.627500
     10 C10        -0.7360    1.2860    0.4830 c3        1 B86      0.309500
     11 O11        -1.6410    0.4190    1.1830 os        1 B86     -0.433600
     12 C12        -2.8100    0.1390    0.3950 c3        1 B86      0.100100
     13 C13        -2.7650    1.0360   -0.8560 c3        1 B86      0.124100
     14 O13        -3.9430    1.8240   -0.8530 oh        1 B86     -0.593800
     15 C14        -1.5090    1.9020   -0.6980 c3        1 B86     -0.133400
     16 C15        -2.8230   -1.3460    0.0370 c3        1 B86      0.113400
     17 O16        -2.8710   -2.1490    1.1980 oh        1 B86     -0.595800
     18 H5          1.3780    1.1740    1.9820 h4        1 B86      0.173000
     19 HN7         4.1090   -2.1280   -1.4440 hn        1 B86      0.452300
     20 HN7A        4.7040   -1.5470    0.0530 hn        1 B86      0.452300
     21 H10        -0.4600    2.0830    1.2400 h2        1 B86      0.078700
     22 H12        -3.6830    0.3960    1.0560 h1        1 B86      0.098700
     23 H13        -2.7040    0.4170   -1.7920 h1        1 B86      0.080700
     24 HO13       -3.9780    2.2730   -1.7060 ho        1 B86      0.407000
     25 H14        -1.7930    2.9520   -0.4330 hc        1 B86      0.080200
     26 H14A       -0.9130    1.9200   -1.6430 hc        1 B86      0.080200
     27 H15        -3.7610   -1.5930   -0.5280 h1        1 B86      0.065200
     28 H15A       -1.9210   -1.6030   -0.5820 h1        1 B86      0.065200
     29 HO16       -2.1140   -1.8990    1.7440 ho        1 B86      0.408000
@<TRIPOS>BOND
     1    1    2 2   
     2    1    6 1   
     3    1    7 1   
     4    2    3 1   
     5    3    4 1   
     6    3    9 2   
     7    4    5 1   
     8    4   10 1   
     9    5    6 2   
    10    5   18 1   
    11    6    8 1   
    12    7   19 1   
    13    7   20 1   
    14   10   11 1   
    15   10   15 1   
    16   10   21 1   
    17   11   12 1   
    18   12   13 1   
    19   12   16 1   
    20   12   22 1   
    21   13   14 1   
    22   13   15 1   
    23   13   23 1   
    24   14   24 1   
    25   15   25 1   
    26   15   26 1   
    27   16   17 1   
    28   16   27 1   
    29   16   28 1   
    30   17   29 1   
@<TRIPOS>SUBSTRUCTURE
     1 B86         1 TEMP              0 ****  ****    0 ROOT
