@<TRIPOS>MOLECULE
B87
   54    58     1     0     0
SMALL
bcc


@<TRIPOS>ATOM
      1 C1          1.3960    1.0260   -0.1590 c3        1 B87     -0.091400
      2 C2          1.4920   -0.4690    0.1830 c3        1 B87      0.086500
      3 N3          1.8540   -0.5790    1.5880 n         1 B87     -0.459800
      4 C4          1.9590    0.7260    2.2130 c3        1 B87      0.086500
      5 C5          1.6720    1.7850    1.1350 c3        1 B87     -0.091400
      6 C6          2.4420   -1.7210    2.0850 c         1 B87      0.661100
      7 O7          2.5350   -2.7510    1.3870 o         1 B87     -0.614100
      8 C8          2.9020   -1.7450    3.5510 c3        1 B87      0.102800
      9 N9          4.2840   -1.3110    3.6750 n3        1 B87     -0.731600
     10 C10         4.6330   -0.9600    5.0450 c3        1 B87      0.158300
     11 C11         6.0950   -0.4850    5.1830 c3        1 B87      0.191800
     12 N12         7.0430   -1.4110    4.5810 nh        1 B87     -0.738300
     13 C13         6.6870   -1.7960    3.2220 c3        1 B87      0.191800
     14 C14         5.2240   -2.2700    3.1110 c3        1 B87      0.158300
     15 C15         8.4180   -1.1710    4.8130 ca        1 B87      0.667200
     16 C16         9.3870   -2.1200    4.3620 ca        1 B87     -0.398600
     17 C17        10.7430   -1.9050    4.6880 ca        1 B87      0.549100
     18 N18        11.1390   -0.8210    5.4160 nb        1 B87     -0.717000
     19 C19        10.1470    0.0170    5.8000 ca        1 B87      0.662900
     20 N20         8.8220   -0.0770    5.5440 nb        1 B87     -0.754000
     21 C21        11.7360   -2.8660    4.2360 cc        1 B87     -0.181200
     22 S22        11.2920   -4.2660    3.3680 ss        1 B87      0.022500
     23 C23        12.8800   -4.8090    3.2240 ca        1 B87     -0.065100
     24 C24        13.7850   -3.9070    3.8520 ca        1 B87     -0.096800
     25 C25        13.0940   -2.7870    4.4320 cd        1 B87     -0.062200
     26 C26        13.3660   -5.9650    2.6000 ca        1 B87     -0.101000
     27 C27        14.7280   -6.2130    2.6050 ca        1 B87     -0.112000
     28 C28        15.6240   -5.3210    3.2260 ca        1 B87     -0.137000
     29 C29        15.1620   -4.1740    3.8470 ca        1 B87     -0.081000
     30 H1          2.1430    1.2920   -0.9450 hc        1 B87      0.052450
     31 H1A         0.3800    1.2660   -0.5560 hc        1 B87      0.052450
     32 H2          0.5050   -0.9830    0.0240 h1        1 B87      0.053200
     33 H2A         2.2570   -0.9900   -0.4580 h1        1 B87      0.053200
     34 H4          1.2020    0.7950    3.0440 h1        1 B87      0.053200
     35 H4A         2.9800    0.8810    2.6580 h1        1 B87      0.053200
     36 H5          0.7920    2.4060    1.4300 hc        1 B87      0.052450
     37 H5A         2.5500    2.4660    1.0200 hc        1 B87      0.052450
     38 H8          2.7480   -2.8050    3.9120 h1        1 B87      0.059700
     39 H8A         2.2510   -1.0680    4.1710 h1        1 B87      0.059700
     40 H10         4.4600   -1.8210    5.7540 h1        1 B87      0.049700
     41 H10A        3.9730   -0.1060    5.3670 h1        1 B87      0.049700
     42 H11         6.3180   -0.4080    6.2850 h1        1 B87      0.055700
     43 H11A        6.1880    0.5440    4.7300 h1        1 B87      0.055700
     44 H13         6.8490   -0.9360    2.5090 h1        1 B87      0.055700
     45 H13A        7.3380   -2.6520    2.8930 h1        1 B87      0.055700
     46 H14         5.1320   -3.2820    3.6030 h1        1 B87      0.049700
     47 H14A        4.9790   -2.3940    2.0180 h1        1 B87      0.049700
     48 H16         9.0960   -3.0140    3.7950 ha        1 B87      0.157000
     49 H19        10.4590    0.9020    6.3950 h5        1 B87      0.053100
     50 H25        13.6110   -1.9810    4.9620 ha        1 B87      0.175000
     51 H26        12.6690   -6.6640    2.1150 ha        1 B87      0.138000
     52 H27        15.1220   -7.1180    2.1180 ha        1 B87      0.134000
     53 H28        16.7010   -5.5470    3.2120 ha        1 B87      0.135000
     54 H29        15.8550   -3.4730    4.3340 ha        1 B87      0.139000
@<TRIPOS>BOND
     1    1    2 1   
     2    1    5 1   
     3    1   30 1   
     4    1   31 1   
     5    2    3 1   
     6    2   32 1   
     7    2   33 1   
     8    3    4 1   
     9    3    6 1   
    10    4    5 1   
    11    4   34 1   
    12    4   35 1   
    13    5   36 1   
    14    5   37 1   
    15    6    7 2   
    16    6    8 1   
    17    8    9 1   
    18    8   38 1   
    19    8   39 1   
    20    9   10 1   
    21    9   14 1   
    22   10   11 1   
    23   10   40 1   
    24   10   41 1   
    25   11   12 1   
    26   11   42 1   
    27   11   43 1   
    28   12   13 1   
    29   12   15 1   
    30   13   14 1   
    31   13   44 1   
    32   13   45 1   
    33   14   46 1   
    34   14   47 1   
    35   15   16 ar  
    36   15   20 ar  
    37   16   17 ar  
    38   16   48 1   
    39   17   18 ar  
    40   17   21 1   
    41   18   19 ar  
    42   19   20 ar  
    43   19   49 1   
    44   21   22 1   
    45   21   25 2   
    46   22   23 1   
    47   23   24 ar  
    48   23   26 ar  
    49   24   25 1   
    50   24   29 ar  
    51   25   50 1   
    52   26   27 ar  
    53   26   51 1   
    54   27   28 ar  
    55   27   52 1   
    56   28   29 ar  
    57   28   53 1   
    58   29   54 1   
@<TRIPOS>SUBSTRUCTURE
     1 B87         1 TEMP              0 ****  ****    0 ROOT
