@<TRIPOS>MOLECULE
B87
   54    58     1     0     0
SMALL
bcc


@<TRIPOS>ATOM
      1 C1          1.3630    0.9320   -0.1720 c3        1 B87     -0.091400
      2 C2          1.4520   -0.5470    0.2340 c3        1 B87      0.087000
      3 N3          1.8370   -0.5980    1.6350 n         1 B87     -0.459800
      4 C4          1.9670    0.7320    2.2010 c3        1 B87      0.087000
      5 C5          1.6710    1.7450    1.0810 c3        1 B87     -0.091400
      6 C6          2.4220   -1.7240    2.1730 c         1 B87      0.661100
      7 O7          2.4910   -2.7850    1.5200 o         1 B87     -0.614100
      8 C8          2.9080   -1.6880    3.6310 c3        1 B87      0.102800
      9 N9          4.2960   -1.2620    3.7120 n3        1 B87     -0.731600
     10 C10         4.6730   -0.8580    5.0590 c3        1 B87      0.158300
     11 C11         6.1410   -0.3920    5.1510 c3        1 B87      0.191800
     12 N12         7.0700   -1.3520    4.5710 nh        1 B87     -0.738300
     13 C13         6.6860   -1.7900    3.2360 c3        1 B87      0.191800
     14 C14         5.2170   -2.2540    3.1710 c3        1 B87      0.158300
     15 C15         8.4510   -1.1150    4.7680 ca        1 B87      0.667200
     16 C16         9.4030   -2.0920    4.3400 ca        1 B87     -0.399600
     17 C17        10.7670   -1.8760    4.6320 ca        1 B87      0.549100
     18 N18        11.1870   -0.7670    5.3060 nb        1 B87     -0.717000
     19 C19        10.2090    0.0970    5.6720 ca        1 B87      0.662900
     20 N20         8.8780    0.0040    5.4440 nb        1 B87     -0.754000
     21 C21        11.7430   -2.8640    4.2020 cc        1 B87     -0.181200
     22 S22        11.2700   -4.2970    3.4040 ss        1 B87      0.022500
     23 C23        12.8510   -4.8590    3.2520 ca        1 B87     -0.065100
     24 C24        13.7750   -3.9400    3.8230 ca        1 B87     -0.096800
     25 C25        13.1040   -2.7900    4.3680 cd        1 B87     -0.062200
     26 C26        13.3140   -6.0450    2.6700 ca        1 B87     -0.101000
     27 C27        14.6740   -6.3060    2.6590 ca        1 B87     -0.112000
     28 C28        15.5890   -5.3970    3.2230 ca        1 B87     -0.137000
     29 C29        15.1500   -4.2200    3.8040 ca        1 B87     -0.081000
     30 H1          0.3430    1.1650   -0.5620 hc        1 B87      0.052450
     31 H1A         2.0990    1.1550   -0.9830 hc        1 B87      0.052450
     32 H2          2.1990   -1.1040   -0.3960 h1        1 B87      0.053200
     33 H2A         0.4570   -1.0580    0.1150 h1        1 B87      0.053200
     34 H4          1.2260    0.8460    3.0400 h1        1 B87      0.053200
     35 H4A         2.9970    0.8960    2.6200 h1        1 B87      0.053200
     36 H5          2.5530    2.4100    0.9200 hc        1 B87      0.052450
     37 H5A         0.8020    2.3880    1.3640 hc        1 B87      0.052450
     38 H8          2.7510   -2.7290    4.0410 h1        1 B87      0.059700
     39 H8A         2.2750   -0.9770    4.2310 h1        1 B87      0.059700
     40 H10         4.5060   -1.6870    5.8070 h1        1 B87      0.049700
     41 H10A        4.0270    0.0150    5.3560 h1        1 B87      0.049700
     42 H11         6.3850   -0.2710    6.2440 h1        1 B87      0.055700
     43 H11A        6.2350    0.6160    4.6530 h1        1 B87      0.055700
     44 H13         6.8420   -0.9630    2.4850 h1        1 B87      0.055700
     45 H13A        7.3230   -2.6660    2.9320 h1        1 B87      0.055700
     46 H14         5.1240   -3.2430    3.7070 h1        1 B87      0.049700
     47 H14A        4.9500   -2.4220    2.0890 h1        1 B87      0.049700
     48 H16         9.0940   -3.0060    3.8160 ha        1 B87      0.157000
     49 H19        10.5400    1.0030    6.2230 h5        1 B87      0.053100
     50 H25        13.6390   -1.9670    4.8530 ha        1 B87      0.175000
     51 H26        12.6020   -6.7580    2.2280 ha        1 B87      0.138000
     52 H27        15.0510   -7.2340    2.2040 ha        1 B87      0.134000
     53 H28        16.6640   -5.6320    3.1990 ha        1 B87      0.135000
     54 H29        15.8580   -3.5050    4.2470 ha        1 B87      0.139000
@<TRIPOS>BOND
     1    1    2 1   
     2    1    5 1   
     3    1   30 1   
     4    1   31 1   
     5    2    3 1   
     6    2   32 1   
     7    2   33 1   
     8    3    4 1   
     9    3    6 1   
    10    4    5 1   
    11    4   34 1   
    12    4   35 1   
    13    5   36 1   
    14    5   37 1   
    15    6    7 2   
    16    6    8 1   
    17    8    9 1   
    18    8   38 1   
    19    8   39 1   
    20    9   10 1   
    21    9   14 1   
    22   10   11 1   
    23   10   40 1   
    24   10   41 1   
    25   11   12 1   
    26   11   42 1   
    27   11   43 1   
    28   12   13 1   
    29   12   15 1   
    30   13   14 1   
    31   13   44 1   
    32   13   45 1   
    33   14   46 1   
    34   14   47 1   
    35   15   16 ar  
    36   15   20 ar  
    37   16   17 ar  
    38   16   48 1   
    39   17   18 ar  
    40   17   21 1   
    41   18   19 ar  
    42   19   20 ar  
    43   19   49 1   
    44   21   22 1   
    45   21   25 2   
    46   22   23 1   
    47   23   24 ar  
    48   23   26 ar  
    49   24   25 1   
    50   24   29 ar  
    51   25   50 1   
    52   26   27 ar  
    53   26   51 1   
    54   27   28 ar  
    55   27   52 1   
    56   28   29 ar  
    57   28   53 1   
    58   29   54 1   
@<TRIPOS>SUBSTRUCTURE
     1 B87         1 TEMP              0 ****  ****    0 ROOT
