@<TRIPOS>MOLECULE
B87
   54    58     1     0     0
SMALL
bcc


@<TRIPOS>ATOM
      1 C1          7.8060    1.3750   -1.7520 c3        1 B87     -0.091400
      2 C2          7.0850    2.1990   -0.6740 c3        1 B87      0.086500
      3 N3          6.4740    1.2660    0.2590 n         1 B87     -0.459800
      4 C4          6.7720   -0.1100   -0.0900 c3        1 B87      0.086500
      5 C5          7.6250   -0.0910   -1.3710 c3        1 B87     -0.091400
      6 C6          5.4150    1.6460    1.0560 c         1 B87      0.661100
      7 O7          5.0560    2.8390    1.1190 o         1 B87     -0.614100
      8 C8          4.7370    0.5930    1.9460 c3        1 B87      0.102800
      9 N9          3.6290   -0.0450    1.2540 n3        1 B87     -0.731600
     10 C10         3.2120   -1.2830    1.8990 c3        1 B87      0.158300
     11 C11         2.0450   -1.9730    1.1630 c3        1 B87      0.191800
     12 N12         0.9330   -1.0700    0.9070 nh        1 B87     -0.738300
     13 C13         1.3410    0.1860    0.2910 c3        1 B87      0.191800
     14 C14         2.5050    0.8570    1.0470 c3        1 B87      0.158300
     15 C15        -0.2620   -1.6410    0.4080 ca        1 B87      0.667200
     16 C16        -1.4280   -0.8260    0.2660 ca        1 B87     -0.398600
     17 C17        -2.6320   -1.4400   -0.1450 ca        1 B87      0.549100
     18 N18        -2.7000   -2.7770   -0.4050 nb        1 B87     -0.717000
     19 C19        -1.5430   -3.4620   -0.2380 ca        1 B87      0.662900
     20 N20        -0.3330   -2.9890    0.1410 nb        1 B87     -0.754000
     21 C21        -3.8240   -0.6200   -0.2900 cc        1 B87     -0.181200
     22 S22        -3.8100    1.0480    0.0710 ss        1 B87      0.022500
     23 C23        -5.4350    1.2540   -0.3230 ca        1 B87     -0.065100
     24 C24        -6.0170    0.0250   -0.7430 ca        1 B87     -0.096800
     25 C25        -5.0590   -1.0480   -0.7140 cd        1 B87     -0.062200
     26 C26        -6.2120    2.4180   -0.2840 ca        1 B87     -0.101000
     27 C27        -7.5450    2.3530   -0.6570 ca        1 B87     -0.112000
     28 C28        -8.1210    1.1380   -1.0730 ca        1 B87     -0.137000
     29 C29        -7.3680   -0.0230   -1.1180 ca        1 B87     -0.081000
     30 H1          7.3660    1.5840   -2.7570 hc        1 B87      0.052450
     31 H1A         8.8890    1.6500   -1.7880 hc        1 B87      0.052450
     32 H2          7.8100    2.8480   -0.1110 h1        1 B87      0.053200
     33 H2A         6.3020    2.8700   -1.1240 h1        1 B87      0.053200
     34 H4          7.3430   -0.5860    0.7550 h1        1 B87      0.053200
     35 H4A         5.8300   -0.7010   -0.2520 h1        1 B87      0.053200
     36 H5          7.1100   -0.6550   -2.1860 hc        1 B87      0.052450
     37 H5A         8.6120   -0.5810   -1.1840 hc        1 B87      0.052450
     38 H8          5.4810   -0.1970    2.2460 h1        1 B87      0.059700
     39 H8A         4.4070    1.1360    2.8810 h1        1 B87      0.059700
     40 H10         4.0840   -1.9960    1.8870 h1        1 B87      0.049700
     41 H10A        2.9160   -1.1130    2.9750 h1        1 B87      0.049700
     42 H11         2.4340   -2.4210    0.2040 h1        1 B87      0.055700
     43 H11A        1.6830   -2.8110    1.8230 h1        1 B87      0.055700
     44 H13         1.6480    0.0220   -0.7820 h1        1 B87      0.055700
     45 H13A        0.4780    0.9070    0.3040 h1        1 B87      0.055700
     46 H14         2.1150    1.2680    2.0240 h1        1 B87      0.049700
     47 H14A        2.8680    1.7270    0.4290 h1        1 B87      0.049700
     48 H16        -1.4110    0.2480    0.4900 ha        1 B87      0.157000
     49 H19        -1.5880   -4.5530   -0.4450 h5        1 B87      0.053100
     50 H25        -5.3100   -2.0740   -1.0000 ha        1 B87      0.175000
     51 H26        -5.7660    3.3690    0.0400 ha        1 B87      0.138000
     52 H27        -8.1660    3.2610   -0.6310 ha        1 B87      0.134000
     53 H28        -9.1820    1.1190   -1.3630 ha        1 B87      0.135000
     54 H29        -7.8110   -0.9760   -1.4410 ha        1 B87      0.139000
@<TRIPOS>BOND
     1    1    2 1   
     2    1    5 1   
     3    1   30 1   
     4    1   31 1   
     5    2    3 1   
     6    2   32 1   
     7    2   33 1   
     8    3    4 1   
     9    3    6 1   
    10    4    5 1   
    11    4   34 1   
    12    4   35 1   
    13    5   36 1   
    14    5   37 1   
    15    6    7 2   
    16    6    8 1   
    17    8    9 1   
    18    8   38 1   
    19    8   39 1   
    20    9   10 1   
    21    9   14 1   
    22   10   11 1   
    23   10   40 1   
    24   10   41 1   
    25   11   12 1   
    26   11   42 1   
    27   11   43 1   
    28   12   13 1   
    29   12   15 1   
    30   13   14 1   
    31   13   44 1   
    32   13   45 1   
    33   14   46 1   
    34   14   47 1   
    35   15   16 ar  
    36   15   20 ar  
    37   16   17 ar  
    38   16   48 1   
    39   17   18 ar  
    40   17   21 1   
    41   18   19 ar  
    42   19   20 ar  
    43   19   49 1   
    44   21   22 1   
    45   21   25 2   
    46   22   23 1   
    47   23   24 ar  
    48   23   26 ar  
    49   24   25 1   
    50   24   29 ar  
    51   25   50 1   
    52   26   27 ar  
    53   26   51 1   
    54   27   28 ar  
    55   27   52 1   
    56   28   29 ar  
    57   28   53 1   
    58   29   54 1   
@<TRIPOS>SUBSTRUCTURE
     1 B87         1 TEMP              0 ****  ****    0 ROOT
