@<TRIPOS>MOLECULE
B87
   54    50     1     0     0
SMALL
bcc


@<TRIPOS>ATOM
      1 C1         -5.6260    4.8490   -4.3660 c3        1 B87     -0.169000
      2 C2         -4.0920    4.5720   -4.2930 c3        1 B87     -0.028500
      3 N3         -3.9250    3.4230   -3.2820 n         1 B87     -0.319000
      4 C4         -5.0800    3.3060   -2.6960 c3        1 B87     -0.028500
      5 C5         -6.1770    3.8420   -3.7540 c3        1 B87     -0.169000
      6 C6         -2.7560    2.6560   -3.0410 c2        1 B87      0.306000
      7 O7         -1.7350    2.8810   -3.6750 o         1 B87     -0.373000
      8 C8         -2.7650    1.5830   -1.9730 c3        1 B87     -0.085000
      9 N9         -1.4140    1.1850   -1.6800 n3        1 B87     -0.257000
     10 C10        -1.0910    1.5410   -0.3380 c3        1 B87     -0.078500
     11 C11         0.2760    1.0050    0.0950 c3        1 B87     -0.045500
     12 N12         0.4160   -0.3820   -0.1510 n3        1 B87     -0.229000
     13 C13         0.0920   -0.7400   -1.4930 c3        1 B87     -0.045500
     14 C14        -1.2710   -0.2110   -1.9230 c3        1 B87     -0.078500
     15 C15         1.7940   -0.7950    0.1410 c2        1 B87      0.146000
     16 C16         2.0550   -1.5580    1.2290 c2        1 B87     -0.270000
     17 C17         3.3560   -1.8660    1.5570 c1        1 B87      0.110000
     18 N18         4.3690   -1.4080    0.7960 n1        1 B87     -0.191000
     19 C19         4.1120   -0.6480   -0.2870 c1        1 B87      0.001000
     20 N20         2.8100   -0.3380   -0.6180 n1        1 B87     -0.224000
     21 C21         3.6170   -2.6400    2.6360 c1        1 B87     -0.310000
     22 S22         3.3530   -4.1650    2.7680 ss        1 B87      0.485000
     23 C23         4.0200   -4.6490    4.1100 c1        1 B87     -0.292000
     24 C24         4.6360   -3.5080    4.7350 c1        1 B87     -0.085000
     25 C25         4.3830   -2.2160    3.7970 c1        1 B87     -0.074000
     26 C26         4.0520   -5.8920    4.7440 c1        1 B87     -0.102000
     27 C27         4.6870   -6.0290    5.9920 c1        1 B87     -0.124500
     28 C28         5.2960   -4.8980    6.6100 c1        1 B87     -0.124500
     29 C29         5.2650   -3.6460    5.9740 c1        1 B87     -0.081000
     30 H1         -5.9320    4.8870   -5.3280 hc        1 B87      0.091750
     31 H1A        -5.8350    5.6580   -3.9220 hc        1 B87      0.091750
     32 H2         -3.7550    4.2950   -5.1780 h1        1 B87      0.092250
     33 H2A        -3.6010    5.3970   -3.9730 h1        1 B87      0.092250
     34 H4         -5.1030    3.8320   -1.9050 h1        1 B87      0.092250
     35 H4A        -5.2500    2.3810   -2.4840 h1        1 B87      0.092250
     36 H5         -6.9740    4.1270   -3.2920 hc        1 B87      0.091750
     37 H5A        -6.3890    3.1590   -4.3770 hc        1 B87      0.091750
     38 H8         -3.2010    1.9450   -1.1320 h1        1 B87      0.099000
     39 H8A        -3.2730    0.8010   -2.2980 h1        1 B87      0.099000
     40 H10        -1.0870    2.5440   -0.2590 h1        1 B87      0.088750
     41 H10A       -1.7810    1.1750    0.2630 h1        1 B87      0.088750
     42 H11         0.3950    1.1720    1.0770 h1        1 B87      0.094750
     43 H11A        0.9480    1.4660   -0.3770 h1        1 B87      0.094750
     44 H13         0.7450   -0.3920   -2.0650 h1        1 B87      0.094750
     45 H13A        0.0910   -1.7160   -1.5680 h1        1 B87      0.094750
     46 H14        -1.3950   -0.3880   -2.9160 h1        1 B87      0.088750
     47 H14A       -1.9370   -0.6690   -1.4460 h1        1 B87      0.088750
     48 H16         1.3130   -1.8950    1.7880 ha        1 B87      0.155000
     49 H19         4.8550   -0.3150   -0.8410 ha        1 B87      0.191000
     50 H25         4.7340   -1.2900    3.9640 DU        1 B87      0.176000
     51 H26         3.6210   -6.6960    4.3070 ha        1 B87      0.138000
     52 H27         4.7080   -6.8940    6.4330 ha        1 B87      0.134500
     53 H28         5.7490   -4.9960    7.5000 ha        1 B87      0.134500
     54 H29         5.6990   -2.8400    6.4150 ha        1 B87      0.139000
@<TRIPOS>BOND
     1    1    2 1   
     2    1    5 1   
     3    1   30 1   
     4    1   31 1   
     5    2    3 1   
     6    2   32 1   
     7    2   33 1   
     8    3    4 1   
     9    3    6 1   
    10    4    5 1   
    11    4   34 1   
    12    4   35 1   
    13    5   36 1   
    14    5   37 1   
    15    6    7 1   
    16    6    8 1   
    17    8    9 1   
    18    8   38 1   
    19    8   39 1   
    20    9   10 1   
    21    9   14 1   
    22   10   11 1   
    23   10   40 1   
    24   10   41 1   
    25   11   12 1   
    26   11   42 1   
    27   11   43 1   
    28   12   13 1   
    29   12   15 1   
    30   13   14 1   
    31   13   44 1   
    32   13   45 1   
    33   14   46 1   
    34   14   47 1   
    35   15   16 1   
    36   15   20 1   
    37   16   17 1   
    38   16   48 1   
    39   18   19 1   
    40   19   49 1   
    41   21   22 1   
    42   21   25 1   
    43   22   23 1   
    44   23   26 1   
    45   24   29 1   
    46   26   51 1   
    47   27   28 1   
    48   27   52 1   
    49   28   53 1   
    50   29   54 1   
@<TRIPOS>SUBSTRUCTURE
     1 B87         1 TEMP              0 ****  ****    0 ROOT
