@<TRIPOS>MOLECULE
B87
   54    58     1     0     0
SMALL
bcc


@<TRIPOS>ATOM
      1 C1          1.3890    1.0320   -0.1430 c3        1 B87     -0.091400
      2 C2          1.4860   -0.4630    0.1960 c3        1 B87      0.086500
      3 N3          1.8510   -0.5750    1.5990 n         1 B87     -0.459800
      4 C4          1.9570    0.7290    2.2280 c3        1 B87      0.086500
      5 C5          1.6670    1.7900    1.1510 c3        1 B87     -0.091400
      6 C6          2.4410   -1.7180    2.0940 c         1 B87      0.661100
      7 O7          2.5320   -2.7470    1.3930 o         1 B87     -0.614100
      8 C8          2.9030   -1.7440    3.5580 c3        1 B87      0.102800
      9 N9          4.2850   -1.3110    3.6810 n3        1 B87     -0.731600
     10 C10         4.6370   -0.9610    5.0500 c3        1 B87      0.158300
     11 C11         6.0990   -0.4870    5.1860 c3        1 B87      0.191800
     12 N12         7.0460   -1.4130    4.5810 nh        1 B87     -0.738300
     13 C13         6.6870   -1.7960    3.2220 c3        1 B87      0.191800
     14 C14         5.2250   -2.2690    3.1130 c3        1 B87      0.158300
     15 C15         8.4220   -1.1730    4.8110 ca        1 B87      0.667200
     16 C16         9.3890   -2.1220    4.3570 ca        1 B87     -0.398600
     17 C17        10.7460   -1.9080    4.6810 ca        1 B87      0.549100
     18 N18        11.1450   -0.8250    5.4080 nb        1 B87     -0.717000
     19 C19        10.1530    0.0140    5.7940 ca        1 B87      0.662900
     20 N20         8.8270   -0.0800    5.5410 nb        1 B87     -0.754000
     21 C21        11.7380   -2.8690    4.2260 cc        1 B87     -0.181200
     22 S22        11.2910   -4.2690    3.3600 ss        1 B87      0.022500
     23 C23        12.8800   -4.8120    3.2110 ca        1 B87     -0.065100
     24 C24        13.7860   -3.9100    3.8360 ca        1 B87     -0.096800
     25 C25        13.0960   -2.7890    4.4180 cd        1 B87     -0.062200
     26 C26        13.3630   -5.9680    2.5870 ca        1 B87     -0.101000
     27 C27        14.7260   -6.2160    2.5870 ca        1 B87     -0.112000
     28 C28        15.6230   -5.3240    3.2050 ca        1 B87     -0.137000
     29 C29        15.1630   -4.1760    3.8270 ca        1 B87     -0.081000
     30 H1          0.3720    1.2740   -0.5380 hc        1 B87      0.052450
     31 H1A         2.1350    1.3000   -0.9310 hc        1 B87      0.052450
     32 H2          2.2500   -0.9820   -0.4470 h1        1 B87      0.053200
     33 H2A         0.4990   -0.9770    0.0380 h1        1 B87      0.053200
     34 H4          2.9780    0.8830    2.6710 h1        1 B87      0.053200
     35 H4A         1.2010    0.7960    3.0590 h1        1 B87      0.053200
     36 H5          2.5460    2.4710    1.0360 hc        1 B87      0.052450
     37 H5A         0.7880    2.4100    1.4490 hc        1 B87      0.052450
     38 H8          2.7500   -2.8050    3.9180 h1        1 B87      0.059700
     39 H8A         2.2540   -1.0680    4.1810 h1        1 B87      0.059700
     40 H10         4.4660   -1.8230    5.7590 h1        1 B87      0.049700
     41 H10A        3.9780   -0.1080    5.3750 h1        1 B87      0.049700
     42 H11         6.3240   -0.4110    6.2870 h1        1 B87      0.055700
     43 H11A        6.1910    0.5420    4.7340 h1        1 B87      0.055700
     44 H13         6.8480   -0.9350    2.5100 h1        1 B87      0.055700
     45 H13A        7.3380   -2.6520    2.8900 h1        1 B87      0.055700
     46 H14         5.1330   -3.2820    3.6040 h1        1 B87      0.049700
     47 H14A        4.9770   -2.3920    2.0210 h1        1 B87      0.049700
     48 H16         9.0970   -3.0160    3.7890 ha        1 B87      0.157000
     49 H19        10.4670    0.8980    6.3890 h5        1 B87      0.053100
     50 H25        13.6150   -1.9840    4.9460 ha        1 B87      0.175000
     51 H26        12.6660   -6.6680    2.1030 ha        1 B87      0.138000
     52 H27        15.1190   -7.1210    2.1000 ha        1 B87      0.134000
     53 H28        16.7000   -5.5490    3.1890 ha        1 B87      0.135000
     54 H29        15.8580   -3.4750    4.3120 ha        1 B87      0.139000
@<TRIPOS>BOND
     1    1    2 1   
     2    1    5 1   
     3    1   30 1   
     4    1   31 1   
     5    2    3 1   
     6    2   32 1   
     7    2   33 1   
     8    3    4 1   
     9    3    6 1   
    10    4    5 1   
    11    4   34 1   
    12    4   35 1   
    13    5   36 1   
    14    5   37 1   
    15    6    7 2   
    16    6    8 1   
    17    8    9 1   
    18    8   38 1   
    19    8   39 1   
    20    9   10 1   
    21    9   14 1   
    22   10   11 1   
    23   10   40 1   
    24   10   41 1   
    25   11   12 1   
    26   11   42 1   
    27   11   43 1   
    28   12   13 1   
    29   12   15 1   
    30   13   14 1   
    31   13   44 1   
    32   13   45 1   
    33   14   46 1   
    34   14   47 1   
    35   15   16 ar  
    36   15   20 ar  
    37   16   17 ar  
    38   16   48 1   
    39   17   18 ar  
    40   17   21 1   
    41   18   19 ar  
    42   19   20 ar  
    43   19   49 1   
    44   21   22 1   
    45   21   25 2   
    46   22   23 1   
    47   23   24 ar  
    48   23   26 ar  
    49   24   25 1   
    50   24   29 ar  
    51   25   50 1   
    52   26   27 ar  
    53   26   51 1   
    54   27   28 ar  
    55   27   52 1   
    56   28   29 ar  
    57   28   53 1   
    58   29   54 1   
@<TRIPOS>SUBSTRUCTURE
     1 B87         1 TEMP              0 ****  ****    0 ROOT
