@<TRIPOS>MOLECULE
B88
   27    25     1     0     0
SMALL
bcc


@<TRIPOS>ATOM
      1 O4         -1.5290   -0.9820    0.6180 o         1 B88     -1.160000
      2 P2         -0.0510   -0.9640    0.5530 p3        1 B88      2.847000
      3 O5          0.4580   -2.2410   -0.2280 oh        1 B88     -0.867000
      4 C9          0.6290   -0.9740    2.2350 c3        1 B88     -0.715000
      5 N1         -0.1140   -0.0780    3.0520 n3        1 B88     -0.304000
      6 C12         0.5380   -2.3700    2.8070 c3        1 B88     -0.243000
      7 C6          0.4990    0.5340   -0.3130 c2        1 B88     -0.990000
      8 C7         -0.4180    0.8040   -1.4850 c3        1 B88     -0.113000
      9 C8          0.1050    0.0890   -2.7110 c2        1 B88      0.315000
     10 O1          1.2790    0.3050   -3.1120 o         1 B88     -0.600000
     11 O6         -0.6330   -0.7210   -3.3300 o         1 B88     -0.600000
     12 C13        -0.4690    2.2920   -1.7520 c3        1 B88     -0.192000
     13 C14        -1.3380    2.5580   -2.9620 c2        1 B88      0.320000
     14 O3         -2.5920    2.5720   -2.8450 o         1 B88     -0.609500
     15 O2         -0.8080    2.7630   -4.0850 o         1 B88     -0.609500
     16 HO5         1.3300   -2.3400   -0.0970 ho        1 B88      0.302000
     17 H9          1.5650   -0.6930    2.2100 h1        1 B88      0.118000
     18 HN1        -0.6290   -0.5550    3.6400 hn        1 B88      0.134500
     19 HN1A        0.4620    0.4600    3.5180 hn        1 B88      0.134500
     20 H12         1.1790   -2.9530    2.3500 hc        1 B88      0.078667
     21 H12A       -0.3700   -2.7170    2.6780 hc        1 B88      0.078667
     22 H12B        0.7450   -2.3450    3.7650 hc        1 B88      0.078667
     23 H6          1.4130    0.4060   -0.6370 ha        1 B88      0.186500
     24 H6A         0.4750    1.2940    0.3030 ha        1 B88      0.186500
     25 H7         -1.3150    0.4800   -1.2770 hc        1 B88      0.078000
     26 H13        -0.8450    2.7510   -0.9740 hc        1 B88      0.073500
     27 H13A        0.4350    2.6240   -1.9220 hc        1 B88      0.073500
@<TRIPOS>BOND
     1    1    2 1   
     2    2    3 1   
     3    2    4 1   
     4    3   16 1   
     5    4    5 1   
     6    4    6 1   
     7    4   17 1   
     8    5   18 1   
     9    5   19 1   
    10    6   20 1   
    11    6   21 1   
    12    6   22 1   
    13    7    8 1   
    14    7   23 1   
    15    7   24 1   
    16    8    9 1   
    17    8   12 1   
    18    8   25 1   
    19    9   10 1   
    20    9   11 1   
    21   12   13 1   
    22   12   26 1   
    23   12   27 1   
    24   13   14 1   
    25   13   15 1   
@<TRIPOS>SUBSTRUCTURE
     1 B88         1 TEMP              0 ****  ****    0 ROOT
