@<TRIPOS>MOLECULE
B88
   27    26     1     0     0
SMALL
bcc


@<TRIPOS>ATOM
      1 O4          1.6570   -1.4360    0.8620 o         1 B88     -0.890300
      2 P2          1.5190   -0.0790    0.3230 p5        1 B88      1.523100
      3 O5          1.3490    0.9570    1.5460 oh        1 B88     -0.849400
      4 C9          3.0410    0.4300   -0.2820 c3        1 B88     -0.105700
      5 N1          3.0340    1.8350   -0.6010 n3        1 B88     -0.871800
      6 C12         4.0500   -0.0220    0.7560 c3        1 B88     -0.125100
      7 C6          0.4460    0.3210   -0.8180 c3        1 B88     -0.472600
      8 C7         -0.8910   -0.3780   -0.6250 c3        1 B88     -0.135700
      9 C8         -1.1940   -1.3740   -1.7750 c         1 B88      0.913600
     10 O1         -2.2440   -2.0750   -1.7000 o         1 B88     -0.865300
     11 O6         -0.3850   -1.4690   -2.7500 o         1 B88     -0.865300
     12 C13        -2.0370    0.6140   -0.5230 c3        1 B88     -0.163400
     13 C14        -1.9340    1.6280    0.6120 c         1 B88      0.893600
     14 O3         -2.3160    2.8190    0.3990 o         1 B88     -0.883800
     15 O2         -1.5020    1.2760    1.7600 o         1 B88     -0.883800
     16 HO5         0.4480    1.1630    1.8280 ho        1 B88      0.517000
     17 H9          3.2640   -0.1150   -1.2440 h1        1 B88      0.083700
     18 HN1         2.6140    2.3410    0.1610 hn        1 B88      0.335300
     19 HN1A        3.9680    2.1750   -0.7280 hn        1 B88      0.335300
     20 H12         3.9550   -1.1310    0.8790 hc        1 B88      0.040700
     21 H12A        5.0970    0.2330    0.4710 hc        1 B88      0.040700
     22 H12B        3.8070    0.4560    1.7370 hc        1 B88      0.040700
     23 H6          0.2580    1.4290   -0.8560 hc        1 B88      0.127200
     24 H6A         0.7900    0.0600   -1.8640 hc        1 B88      0.127200
     25 H7         -0.8530   -0.9760    0.3290 hc        1 B88      0.051700
     26 H13        -2.1290    1.1710   -1.4900 hc        1 B88      0.040200
     27 H13A       -2.9830    0.0300   -0.3760 hc        1 B88      0.040200
@<TRIPOS>BOND
     1    1    2 2   
     2    2    3 1   
     3    2    4 1   
     4    2    7 1   
     5    3   16 1   
     6    4    5 1   
     7    4    6 1   
     8    4   17 1   
     9    5   18 1   
    10    5   19 1   
    11    6   20 1   
    12    6   21 1   
    13    6   22 1   
    14    7    8 1   
    15    7   23 1   
    16    7   24 1   
    17    8    9 1   
    18    8   12 1   
    19    8   25 1   
    20    9   10 1   
    21    9   11 1   
    22   12   13 1   
    23   12   26 1   
    24   12   27 1   
    25   13   14 1   
    26   13   15 1   
@<TRIPOS>SUBSTRUCTURE
     1 B88         1 TEMP              0 ****  ****    0 ROOT
