@<TRIPOS>MOLECULE
B89
   47    46     1     0     0
SMALL
bcc


@<TRIPOS>ATOM
      1 CAA        -3.1880    2.0960   -0.0060 c3        1 B89     -0.205000
      2 OAB         1.9590    1.6410    0.0410 o         1 B89     -0.297000
      3 OAC        -1.8080   -1.3690   -0.9780 oh        1 B89     -0.230000
      4 CLAD       -2.1380    3.7340   -6.6870 cl        1 B89     -0.041000
      5 CAE        -1.9540    4.9420   -5.4500 c2        1 B89     -0.161000
      6 CAF        -1.6230    4.5750   -4.1880 c1        1 B89     -0.174000
      7 CAG        -1.7030    2.3350    0.2590 c3        1 B89     -0.140000
      8 CAH        -1.4120    3.1070   -3.8520 c2        1 B89      0.021000
      9 CAI         2.9400   -2.4550    3.4220 c3        1 B89     -0.022500
     10 CAJ         1.1390   -4.0300    2.9290 c3        1 B89     -0.022500
     11 CAK         2.0700   -1.2930    2.9720 c3        1 B89     -0.190500
     12 CAL         0.2450   -2.8860    2.4730 c3        1 B89     -0.190500
     13 CAM         2.3550   -0.6890    0.2430 c3        1 B89     -0.212000
     14 CAN         0.4610   -2.2690   -0.2760 c3        1 B89     -0.170000
     15 NAO        -0.8810    1.8340   -2.0150 n1        1 B89     -0.051000
     16 OAP         2.7170   -3.8200    2.5350 os        1 B89     -0.275000
     17 OAQ        -1.6400    2.9010   -2.4640 o         1 B89     -0.214000
     18 CAR         1.4630    0.5330    0.1270 c2        1 B89      0.285000
     19 CAS        -0.5370   -1.1310   -0.4180 c2        1 B89      0.115000
     20 CAT        -0.8750    1.5210   -0.7250 c2        1 B89     -0.004000
     21 CAU        -0.0260    0.3270   -0.2220 c2        1 B89     -0.201000
     22 CAV         0.9860   -1.7280    2.2130 c3        1 B89     -0.096000
     23 CAW         1.5920   -1.9090    0.5790 c3        1 B89     -0.088000
     24 HAA        -3.2990    1.6560   -0.8760 hc        1 B89      0.076000
     25 HAAA       -3.5590    1.5210    0.7020 hc        1 B89      0.076000
     26 HAAB       -3.6640    2.9590   -0.0110 hc        1 B89      0.076000
     27 HOAC       -2.0510   -2.2110   -0.8190 ho        1 B89      0.220000
     28 HAE        -2.0900    5.8870   -5.6650 h4        1 B89      0.152000
     29 HAF        -1.5200    5.2510   -3.4970 ha        1 B89      0.157000
     30 HAG        -1.4850    2.0590    1.1780 hc        1 B89      0.102500
     31 HAGA       -1.5020    3.2790    0.1480 hc        1 B89      0.102500
     32 HAH        -0.4930    2.8510   -4.0730 h4        1 B89      0.114500
     33 HAHA       -2.0400    2.5570   -4.3730 h4        1 B89      0.114500
     34 HAI         3.8790   -2.1870    3.3550 h1        1 B89      0.086500
     35 HAIA        2.7370   -2.6530    4.3570 h1        1 B89      0.086500
     36 HAJ         0.8190   -4.8630    2.5150 h1        1 B89      0.086500
     37 HAJA        1.0680   -4.1150    3.8990 h1        1 B89      0.086500
     38 HAK         1.7370   -0.8170    3.7610 hc        1 B89      0.092250
     39 HAKA        2.6080   -0.6830    2.4360 hc        1 B89      0.092250
     40 HAL        -0.4080   -2.6950    3.1710 hc        1 B89      0.092250
     41 HALA       -0.2240   -3.1520    1.6630 hc        1 B89      0.092250
     42 HAM         3.1700   -0.5610    0.7720 hc        1 B89      0.115000
     43 HAMA        2.7520   -0.8320   -0.6430 hc        1 B89      0.115000
     44 HAN        -0.0150   -3.1120   -0.1360 hc        1 B89      0.106500
     45 HANA        0.8780   -2.4550   -1.1470 hc        1 B89      0.106500
     46 HAV         0.3440   -0.9890    2.2000 hc        1 B89      0.097000
     47 HAW         2.2180   -2.6590    0.5730 hc        1 B89      0.116000
@<TRIPOS>BOND
     1    1    7 1   
     2    1   24 1   
     3    1   25 1   
     4    1   26 1   
     5    2   18 1   
     6    3   19 1   
     7    3   27 1   
     8    4    5 1   
     9    5    6 1   
    10    5   28 1   
    11    6   29 1   
    12    7   20 1   
    13    7   30 1   
    14    7   31 1   
    15    8   17 1   
    16    8   32 1   
    17    8   33 1   
    18    9   11 1   
    19    9   16 1   
    20    9   34 1   
    21    9   35 1   
    22   10   12 1   
    23   10   16 1   
    24   10   36 1   
    25   10   37 1   
    26   11   22 1   
    27   11   38 1   
    28   11   39 1   
    29   12   22 1   
    30   12   40 1   
    31   12   41 1   
    32   13   18 1   
    33   13   23 1   
    34   13   42 1   
    35   13   43 1   
    36   14   19 1   
    37   14   23 1   
    38   14   44 1   
    39   14   45 1   
    40   15   20 1   
    41   18   21 1   
    42   19   21 1   
    43   20   21 1   
    44   22   23 1   
    45   22   46 1   
    46   23   47 1   
@<TRIPOS>SUBSTRUCTURE
     1 B89         1 TEMP              0 ****  ****    0 ROOT
