@<TRIPOS>MOLECULE
B89
   47    45     1     0     0
SMALL
bcc


@<TRIPOS>ATOM
      1 CAA         0.5290    0.7180   -1.2340 c3        1 B89     -0.214000
      2 OAC         0.2500    1.9130    2.8890 oh        1 B89     -0.255000
      3 ClAD        1.9560   -8.0660    2.3500 cl        1 B89     -0.115000
      4 CAE         1.6550   -6.8980    3.6360 c3        1 B89      0.002000
      5 CAF         1.5570   -5.5680    3.1310 c1        1 B89     -0.219000
      6 CAG         1.9220    0.6730   -0.6550 c3        1 B89     -0.166000
      7 CAH         1.4730   -4.4490    2.7160 c1        1 B89     -0.153000
      8 CAI         4.7500    7.2510    7.1890 c1        1 B89     -0.067000
      9 CAJ         5.1860    4.9890    6.7610 c3        1 B89     -0.028000
     10 CAK         2.6420    5.7080    5.0890 c3        1 B89     -0.243000
     11 CAL         4.8040    4.4680    5.3890 c3        1 B89     -0.156000
     12 CAM         4.7530    1.5180    2.1070 c3        1 B89     -0.272000
     13 CAN         1.8850    3.5690    3.2360 c3        1 B89     -0.190000
     14 NAO         1.5940   -0.6130    1.4800 n2        1 B89     -0.008000
     15 OAP         5.5740    6.3880    6.6470 os        1 B89     -0.186000
     16 OAQ         1.2430   -1.7020    0.8810 oh        1 B89     -0.214000
     17 CAR         3.6670    2.1770    1.3260 c2        1 B89      0.303000
     18 CAS         1.5100    2.3030    2.5230 c2        1 B89      0.146000
     19 CAT         1.8970    0.4910    0.8400 c2        1 B89     -0.088000
     20 CAU         2.2940    1.6810    1.6130 c2        1 B89     -0.256000
     21 CAV         3.2930    4.3460    5.2010 c3        1 B89     -0.161000
     22 CAW         3.0140    3.3880    4.1360 c1        1 B89     -0.054000
     23 HAA         2.4590    1.6300   -0.9000 hc        1 B89      0.109000
     24 HAAA       -0.0490    1.5710   -0.8040 hc        1 B89      0.081333
     25 HAAB        0.5840    0.8550   -2.3420 hc        1 B89      0.081333
     26 HOAC        0.0250    1.0770    2.4580 ho        1 B89      0.237000
     27 HAE         2.5090   -6.9970    4.3560 h1        1 B89      0.119000
     28 HAF         0.7020   -7.2150    4.1320 h1        1 B89      0.119000
     29 HAG        -0.0300   -0.2260   -1.0230 hc        1 B89      0.081333
     30 HAGA        2.5090   -0.1600   -1.1310 hc        1 B89      0.109000
     31 HAH         1.3200   -1.6630   -0.0980 ho        1 B89      0.195000
     32 HAHA        1.3990   -3.4520    2.3490 ha        1 B89      0.245000
     33 HAI         2.9360    6.2050    4.1330 hc        1 B89      0.087667
     34 HAIA        5.1840    8.2730    7.0320 ha        1 B89      0.037000
     35 HAJ         4.3570    4.8870    7.5070 h1        1 B89      0.108500
     36 HAJA        6.1170    4.4890    7.1370 h1        1 B89      0.108500
     37 HAK         2.9620    6.3590    5.9420 hc        1 B89      0.087667
     38 HAKA        1.5290    5.6190    5.1140 hc        1 B89      0.087667
     39 HAL         5.2220    5.1460    4.6000 hc        1 B89      0.110500
     40 HALA        5.2660    3.4540    5.2470 hc        1 B89      0.110500
     41 HAM         4.6580    1.8510    3.1760 hc        1 B89      0.115667
     42 HAMA        4.6390    0.4080    2.0700 hc        1 B89      0.115667
     43 HAN         5.7580    1.8040    1.7150 hc        1 B89      0.115667
     44 HANA        2.2120    4.3300    2.4600 hc        1 B89      0.145000
     45 HAV         0.9680    3.9880    3.7430 hc        1 B89      0.145000
     46 HAW         2.8670    3.8150    6.1160 hc        1 B89      0.148000
     47 OAB         3.8780    3.0820    0.5110 o         1 B89     -0.309000
@<TRIPOS>BOND
     1    1    6 1   
     2    1   24 1   
     3    1   25 1   
     4    1   29 1   
     5    2   18 1   
     6    2   26 1   
     7    3    4 1   
     8    4    5 1   
     9    4   27 1   
    10    4   28 1   
    11    5    7 1   
    12    6   19 1   
    13    6   23 1   
    14    6   30 1   
    15    7   32 1   
    16    8   15 1   
    17    8   34 1   
    18    9   11 1   
    19    9   15 1   
    20    9   35 1   
    21    9   36 1   
    22   10   21 1   
    23   10   33 1   
    24   10   37 1   
    25   10   38 1   
    26   11   21 1   
    27   11   39 1   
    28   11   40 1   
    29   12   17 1   
    30   12   41 1   
    31   12   42 1   
    32   12   43 1   
    33   13   18 1   
    34   13   22 1   
    35   13   44 1   
    36   13   45 1   
    37   14   16 1   
    38   14   19 1   
    39   16   31 1   
    40   17   20 1   
    41   17   47 1   
    42   18   20 1   
    43   19   20 1   
    44   21   22 1   
    45   21   46 1   
@<TRIPOS>SUBSTRUCTURE
     1 B89         1 TEMP              0 ****  ****    0 ROOT
