@<TRIPOS>MOLECULE
B89
   47    42     1     0     0
SMALL
bcc


@<TRIPOS>ATOM
      1 CAA         0.5100   -1.0270    2.6620 c1        1 B89     -0.060000
      2 OAC         0.4610    1.6000    3.5660 oh        1 B89     -0.303000
      3 CLAD        1.4980   -3.9290    0.0890 cl        1 B89     -0.045000
      4 CAE         2.8220   -4.7300    0.7990 c2        1 B89     -0.106000
      5 CAF         3.9800   -4.1600    0.9600 c1        1 B89     -0.186000
      6 CAG         1.7850   -0.0420    0.6720 c3        1 B89     -0.237000
      7 CAH         5.1420   -3.6110    1.1330 c2        1 B89     -0.130000
      8 CAI         4.7220    2.1090    5.6990 c3        1 B89     -0.069000
      9 CAJ         4.4630    6.2390    4.8780 c1        1 B89     -0.227500
     10 CAK         0.4830    4.5650    6.6520 c1        1 B89     -0.056000
     11 CAL         4.5650    7.4290    4.9430 c1        1 B89     -0.227500
     12 CAM         3.8020    3.9920    1.8510 c3        1 B89     -0.270000
     13 CAN         0.8330    3.8560    2.9780 c2        1 B89     -0.178000
     14 NAO         3.4940    0.1140    2.5280 n2        1 B89     -0.006000
     15 OAP         4.0480    2.9710    4.8060 oh        1 B89     -0.364000
     16 OAQ         3.9100   -1.1050    2.4290 oh        1 B89     -0.215000
     17 CAR         2.9850    2.9700    1.1280 c2        1 B89      0.297000
     18 CAS         1.2100    2.4470    2.8130 c2        1 B89      0.196000
     19 CAT         2.5450    0.6180    1.7800 c2        1 B89     -0.071000
     20 CAU         2.1970    2.0430    1.9680 c2        1 B89     -0.316000
     21 CAV         0.9600    3.8810    5.4780 c3        1 B89     -0.256000
     22 CAW         0.7110    4.4890    4.1490 c2        1 B89     -0.118000
     23 HAA         0.6990    0.2310    0.7480 hc        1 B89      0.109333
     24 HAAA        1.2910   -1.7800    2.8330 ha        1 B89      0.046000
     25 HAAB       -0.3540   -1.4150    2.1070 ha        1 B89      0.046000
     26 HOAC        0.6100    0.6460    3.2840 ho        1 B89      0.287000
     27 HAE         5.9390   -3.6740    0.3750 ha        1 B89      0.149500
     28 HAF         2.5880   -5.7620    1.0950 h4        1 B89      0.172000
     29 HAG         1.8900   -1.1550    0.6480 hc        1 B89      0.109333
     30 HAGA        2.1560    0.3690   -0.3050 hc        1 B89      0.109333
     31 HAH         3.5520   -1.5930    1.6550 ho        1 B89      0.186000
     32 HAHA        5.3980   -3.0520    2.0490 ha        1 B89      0.149500
     33 HAI         4.0170    1.3540    6.1270 h1        1 B89      0.071333
     34 HAIA        5.1130    2.7750    6.5100 h1        1 B89      0.071333
     35 HAJ         3.7090    2.4320    4.0780 ho        1 B89      0.219000
     36 HAJA        4.3750    5.1780    4.8220 ha        1 B89      0.226500
     37 HAK         5.5680    1.5880    5.1860 h1        1 B89      0.071333
     38 HAKA       -0.0210    5.5330    6.5030 ha        1 B89      0.035000
     39 HAL         2.0830    3.7420    5.6210 hc        1 B89      0.184000
     40 HALA        4.6570    8.4840    5.0020 ha        1 B89      0.226500
     41 HAM         4.7130    3.4940    2.2700 hc        1 B89      0.110000
     42 HAMA        4.1210    4.8070    1.1580 hc        1 B89      0.110000
     43 HAN         3.2280    4.4300    2.7050 hc        1 B89      0.110000
     44 HANA        0.6580    4.3830    2.0240 ha        1 B89      0.144000
     45 HAV         0.4290    5.5570    4.1590 ha        1 B89      0.127000
     46 HAW         0.5370    2.8280    5.5130 hc        1 B89      0.184000
     47 OAB         3.0060    2.8680   -0.1050 o         1 B89     -0.307000
@<TRIPOS>BOND
     1    1   24 1   
     2    1   25 1   
     3    2   18 1   
     4    2   26 1   
     5    3    4 1   
     6    4    5 1   
     7    4   28 1   
     8    5    7 1   
     9    6   19 1   
    10    6   23 1   
    11    6   29 1   
    12    6   30 1   
    13    7   27 1   
    14    7   32 1   
    15    8   15 1   
    16    8   33 1   
    17    8   34 1   
    18    8   37 1   
    19    9   11 1   
    20    9   36 1   
    21   10   21 1   
    22   10   38 1   
    23   11   40 1   
    24   12   17 1   
    25   12   41 1   
    26   12   42 1   
    27   12   43 1   
    28   13   18 1   
    29   13   22 1   
    30   13   44 1   
    31   14   16 1   
    32   14   19 1   
    33   15   35 1   
    34   16   31 1   
    35   17   20 1   
    36   17   47 1   
    37   18   20 1   
    38   19   20 1   
    39   21   22 1   
    40   21   39 1   
    41   21   46 1   
    42   22   45 1   
@<TRIPOS>SUBSTRUCTURE
     1 B89         1 TEMP              0 ****  ****    0 ROOT
