@<TRIPOS>MOLECULE
B89
   47    45     1     0     0
SMALL
bcc


@<TRIPOS>ATOM
      1 CAA         1.4300    0.8140   -0.3500 c3        1 B89     -0.220000
      2 OAC         0.1570    2.2840    2.6480 oh        1 B89     -0.245000
      3 CLAD        3.7970   -6.3700    0.2430 cl        1 B89     -0.034000
      4 CAE         2.1340   -6.4130    0.5860 c2        1 B89     -0.112000
      5 CAF         1.5910   -5.7160    1.5410 c1        1 B89     -0.178000
      6 CAG         2.4330    0.2650    0.6350 c3        1 B89     -0.161000
      7 CAH         1.0360   -5.0240    2.4870 c2        1 B89     -0.136000
      8 CAI         5.5310    7.9580    5.5450 c1        1 B89     -0.066000
      9 CAJ         5.3350    5.6320    5.7550 c3        1 B89     -0.023000
     10 CAK         2.8450    6.5710    4.0960 c3        1 B89     -0.200000
     11 CAL         4.6310    4.8790    4.6440 c3        1 B89     -0.164000
     12 CAM         4.1200   -0.5190    3.4570 c3        1 B89     -0.262000
     13 CAN         1.6310    3.1830    4.2440 c3        1 B89     -0.207000
     14 NAO         0.9970   -0.9560    2.3010 n2        1 B89      0.015000
     15 OAP         6.0090    6.7910    5.1860 os        1 B89     -0.186000
     16 OAQ         0.6260   -1.8640    1.4630 oh        1 B89     -0.209000
     17 CAR         3.4150    0.7690    3.7530 c2        1 B89      0.303000
     18 CAS         1.3560    2.0820    3.2670 c2        1 B89      0.209000
     19 CAT         1.8050    0.0250    1.9840 c2        1 B89     -0.114000
     20 CAU         2.1670    1.0140    3.0240 c2        1 B89     -0.285000
     21 CAV         3.1280    5.1680    4.6050 c3        1 B89     -0.167000
     22 CAW         2.5300    4.1890    3.6800 c1        1 B89      0.007000
     23 HAA         1.0330    1.7980    0.0020 hc        1 B89      0.083000
     24 HAAA        0.5700    0.1140   -0.4830 hc        1 B89      0.083000
     25 HAAB        1.9170    0.9680   -1.3430 hc        1 B89      0.083000
     26 HOAC       -0.0040    1.5850    1.9940 ho        1 B89      0.234000
     27 HAE         0.9190   -5.4170    3.5090 ha        1 B89      0.147000
     28 HAF         1.5770   -7.0860   -0.0800 h4        1 B89      0.164000
     29 HAG         2.8770   -0.6900    0.2410 hc        1 B89      0.104000
     30 HAGA        3.2800    0.9930    0.7530 hc        1 B89      0.104000
     31 HAH         1.0510   -1.7920    0.5790 ho        1 B89      0.193000
     32 HAHA        0.6480   -4.0040    2.3220 ha        1 B89      0.147000
     33 HAI         3.1810    6.6790    3.0370 hc        1 B89      0.088333
     34 HAIA        6.1520    8.7430    5.0390 ha        1 B89      0.033000
     35 HAJ         4.6360    5.9600    6.5650 h1        1 B89      0.108500
     36 HAJA        6.1750    5.0220    6.1820 h1        1 B89      0.108500
     37 HAK         3.3900    7.3140    4.7310 hc        1 B89      0.088333
     38 HAKA        1.7510    6.7880    4.1480 hc        1 B89      0.088333
     39 HAL         5.0870    5.1430    3.6540 hc        1 B89      0.119000
     40 HALA        4.7820    3.7760    4.8090 hc        1 B89      0.119000
     41 HAM         5.1030   -0.5550    3.9870 hc        1 B89      0.105000
     42 HAMA        3.4910   -1.3760    3.8030 hc        1 B89      0.105000
     43 HAN         4.2930   -0.6190    2.3580 hc        1 B89      0.105000
     44 HANA        2.0460    2.7250    5.1910 hc        1 B89      0.151000
     45 HAV         0.6590    3.6980    4.5080 hc        1 B89      0.151000
     46 HAW         2.7290    5.0880    5.6600 hc        1 B89      0.068000
     47 OAB         3.8770    1.5640    4.5900 o         1 B89     -0.348000
@<TRIPOS>BOND
     1    1    6 1   
     2    1   23 1   
     3    1   24 1   
     4    1   25 1   
     5    2   18 1   
     6    2   26 1   
     7    3    4 1   
     8    4    5 1   
     9    4   28 1   
    10    5    7 1   
    11    6   19 1   
    12    6   29 1   
    13    6   30 1   
    14    7   27 1   
    15    7   32 1   
    16    8   15 1   
    17    8   34 1   
    18    9   11 1   
    19    9   15 1   
    20    9   35 1   
    21    9   36 1   
    22   10   21 1   
    23   10   33 1   
    24   10   37 1   
    25   10   38 1   
    26   11   21 1   
    27   11   39 1   
    28   11   40 1   
    29   12   17 1   
    30   12   41 1   
    31   12   42 1   
    32   12   43 1   
    33   13   18 1   
    34   13   22 1   
    35   13   44 1   
    36   13   45 1   
    37   14   16 1   
    38   14   19 1   
    39   16   31 1   
    40   17   20 1   
    41   17   47 1   
    42   18   20 1   
    43   19   20 1   
    44   21   22 1   
    45   21   46 1   
@<TRIPOS>SUBSTRUCTURE
     1 B89         1 TEMP              0 ****  ****    0 ROOT
