@<TRIPOS>MOLECULE
B89
   47    48     1     0     0
SMALL
bcc


@<TRIPOS>ATOM
      1 CAA         2.1700   -3.1980    0.0590 c3        1 B89     -0.092100
      2 OAC        -0.2830   -0.6740    2.2490 oh        1 B89     -0.491100
      3 CLAD        8.1070    0.8570    0.6220 cl        1 B89     -0.108400
      4 CAE         6.4860    1.3370    0.6820 c2        1 B89     -0.070600
      5 CAF         5.4800    0.5400    0.3180 c2        1 B89     -0.170200
      6 CAG         1.6550   -2.2080   -0.9560 c3        1 B89     -0.138700
      7 CAH         4.0660    0.9990    0.3740 c3        1 B89      0.177600
      8 CAI        -6.6560    0.9510   -1.0070 c3        1 B89      0.126400
      9 CAJ        -6.5130    0.8910    1.3540 c3        1 B89      0.126400
     10 CAK        -5.1480    0.8470   -1.1590 c3        1 B89     -0.112900
     11 CAL        -4.9980    0.7790    1.3190 c3        1 B89     -0.112900
     12 CAM        -2.5350   -0.6500   -1.2920 c3        1 B89     -0.182400
     13 CAN        -2.3680   -0.4530    1.1840 c3        1 B89     -0.054200
     14 NAO         1.9700    0.0270    0.1500 n2        1 B89     -0.454200
     15 OAP        -7.0280    1.5720    0.2170 os        1 B89     -0.412600
     16 OAQ         3.2710   -0.1730    0.0200 os        1 B89     -0.190300
     17 CAR        -1.0350   -0.7250   -1.4200 c         1 B89      0.597300
     18 CAS        -0.8920   -0.6340    1.0290 c2        1 B89      0.192900
     19 CAT         1.1990   -0.9360   -0.2940 ce        1 B89      0.437600
     20 CAU        -0.2640   -0.7670   -0.1700 ce        1 B89     -0.375800
     21 CAV        -4.5240    0.1230    0.0280 c3        1 B89     -0.058700
     22 CAW        -2.9960    0.1310   -0.0730 c3        1 B89     -0.051700
     23 HAA         3.0440   -2.7730    0.6110 hc        1 B89      0.037367
     24 HAAA        1.3770   -3.4630    0.7980 hc        1 B89      0.037367
     25 HAAB        2.4980   -4.1330   -0.4570 hc        1 B89      0.037367
     26 HOAC        0.6700   -0.8240    2.1400 ho        1 B89      0.442000
     27 HAE         6.3620    2.3650    1.0470 h4        1 B89      0.150000
     28 HAF         5.6350   -0.4900   -0.0450 ha        1 B89      0.160000
     29 HAG         2.4680   -1.9640   -1.6930 hc        1 B89      0.068200
     30 HAGA        0.8030   -2.6510   -1.5360 hc        1 B89      0.068200
     31 HAH         3.7880    1.3570    1.4000 h1        1 B89      0.061200
     32 HAHA        3.8710    1.8100   -0.3780 h1        1 B89      0.061200
     33 HAI        -7.0940    1.6190   -1.7950 h1        1 B89      0.048450
     34 HAIA       -7.1270   -0.0670   -1.0670 h1        1 B89      0.048450
     35 HAJ        -6.9790   -0.1290    1.4200 h1        1 B89      0.048450
     36 HAJA       -6.8490    1.5180    2.2220 h1        1 B89      0.048450
     37 HAK        -4.9250    0.2990   -2.1100 hc        1 B89      0.053950
     38 HAKA       -4.7100    1.8760   -1.2390 hc        1 B89      0.053950
     39 HAL        -4.5450    1.8010    1.4050 hc        1 B89      0.053950
     40 HALA       -4.6700    0.1760    2.2040 hc        1 B89      0.053950
     41 HAM        -2.9430   -0.1800   -2.2260 hc        1 B89      0.075200
     42 HAMA       -2.9250   -1.7020   -1.2430 hc        1 B89      0.075200
     43 HAN        -2.8250   -1.4520    1.4200 hc        1 B89      0.077700
     44 HANA       -2.5540    0.2230    2.0620 hc        1 B89      0.077700
     45 HAV        -4.8760   -0.9470    0.0220 hc        1 B89      0.049700
     46 HAW        -2.6540    1.1990   -0.1790 hc        1 B89      0.067700
     47 OAB        -0.5090   -0.7760   -2.5390 o         1 B89     -0.539100
@<TRIPOS>BOND
     1    1    6 1   
     2    1   23 1   
     3    1   24 1   
     4    1   25 1   
     5    2   18 1   
     6    2   26 1   
     7    3    4 1   
     8    4    5 2   
     9    4   27 1   
    10    5    7 1   
    11    5   28 1   
    12    6   19 1   
    13    6   29 1   
    14    6   30 1   
    15    7   16 1   
    16    7   31 1   
    17    7   32 1   
    18    8   10 1   
    19    8   15 1   
    20    8   33 1   
    21    8   34 1   
    22    9   11 1   
    23    9   15 1   
    24    9   35 1   
    25    9   36 1   
    26   10   21 1   
    27   10   37 1   
    28   10   38 1   
    29   11   21 1   
    30   11   39 1   
    31   11   40 1   
    32   12   17 1   
    33   12   22 1   
    34   12   41 1   
    35   12   42 1   
    36   13   18 1   
    37   13   22 1   
    38   13   43 1   
    39   13   44 1   
    40   14   16 1   
    41   14   19 2   
    42   17   20 1   
    43   17   47 2   
    44   18   20 2   
    45   19   20 1   
    46   21   22 1   
    47   21   45 1   
    48   22   46 1   
@<TRIPOS>SUBSTRUCTURE
     1 B89         1 TEMP              0 ****  ****    0 ROOT
