@<TRIPOS>MOLECULE
B8D
   27    27     1     0     0
SMALL
bcc


@<TRIPOS>ATOM
      1 OA4        -0.9320    2.1770    0.8760 oh        1 B8D     -0.638800
      2 CJ1        -0.8320    1.7390   -0.4600 c3        1 B8D      0.305900
      3 CJ2        -1.7340    0.5070   -0.6260 c3        1 B8D      0.091100
      4 OJ2        -3.0460    0.7660   -0.1740 oh        1 B8D     -0.594800
      5 CJ3        -1.1580   -0.7200    0.1020 c3        1 B8D      0.090100
      6 OJ3        -1.8470   -1.8870   -0.3200 oh        1 B8D     -0.601800
      7 CJ4         0.3290   -0.9100   -0.2410 c3        1 B8D      0.122100
      8 OJ4         0.9120   -1.8930    0.6100 os        1 B8D     -0.415600
      9 CJ5         1.0840    0.4000    0.0570 c3        1 B8D      0.137100
     10 OJ5         0.5300    1.4750   -0.7090 os        1 B8D     -0.438600
     11 CJ6         2.5510    0.3000   -0.3650 c3        1 B8D      0.135400
     12 OJ6         3.2700    1.2300    0.4280 oh        1 B8D     -0.597800
     13 CJ7         0.7500   -3.2240    0.1440 c3        1 B8D      0.113700
     14 HOA4       -0.2860    2.8840    1.0010 ho        1 B8D      0.433000
     15 HJ1        -1.1080    2.5550   -1.1870 h2        1 B8D      0.084700
     16 HJ2        -1.8470    0.2790   -1.7240 h1        1 B8D      0.097700
     17 HOJ2       -2.9800    1.1140    0.7270 ho        1 B8D      0.423000
     18 HJ3        -1.2750   -0.5930    1.2140 h1        1 B8D      0.065700
     19 HOJ3       -2.7900   -1.7020   -0.2120 ho        1 B8D      0.418000
     20 HJ4         0.4380   -1.1990   -1.3210 h1        1 B8D      0.063700
     21 HJ5         1.0090    0.6450    1.1520 h1        1 B8D      0.087700
     22 HJ6         2.9200   -0.7420   -0.1610 h1        1 B8D      0.044200
     23 HJ6A        2.6620    0.5440   -1.4540 h1        1 B8D      0.044200
     24 HOJ6        4.1740    1.2350    0.0930 ho        1 B8D      0.403000
     25 HJ7         1.2510   -3.8460    0.9280 h1        1 B8D      0.042367
     26 HJ7A       -0.3330   -3.4870    0.0590 h1        1 B8D      0.042367
     27 HJ7B        1.2570   -3.3560   -0.8440 h1        1 B8D      0.042367
@<TRIPOS>BOND
     1    1    2 1   
     2    1   14 1   
     3    2    3 1   
     4    2   10 1   
     5    2   15 1   
     6    3    4 1   
     7    3    5 1   
     8    3   16 1   
     9    4   17 1   
    10    5    6 1   
    11    5    7 1   
    12    5   18 1   
    13    6   19 1   
    14    7    8 1   
    15    7    9 1   
    16    7   20 1   
    17    8   13 1   
    18    9   10 1   
    19    9   11 1   
    20    9   21 1   
    21   11   12 1   
    22   11   22 1   
    23   11   23 1   
    24   12   24 1   
    25   13   25 1   
    26   13   26 1   
    27   13   27 1   
@<TRIPOS>SUBSTRUCTURE
     1 B8D         1 TEMP              0 ****  ****    0 ROOT
