@<TRIPOS>MOLECULE
B8D
   27    27     1     0     0
SMALL
bcc


@<TRIPOS>ATOM
      1 OA4        -1.8100   -1.9710   -0.9730 oh        1 B8D     -0.634800
      2 CJ1        -0.4290   -1.9710   -0.9730 c3        1 B8D      0.307900
      3 CJ2         0.0610   -1.9710    0.4590 c3        1 B8D      0.093100
      4 OJ2        -0.5920   -3.0390    1.1740 oh        1 B8D     -0.592800
      5 CJ3        -0.2200   -0.6900    1.1500 c3        1 B8D      0.089100
      6 OJ3         0.4360   -0.7020    2.4460 oh        1 B8D     -0.600800
      7 CJ4         0.2670    0.4880    0.3740 c3        1 B8D      0.127100
      8 OJ4        -0.1950    1.6850    1.0110 os        1 B8D     -0.416600
      9 CJ5        -0.2230    0.4770   -1.0640 c3        1 B8D      0.099100
     10 OJ5         0.0520   -0.7920   -1.7390 os        1 B8D     -0.455600
     11 CJ6         0.4510    1.5810   -1.8140 c3        1 B8D      0.140400
     12 OJ6         0.1420    1.4740   -3.1860 oh        1 B8D     -0.593800
     13 CJ7         0.8050    2.3720    1.7310 c3        1 B8D      0.113700
     14 HOA4       -2.1060   -2.5460   -1.5820 ho        1 B8D      0.429000
     15 HJ1        -0.1130   -2.7830   -1.4140 h2        1 B8D      0.084700
     16 HJ2         1.0240   -2.1290    0.4640 h1        1 B8D      0.099700
     17 HOJ2       -1.4220   -2.7960    1.3750 ho        1 B8D      0.422000
     18 HJ3        -1.1830   -0.6060    1.2820 h1        1 B8D      0.065700
     19 HOJ3       -0.1550   -0.9130    3.0740 ho        1 B8D      0.418000
     20 HJ4         1.2440    0.4860    0.3750 h1        1 B8D      0.064700
     21 HJ5        -1.1870    0.6340   -1.0690 h1        1 B8D      0.080700
     22 HJ6         1.4170    1.5140   -1.6920 h1        1 B8D      0.061700
     23 HJ6A        0.1390    2.4420   -1.4760 h1        1 B8D      0.061700
     24 HOJ6        0.4910    2.1640   -3.6230 ho        1 B8D      0.408000
     25 HJ7         0.6160    3.3300    1.7160 h1        1 B8D      0.043033
     26 HJ7A        0.8160    2.0570    2.6540 h1        1 B8D      0.043033
     27 HJ7B        1.6740    2.2060    1.3190 h1        1 B8D      0.043033
@<TRIPOS>BOND
     1    1    2 1   
     2    1   14 1   
     3    2    3 1   
     4    2   10 1   
     5    2   15 1   
     6    3    4 1   
     7    3    5 1   
     8    3   16 1   
     9    4   17 1   
    10    5    6 1   
    11    5    7 1   
    12    5   18 1   
    13    6   19 1   
    14    7    8 1   
    15    7    9 1   
    16    7   20 1   
    17    8   13 1   
    18    9   10 1   
    19    9   11 1   
    20    9   21 1   
    21   11   12 1   
    22   11   22 1   
    23   11   23 1   
    24   12   24 1   
    25   13   25 1   
    26   13   26 1   
    27   13   27 1   
@<TRIPOS>SUBSTRUCTURE
     1 B8D         1 TEMP              0 ****  ****    0 ROOT
