@<TRIPOS>MOLECULE
B8L
   78    81     1     0     0
SMALL
bcc


@<TRIPOS>ATOM
      1 O1          0.6530   -2.9410   -1.2790 oh        1 B8L     -0.462100
      2 C1          1.5430   -1.9370   -1.0370 ca        1 B8L      0.205100
      3 C2          1.6550   -1.3290    0.2300 ca        1 B8L     -0.220000
      4 C3          2.5780   -0.3170    0.4360 ca        1 B8L     -0.047000
      5 C4          3.4050    0.1010   -0.6190 ca        1 B8L     -0.248600
      6 C5          3.2730   -0.4960   -1.8900 ca        1 B8L     -0.018000
      7 C6          2.3570   -1.5180   -2.1180 ca        1 B8L     -0.094300
      8 C7          4.3840    1.1750   -0.5050 c         1 B8L      0.582700
      9 O7          4.8170    1.8990   -1.3940 o         1 B8L     -0.438100
     10 N8          4.9590    1.4400    0.8720 n4        1 B8L     -0.675800
     11 C8          6.4520    1.2700    0.9140 c3        1 B8L      0.101500
     12 C9          7.0550    1.7800    2.2480 c3        1 B8L      0.144100
     13 C10         8.4680    2.3350    2.0730 c3        1 B8L     -0.086400
     14 C11         9.3370    1.6250    1.0630 c3        1 B8L     -0.090400
     15 C12         9.2220    0.1020    1.0950 c3        1 B8L      0.158800
     16 N13         8.1610   -0.4080    0.2520 n3        1 B8L     -0.834200
     17 O9          6.3080    2.8920    2.7770 os        1 B8L     -0.461900
     18 C14         6.8190   -0.2330    0.7410 c3        1 B8L      0.164800
     19 C15         5.3190    2.6260    3.7050 c         1 B8L      0.669700
     20 O15         4.8210    1.4930    3.6460 o         1 B8L     -0.594000
     21 C16         4.9580    3.7490    4.5640 ca        1 B8L     -0.157600
     22 C17         5.6010    4.9900    4.4510 ca        1 B8L     -0.070000
     23 C18         5.2230    6.0410    5.2820 ca        1 B8L     -0.102500
     24 C19         4.2160    5.8540    6.2380 ca        1 B8L     -0.094600
     25 C20         3.5790    4.6140    6.3540 ca        1 B8L     -0.102500
     26 C21         3.9440    3.5620    5.5180 ca        1 B8L     -0.070000
     27 C22         3.8260    6.9970    7.1100 c         1 B8L      0.600300
     28 O22         3.6600    8.1240    6.6410 o         1 B8L     -0.477100
     29 C23         3.6990    6.7020    8.5570 ca        1 B8L     -0.156600
     30 C24         4.7970    6.9040    9.3900 ca        1 B8L     -0.098000
     31 C26         4.6780    6.6680   10.7720 ca        1 B8L      0.104100
     32 O26         5.8360    6.8810   11.4930 os        1 B8L     -0.322900
     33 C27         3.4630    6.2440   11.3240 ca        1 B8L     -0.148000
     34 C28         2.3660    6.0420   10.4920 ca        1 B8L     -0.166000
     35 C29         2.4830    6.2620    9.1130 ca        1 B8L      0.109100
     36 O29         1.4380    6.0270    8.2440 oh        1 B8L     -0.512100
     37 C66         2.2310   -2.1470   -3.4720 c3        1 B8L     -0.027400
     38 C71         3.5730   -2.7130   -3.9260 c3        1 B8L     -0.074400
     39 C72         1.6910   -1.1380   -4.4700 c3        1 B8L     -0.092100
     40 C81         3.4130   -3.7290   -5.0280 c3        1 B8L     -0.096100
     41 C30         5.7210    6.7870   12.9090 c3        1 B8L      0.110700
     42 HO1         0.1500   -3.1220   -0.4670 ho        1 B8L      0.443000
     43 H2          1.0000   -1.6550    1.0530 ha        1 B8L      0.161000
     44 H3          2.6150    0.1560    1.4300 ha        1 B8L      0.139000
     45 H5          3.9080   -0.1440   -2.7230 ha        1 B8L      0.171000
     46 HN8         4.5400    0.8200    1.5790 hn        1 B8L      0.466300
     47 H8          6.8660    1.8800    0.0530 hx        1 B8L      0.139700
     48 H9          7.0450    0.9380    2.9980 h1        1 B8L      0.088700
     49 H101        8.9570    2.2970    3.0840 hc        1 B8L      0.074700
     50 H102        8.3920    3.4210    1.7870 hc        1 B8L      0.074700
     51 H111        9.1240    2.0090    0.0300 hc        1 B8L      0.070700
     52 H112       10.4060    1.8890    1.2890 hc        1 B8L      0.070700
     53 H121        9.1150   -0.2340    2.1680 h1        1 B8L      0.050200
     54 H122       10.1870   -0.3280    0.6980 h1        1 B8L      0.050200
     55 H13         8.3180   -1.3690    0.0150 hn        1 B8L      0.399800
     56 H141        6.6310   -0.7510    1.7290 h1        1 B8L      0.048700
     57 H142        6.1320   -0.6990   -0.0250 h1        1 B8L      0.048700
     58 H17         6.3980    5.1320    3.7040 ha        1 B8L      0.157000
     59 H18         5.7050    7.0270    5.1850 ha        1 B8L      0.171000
     60 H20         2.7790    4.4790    7.1030 ha        1 B8L      0.171000
     61 H21         3.4470    2.5820    5.6030 ha        1 B8L      0.157000
     62 H24         5.7580    7.2580    8.9860 ha        1 B8L      0.160000
     63 H27         3.3620    6.0710   12.4060 ha        1 B8L      0.151000
     64 H28         1.4060    5.7140   10.9160 ha        1 B8L      0.145000
     65 H29         0.6180    6.0210    8.7610 ho        1 B8L      0.431000
     66 H66         1.4950   -3.0010   -3.4030 hc        1 B8L      0.087700
     67 H711        4.0830   -3.1980   -3.0520 hc        1 B8L      0.038200
     68 H712        4.2320   -1.8760   -4.2770 hc        1 B8L      0.038200
     69 H721        1.5730   -1.6210   -5.4700 hc        1 B8L      0.045367
     70 H722        2.3870   -0.2710   -4.5750 hc        1 B8L      0.045367
     71 H723        0.6950   -0.7580   -4.1400 hc        1 B8L      0.045367
     72 H811        4.4120   -4.1310   -5.3240 hc        1 B8L      0.043367
     73 H812        2.7750   -4.5820   -4.6920 hc        1 B8L      0.043367
     74 H813        2.9390   -3.2700   -5.9300 hc        1 B8L      0.043367
     75 H301        6.7460    7.0570   13.2690 h1        1 B8L      0.050700
     76 H302        5.4590    5.7430   13.2120 h1        1 B8L      0.050700
     77 H303        4.9630    7.5110   13.2950 h1        1 B8L      0.050700
     78 H82         4.7540    2.4130    1.1390 hn        1 B8L      0.466300
@<TRIPOS>BOND
     1    1    2 1   
     2    1   42 1   
     3    2    3 ar  
     4    2    7 ar  
     5    3    4 ar  
     6    3   43 1   
     7    4    5 ar  
     8    4   44 1   
     9    5    6 ar  
    10    5    8 1   
    11    6    7 ar  
    12    6   45 1   
    13    7   37 1   
    14    8    9 2   
    15    8   10 1   
    16   10   11 1   
    17   10   46 1   
    18   10   78 1   
    19   11   12 1   
    20   11   18 1   
    21   11   47 1   
    22   12   13 1   
    23   12   17 1   
    24   12   48 1   
    25   13   14 1   
    26   13   49 1   
    27   13   50 1   
    28   14   15 1   
    29   14   51 1   
    30   14   52 1   
    31   15   16 1   
    32   15   53 1   
    33   15   54 1   
    34   16   18 1   
    35   16   55 1   
    36   17   19 1   
    37   18   56 1   
    38   18   57 1   
    39   19   20 2   
    40   19   21 1   
    41   21   22 ar  
    42   21   26 ar  
    43   22   23 ar  
    44   22   58 1   
    45   23   24 ar  
    46   23   59 1   
    47   24   25 ar  
    48   24   27 1   
    49   25   26 ar  
    50   25   60 1   
    51   26   61 1   
    52   27   28 2   
    53   27   29 1   
    54   29   30 ar  
    55   29   35 ar  
    56   30   31 ar  
    57   30   62 1   
    58   31   32 1   
    59   31   33 ar  
    60   32   41 1   
    61   33   34 ar  
    62   33   63 1   
    63   34   35 ar  
    64   34   64 1   
    65   35   36 1   
    66   36   65 1   
    67   37   38 1   
    68   37   39 1   
    69   37   66 1   
    70   38   40 1   
    71   38   67 1   
    72   38   68 1   
    73   39   69 1   
    74   39   70 1   
    75   39   71 1   
    76   40   72 1   
    77   40   73 1   
    78   40   74 1   
    79   41   75 1   
    80   41   76 1   
    81   41   77 1   
@<TRIPOS>SUBSTRUCTURE
     1 B8L         1 TEMP              0 ****  ****    0 ROOT
