@<TRIPOS>MOLECULE
B8L
   78    81     1     0     0
SMALL
bcc


@<TRIPOS>ATOM
      1 O1          0.6730   -2.9570   -1.2860 oh        1 B8L     -0.462100
      2 C1          1.5580   -1.9490   -1.0420 ca        1 B8L      0.205100
      3 C2          1.6640   -1.3400    0.2250 ca        1 B8L     -0.220000
      4 C3          2.5830   -0.3240    0.4330 ca        1 B8L     -0.047000
      5 C4          3.4100    0.0970   -0.6200 ca        1 B8L     -0.248600
      6 C5          3.2840   -0.5010   -1.8910 ca        1 B8L     -0.018000
      7 C6          2.3730   -1.5270   -2.1210 ca        1 B8L     -0.094300
      8 C7          4.3840    1.1750   -0.5040 c         1 B8L      0.582700
      9 O7          4.8150    1.9030   -1.3910 o         1 B8L     -0.438100
     10 N8          4.9570    1.4420    0.8730 n4        1 B8L     -0.675800
     11 C8          6.4490    1.2710    0.9180 c3        1 B8L      0.101500
     12 C9          7.0520    1.7800    2.2530 c3        1 B8L      0.144100
     13 C10         8.4650    2.3340    2.0790 c3        1 B8L     -0.086400
     14 C11         9.3340    1.6230    1.0710 c3        1 B8L     -0.090400
     15 C12         9.2180    0.1010    1.1030 c3        1 B8L      0.158800
     16 N13         8.1580   -0.4090    0.2590 n3        1 B8L     -0.834200
     17 O9          6.3040    2.8930    2.7800 os        1 B8L     -0.461900
     18 C14         6.8160   -0.2330    0.7460 c3        1 B8L      0.164800
     19 C15         5.3140    2.6290    3.7070 c         1 B8L      0.669700
     20 O15         4.8150    1.4960    3.6470 o         1 B8L     -0.594000
     21 C16         4.9530    3.7530    4.5650 ca        1 B8L     -0.157600
     22 C17         5.5980    4.9920    4.4520 ca        1 B8L     -0.070000
     23 C18         5.2200    6.0440    5.2820 ca        1 B8L     -0.102500
     24 C19         4.2120    5.8590    6.2370 ca        1 B8L     -0.094600
     25 C20         3.5730    4.6200    6.3520 ca        1 B8L     -0.102500
     26 C21         3.9380    3.5680    5.5170 ca        1 B8L     -0.070000
     27 C22         3.8220    7.0030    7.1080 c         1 B8L      0.600300
     28 O22         3.6590    8.1300    6.6390 o         1 B8L     -0.477100
     29 C23         3.6920    6.7090    8.5550 ca        1 B8L     -0.156600
     30 C24         4.7890    6.9080    9.3910 ca        1 B8L     -0.098000
     31 C26         4.6670    6.6730   10.7720 ca        1 B8L      0.104100
     32 O26         5.8240    6.8840   11.4950 os        1 B8L     -0.322900
     33 C27         3.4500    6.2510   11.3220 ca        1 B8L     -0.148000
     34 C28         2.3550    6.0510   10.4880 ca        1 B8L     -0.166000
     35 C29         2.4740    6.2710    9.1090 ca        1 B8L      0.109100
     36 O29         1.4300    6.0380    8.2380 oh        1 B8L     -0.512100
     37 C66         2.2530   -2.1560   -3.4750 c3        1 B8L     -0.027400
     38 C71         3.5990   -2.7160   -3.9270 c3        1 B8L     -0.074400
     39 C72         1.7100   -1.1510   -4.4740 c3        1 B8L     -0.092100
     40 C81         3.4470   -3.7330   -5.0280 c3        1 B8L     -0.096100
     41 C30         5.7060    6.7900   12.9110 c3        1 B8L      0.110700
     42 HO1         0.1690   -3.1400   -0.4750 ho        1 B8L      0.443000
     43 H2          1.0090   -1.6690    1.0470 ha        1 B8L      0.161000
     44 H3          2.6150    0.1500    1.4270 ha        1 B8L      0.139000
     45 H5          3.9190   -0.1460   -2.7230 ha        1 B8L      0.171000
     46 HN8         4.5370    0.8230    1.5810 hn        1 B8L      0.466300
     47 H8          6.8650    1.8800    0.0580 hx        1 B8L      0.139700
     48 H9          7.0390    0.9390    3.0030 h1        1 B8L      0.088700
     49 H101        8.9530    2.2960    3.0910 hc        1 B8L      0.074700
     50 H102        8.3910    3.4200    1.7940 hc        1 B8L      0.074700
     51 H111       10.4040    1.8870    1.2980 hc        1 B8L      0.070700
     52 H112        9.1230    2.0070    0.0370 hc        1 B8L      0.070700
     53 H121       10.1840   -0.3300    0.7070 h1        1 B8L      0.050200
     54 H122        9.1100   -0.2360    2.1760 h1        1 B8L      0.050200
     55 H13         8.3150   -1.3710    0.0220 hn        1 B8L      0.399800
     56 H141        6.1290   -0.6990   -0.0200 h1        1 B8L      0.049200
     57 H142        6.6260   -0.7500    1.7350 h1        1 B8L      0.049200
     58 H17         6.3960    5.1330    3.7070 ha        1 B8L      0.157000
     59 H18         5.7050    7.0300    5.1860 ha        1 B8L      0.171000
     60 H20         2.7710    4.4870    7.1000 ha        1 B8L      0.171000
     61 H21         3.4390    2.5880    5.6010 ha        1 B8L      0.157000
     62 H24         5.7510    7.2600    8.9880 ha        1 B8L      0.160000
     63 H27         3.3470    6.0790   12.4040 ha        1 B8L      0.151000
     64 H28         1.3930    5.7250   10.9110 ha        1 B8L      0.145000
     65 H29         0.6090    6.0340    8.7530 ho        1 B8L      0.431000
     66 H66         1.5220   -3.0150   -3.4080 hc        1 B8L      0.087700
     67 H711        4.1100   -3.1970   -3.0510 hc        1 B8L      0.038200
     68 H712        4.2550   -1.8750   -4.2770 hc        1 B8L      0.038200
     69 H721        0.7110   -0.7760   -4.1470 hc        1 B8L      0.045367
     70 H722        1.5970   -1.6350   -5.4750 hc        1 B8L      0.045367
     71 H723        2.4010   -0.2800   -4.5780 hc        1 B8L      0.045367
     72 H811        2.9720   -3.2770   -5.9310 hc        1 B8L      0.043367
     73 H812        4.4490   -4.1300   -5.3220 hc        1 B8L      0.043367
     74 H813        2.8130   -4.5900   -4.6930 hc        1 B8L      0.043367
     75 H301        4.9490    7.5150   13.2960 h1        1 B8L      0.050700
     76 H302        6.7310    7.0580   13.2730 h1        1 B8L      0.050700
     77 H303        5.4420    5.7470   13.2130 h1        1 B8L      0.050700
     78 H82         4.7530    2.4150    1.1390 hn        1 B8L      0.466300
@<TRIPOS>BOND
     1    1    2 1   
     2    1   42 1   
     3    2    3 ar  
     4    2    7 ar  
     5    3    4 ar  
     6    3   43 1   
     7    4    5 ar  
     8    4   44 1   
     9    5    6 ar  
    10    5    8 1   
    11    6    7 ar  
    12    6   45 1   
    13    7   37 1   
    14    8    9 2   
    15    8   10 1   
    16   10   11 1   
    17   10   46 1   
    18   10   78 1   
    19   11   12 1   
    20   11   18 1   
    21   11   47 1   
    22   12   13 1   
    23   12   17 1   
    24   12   48 1   
    25   13   14 1   
    26   13   49 1   
    27   13   50 1   
    28   14   15 1   
    29   14   51 1   
    30   14   52 1   
    31   15   16 1   
    32   15   53 1   
    33   15   54 1   
    34   16   18 1   
    35   16   55 1   
    36   17   19 1   
    37   18   56 1   
    38   18   57 1   
    39   19   20 2   
    40   19   21 1   
    41   21   22 ar  
    42   21   26 ar  
    43   22   23 ar  
    44   22   58 1   
    45   23   24 ar  
    46   23   59 1   
    47   24   25 ar  
    48   24   27 1   
    49   25   26 ar  
    50   25   60 1   
    51   26   61 1   
    52   27   28 2   
    53   27   29 1   
    54   29   30 ar  
    55   29   35 ar  
    56   30   31 ar  
    57   30   62 1   
    58   31   32 1   
    59   31   33 ar  
    60   32   41 1   
    61   33   34 ar  
    62   33   63 1   
    63   34   35 ar  
    64   34   64 1   
    65   35   36 1   
    66   36   65 1   
    67   37   38 1   
    68   37   39 1   
    69   37   66 1   
    70   38   40 1   
    71   38   67 1   
    72   38   68 1   
    73   39   69 1   
    74   39   70 1   
    75   39   71 1   
    76   40   72 1   
    77   40   73 1   
    78   40   74 1   
    79   41   75 1   
    80   41   76 1   
    81   41   77 1   
@<TRIPOS>SUBSTRUCTURE
     1 B8L         1 TEMP              0 ****  ****    0 ROOT
