@<TRIPOS>MOLECULE
B8L
   78    81     1     0     0
SMALL
bcc


@<TRIPOS>ATOM
      1 O1          0.6140   -2.8540   -1.3250 oh        1 B8L     -0.462100
      2 C1          1.5190   -1.8670   -1.0720 ca        1 B8L      0.205100
      3 C2          1.6250   -1.2590    0.1950 ca        1 B8L     -0.220000
      4 C3          2.5650   -0.2640    0.4120 ca        1 B8L     -0.047000
      5 C4          3.4130    0.1370   -0.6320 ca        1 B8L     -0.248600
      6 C5          3.2870   -0.4600   -1.9030 ca        1 B8L     -0.018000
      7 C6          2.3560   -1.4650   -2.1420 ca        1 B8L     -0.094300
      8 C7          4.4100    1.1920   -0.5060 c         1 B8L      0.582700
      9 O7          4.8680    1.9080   -1.3900 o         1 B8L     -0.438100
     10 N8          4.9730    1.4480    0.8780 ny        1 B8L     -0.675800
     11 C8          6.4610    1.2500    0.9390 c3        1 B8L      0.101500
     12 C9          7.0570    1.7490    2.2810 c3        1 B8L      0.144100
     13 C10         8.4820    2.2770    2.1240 c3        1 B8L     -0.086400
     14 C11         9.3500    1.5490    1.1260 c3        1 B8L     -0.090400
     15 C12         9.2050    0.0290    1.1560 c3        1 B8L      0.158800
     16 N13         8.1460   -0.4610    0.3010 n7        1 B8L     -0.834200
     17 O9          6.3250    2.8760    2.8000 os        1 B8L     -0.461900
     18 C14         6.8020   -0.2610    0.7720 c3        1 B8L      0.164800
     19 C15         5.3190    2.6300    3.7150 c         1 B8L      0.669700
     20 O15         4.8000    1.5060    3.6500 o         1 B8L     -0.594000
     21 C16         4.9690    3.7600    4.5690 ca        1 B8L     -0.157600
     22 C17         5.6370    4.9880    4.4630 ca        1 B8L     -0.070000
     23 C18         5.2690    6.0470    5.2880 ca        1 B8L     -0.102500
     24 C19         4.2470    5.8810    6.2320 ca        1 B8L     -0.094600
     25 C20         3.5840    4.6540    6.3400 ca        1 B8L     -0.102500
     26 C21         3.9400    3.5940    5.5090 ca        1 B8L     -0.070000
     27 C22         3.8690    7.0320    7.0980 c         1 B8L      0.600300
     28 O22         3.7310    8.1620    6.6270 o         1 B8L     -0.477100
     29 C23         3.7160    6.7410    8.5430 ca        1 B8L     -0.156600
     30 C24         4.8070    6.9210    9.3910 ca        1 B8L     -0.098000
     31 C26         4.6640    6.6880   10.7710 ca        1 B8L      0.104100
     32 O26         5.8160    6.8780   11.5080 os        1 B8L     -0.322900
     33 C27         3.4330    6.2890   11.3070 ca        1 B8L     -0.148000
     34 C28         2.3440    6.1090   10.4600 ca        1 B8L     -0.166000
     35 C29         2.4840    6.3260    9.0830 ca        1 B8L      0.109100
     36 O29         1.4460    6.1110    8.2000 oh        1 B8L     -0.512100
     37 C66         2.2360   -2.0930   -3.4970 c3        1 B8L     -0.027400
     38 C71         3.5740   -2.6850   -3.9330 c3        1 B8L     -0.074400
     39 C72         1.7280   -1.0770   -4.5030 c3        1 B8L     -0.092100
     40 C81         3.4100   -3.7000   -5.0350 c3        1 B8L     -0.096100
     41 C30         5.6800    6.7870   12.9230 c3        1 B8L      0.110700
     42 HO1         0.0970   -3.0250   -0.5190 ho        1 B8L      0.443000
     43 H2          0.9540   -1.5720    1.0110 ha        1 B8L      0.161000
     44 H3          2.5970    0.2100    1.4070 ha        1 B8L      0.139000
     45 H5          3.9390   -0.1210   -2.7290 ha        1 B8L      0.171000
     46 HN8         4.7830    2.4250    1.1410 hn        1 B8L      0.466300
     47 H8          6.8980    1.8510    0.0840 hx        1 B8L      0.139700
     48 H9          7.0210    0.9080    3.0310 h1        1 B8L      0.088700
     49 H101        8.4310    3.3630    1.8360 hc        1 B8L      0.074700
     50 H102        8.9580    2.2300    3.1410 hc        1 B8L      0.074700
     51 H111       10.4210    1.7930    1.3650 hc        1 B8L      0.070700
     52 H112        9.1580    1.9360    0.0890 hc        1 B8L      0.070700
     53 H121        9.0780   -0.3050    2.2280 h1        1 B8L      0.050200
     54 H122       10.1680   -0.4200    0.7720 h1        1 B8L      0.050200
     55 H13         8.2870   -1.4260    0.0660 hn        1 B8L      0.399800
     56 H141        6.1150   -0.7140   -0.0030 h1        1 B8L      0.048700
     57 H142        6.5910   -0.7730    1.7580 h1        1 B8L      0.048700
     58 H17         6.4470    5.1140    3.7260 ha        1 B8L      0.157000
     59 H18         5.7730    7.0240    5.1980 ha        1 B8L      0.171000
     60 H20         2.7720    4.5350    7.0790 ha        1 B8L      0.171000
     61 H21         3.4220    2.6240    5.5880 ha        1 B8L      0.157000
     62 H24         5.7790    7.2550    9.0000 ha        1 B8L      0.160000
     63 H27         3.3140    6.1190   12.3870 ha        1 B8L      0.151000
     64 H28         1.3720    5.8010   10.8720 ha        1 B8L      0.145000
     65 H29         0.6190    6.1220    8.7050 ho        1 B8L      0.431000
     66 H66         1.4840   -2.9350   -3.4370 hc        1 B8L      0.087700
     67 H711        4.2530   -1.8610   -4.2760 hc        1 B8L      0.038200
     68 H712        4.0630   -3.1770   -3.0510 hc        1 B8L      0.038200
     69 H721        1.6150   -1.5600   -5.5040 hc        1 B8L      0.045367
     70 H722        2.4410   -0.2230   -4.6010 hc        1 B8L      0.045367
     71 H723        0.7340   -0.6790   -4.1880 hc        1 B8L      0.045367
     72 H811        2.7520   -4.5410   -4.7050 hc        1 B8L      0.043367
     73 H812        2.9560   -3.2350   -5.9430 hc        1 B8L      0.043367
     74 H813        4.4060   -4.1210   -5.3160 hc        1 B8L      0.043367
     75 H301        6.7050    7.0370   13.2960 h1        1 B8L      0.050700
     76 H302        5.3940    5.7490   13.2220 h1        1 B8L      0.050700
     77 H303        4.9310    7.5260   13.2980 h1        1 B8L      0.050700
     78 H82         4.5330    0.8370    1.5800 hn        1 B8L      0.466300
@<TRIPOS>BOND
     1    1    2 1   
     2    1   42 1   
     3    2    3 ar  
     4    2    7 ar  
     5    3    4 ar  
     6    3   43 1   
     7    4    5 ar  
     8    4   44 1   
     9    5    6 ar  
    10    5    8 1   
    11    6    7 ar  
    12    6   45 1   
    13    7   37 1   
    14    8    9 2   
    15    8   10 1   
    16   10   11 1   
    17   10   46 1   
    18   10   78 1   
    19   11   12 1   
    20   11   18 1   
    21   11   47 1   
    22   12   13 1   
    23   12   17 1   
    24   12   48 1   
    25   13   14 1   
    26   13   49 1   
    27   13   50 1   
    28   14   15 1   
    29   14   51 1   
    30   14   52 1   
    31   15   16 1   
    32   15   53 1   
    33   15   54 1   
    34   16   18 1   
    35   16   55 1   
    36   17   19 1   
    37   18   56 1   
    38   18   57 1   
    39   19   20 2   
    40   19   21 1   
    41   21   22 ar  
    42   21   26 ar  
    43   22   23 ar  
    44   22   58 1   
    45   23   24 ar  
    46   23   59 1   
    47   24   25 ar  
    48   24   27 1   
    49   25   26 ar  
    50   25   60 1   
    51   26   61 1   
    52   27   28 2   
    53   27   29 1   
    54   29   30 ar  
    55   29   35 ar  
    56   30   31 ar  
    57   30   62 1   
    58   31   32 1   
    59   31   33 ar  
    60   32   41 1   
    61   33   34 ar  
    62   33   63 1   
    63   34   35 ar  
    64   34   64 1   
    65   35   36 1   
    66   36   65 1   
    67   37   38 1   
    68   37   39 1   
    69   37   66 1   
    70   38   40 1   
    71   38   67 1   
    72   38   68 1   
    73   39   69 1   
    74   39   70 1   
    75   39   71 1   
    76   40   72 1   
    77   40   73 1   
    78   40   74 1   
    79   41   75 1   
    80   41   76 1   
    81   41   77 1   
@<TRIPOS>SUBSTRUCTURE
     1 B8L         1 TEMP              0 ****  ****    0 ROOT
