@<TRIPOS>MOLECULE
B8L
   77    80     1     0     0
SMALL
bcc


@<TRIPOS>ATOM
      1 O1          4.8590   -0.6950    2.5540 oh        1 B8L     -0.499100
      2 C1          3.5720   -0.3960    2.9320 ca        1 B8L      0.147100
      3 C2          2.6140   -0.5090    1.9080 ca        1 B8L     -0.165000
      4 C3          1.2810   -0.2350    2.1820 ca        1 B8L     -0.079000
      5 C4          0.8990    0.1570    3.4690 ca        1 B8L     -0.176600
      6 C5          1.8570    0.2790    4.4790 ca        1 B8L     -0.041000
      7 C6          3.2030   -0.0120    4.2380 ca        1 B8L     -0.158300
      8 C7         -0.5160    0.4910    3.7970 c         1 B8L      0.673700
      9 O7         -0.8070    1.4600    4.5260 o         1 B8L     -0.598100
     10 N8         -1.4900   -0.3740    3.3180 n         1 B8L     -0.544900
     11 C8         -2.8940   -0.0380    3.3710 c3        1 B8L      0.094700
     12 C9         -3.6070   -0.0040    1.9890 c3        1 B8L      0.131100
     13 C10        -4.6790    1.0750    1.9130 c3        1 B8L     -0.101400
     14 C11        -5.5990    1.1420    3.1080 c3        1 B8L     -0.076400
     15 C12        -5.9020   -0.2170    3.7370 c3        1 B8L      0.165800
     16 N13        -4.9340   -0.6210    4.7330 n3        1 B8L     -0.831200
     17 O9         -2.6220    0.2890    0.9720 os        1 B8L     -0.445900
     18 C14        -3.6520   -1.0780    4.2550 c3        1 B8L      0.161800
     19 C15        -2.8840   -0.1390   -0.3020 c         1 B8L      0.647700
     20 O15        -3.9200   -0.7760   -0.5130 o         1 B8L     -0.540000
     21 C16        -1.8440    0.2270   -1.2790 ca        1 B8L     -0.114600
     22 C17        -0.7740    1.0590   -0.9310 ca        1 B8L     -0.090500
     23 C18         0.1850    1.3880   -1.8870 ca        1 B8L     -0.097500
     24 C19         0.0870    0.8810   -3.1900 ca        1 B8L     -0.131600
     25 C20        -0.9860    0.0500   -3.5330 ca        1 B8L     -0.097500
     26 C21        -1.9510   -0.2740   -2.5830 ca        1 B8L     -0.090500
     27 C22         1.1310    1.2440   -4.1790 c         1 B8L      0.603300
     28 O22         1.8750    2.2140   -4.0110 o         1 B8L     -0.499100
     29 C23         1.2370    0.3810   -5.3840 ca        1 B8L     -0.151600
     30 C24         0.4600    0.6540   -6.5070 ca        1 B8L     -0.101000
     31 C26         0.5860   -0.1480   -7.6550 ca        1 B8L      0.090100
     32 O26        -0.2480    0.2090   -8.7000 os        1 B8L     -0.323900
     33 C27         1.4880   -1.2160   -7.6890 ca        1 B8L     -0.151000
     34 C28         2.2680   -1.4880   -6.5680 ca        1 B8L     -0.180000
     35 C29         2.1460   -0.6960   -5.4200 ca        1 B8L      0.124100
     36 O29         2.8840   -0.9310   -4.2810 oh        1 B8L     -0.492100
     37 C66         4.2270    0.0930    5.3260 c3        1 B8L     -0.020400
     38 C71         3.6260   -0.1180    6.7110 c3        1 B8L     -0.076400
     39 C72         4.9390    1.4320    5.2420 c3        1 B8L     -0.095100
     40 C81         4.6720   -0.4970    7.7290 c3        1 B8L     -0.094100
     41 C30        -0.0860   -0.5230   -9.9080 c3        1 B8L      0.112700
     42 HO1         5.4620   -0.4330    3.2650 ho        1 B8L      0.426000
     43 H2          2.9390   -0.8090    0.9010 ha        1 B8L      0.156000
     44 H3          0.5370   -0.3050    1.3710 ha        1 B8L      0.139000
     45 H5          1.5310    0.6210    5.4760 ha        1 B8L      0.158000
     46 HN8        -1.2250   -1.0360    2.6270 hn        1 B8L      0.306500
     47 H8         -2.9890    0.9860    3.8470 h1        1 B8L      0.112700
     48 H9         -4.0550   -1.0140    1.7680 h1        1 B8L      0.072700
     49 H101       -5.2770    0.8770    0.9820 hc        1 B8L      0.058700
     50 H102       -4.1780    2.0710    1.7800 hc        1 B8L      0.058700
     51 H111       -6.5730    1.5910    2.7770 hc        1 B8L      0.054700
     52 H112       -5.1670    1.8330    3.8820 hc        1 B8L      0.054700
     53 H121       -6.0190   -0.9810    2.9120 h1        1 B8L      0.030200
     54 H122       -6.8980   -0.1380    4.2630 h1        1 B8L      0.030200
     55 H13        -5.3310   -1.3210    5.3310 hn        1 B8L      0.369800
     56 H141       -3.7280   -2.0450    3.6730 h1        1 B8L      0.036200
     57 H142       -3.0290   -1.2830    5.1740 h1        1 B8L      0.036200
     58 H17        -0.6980    1.4570    0.0940 ha        1 B8L      0.161000
     59 H18         1.0270    2.0510   -1.6280 ha        1 B8L      0.157500
     60 H20        -1.0700   -0.3460   -4.5580 ha        1 B8L      0.157500
     61 H21        -2.8030   -0.9220   -2.8470 ha        1 B8L      0.161000
     62 H24        -0.2480    1.4960   -6.5110 ha        1 B8L      0.161000
     63 H27         1.5930   -1.8430   -8.5860 ha        1 B8L      0.144000
     64 H28         2.9830   -2.3240   -6.5860 ha        1 B8L      0.140000
     65 H29         3.5170   -1.6370   -4.4760 ho        1 B8L      0.424000
     66 H66         4.9870   -0.7290    5.1720 hc        1 B8L      0.044700
     67 H711        2.8560   -0.9330    6.6580 hc        1 B8L      0.048700
     68 H712        3.1050    0.8190    7.0420 hc        1 B8L      0.048700
     69 H721        4.2220    2.2680    5.4220 hc        1 B8L      0.040700
     70 H722        5.7500    1.4860    6.0080 hc        1 B8L      0.040700
     71 H723        5.3930    1.5700    4.2300 hc        1 B8L      0.040700
     72 H811        4.1940   -0.6470    8.7280 hc        1 B8L      0.035033
     73 H812        5.1840   -1.4460    7.4390 hc        1 B8L      0.035033
     74 H813        5.4450    0.3030    7.8270 hc        1 B8L      0.035033
     75 H301       -0.8170   -0.0390  -10.6050 h1        1 B8L      0.045700
     76 H302        0.9570   -0.4220  -10.2970 h1        1 B8L      0.045700
     77 H303       -0.3430   -1.5990   -9.7530 h1        1 B8L      0.045700
@<TRIPOS>BOND
     1    1    2 1   
     2    1   42 1   
     3    2    3 ar  
     4    2    7 ar  
     5    3    4 ar  
     6    3   43 1   
     7    4    5 ar  
     8    4   44 1   
     9    5    6 ar  
    10    5    8 1   
    11    6    7 ar  
    12    6   45 1   
    13    7   37 1   
    14    8    9 2   
    15    8   10 1   
    16   10   11 1   
    17   10   46 1   
    18   11   12 1   
    19   11   18 1   
    20   11   47 1   
    21   12   13 1   
    22   12   17 1   
    23   12   48 1   
    24   13   14 1   
    25   13   49 1   
    26   13   50 1   
    27   14   15 1   
    28   14   51 1   
    29   14   52 1   
    30   15   16 1   
    31   15   53 1   
    32   15   54 1   
    33   16   18 1   
    34   16   55 1   
    35   17   19 1   
    36   18   56 1   
    37   18   57 1   
    38   19   20 2   
    39   19   21 1   
    40   21   22 ar  
    41   21   26 ar  
    42   22   23 ar  
    43   22   58 1   
    44   23   24 ar  
    45   23   59 1   
    46   24   25 ar  
    47   24   27 1   
    48   25   26 ar  
    49   25   60 1   
    50   26   61 1   
    51   27   28 2   
    52   27   29 1   
    53   29   30 ar  
    54   29   35 ar  
    55   30   31 ar  
    56   30   62 1   
    57   31   32 1   
    58   31   33 ar  
    59   32   41 1   
    60   33   34 ar  
    61   33   63 1   
    62   34   35 ar  
    63   34   64 1   
    64   35   36 1   
    65   36   65 1   
    66   37   38 1   
    67   37   39 1   
    68   37   66 1   
    69   38   40 1   
    70   38   67 1   
    71   38   68 1   
    72   39   69 1   
    73   39   70 1   
    74   39   71 1   
    75   40   72 1   
    76   40   73 1   
    77   40   74 1   
    78   41   75 1   
    79   41   76 1   
    80   41   77 1   
@<TRIPOS>SUBSTRUCTURE
     1 B8L         1 TEMP              0 ****  ****    0 ROOT
