@<TRIPOS>MOLECULE
B8L
   77    74     1     0     0
SMALL
bcc


@<TRIPOS>ATOM
      1 O1         -5.8510   -3.1860   -0.6960 oh        1 B8L     -0.248000
      2 C1         -4.4450   -3.3540   -0.6420 c2        1 B8L      0.102000
      3 C2         -3.7440   -2.9550    0.4920 c2        1 B8L     -0.223000
      4 C3         -2.3420   -2.9060    0.4700 c1        1 B8L     -0.067000
      5 C4         -1.6580   -3.2520   -0.6690 c1        1 B8L     -0.156000
      6 C5         -2.3510   -3.6500   -1.7980 c1        1 B8L     -0.045000
      7 C6         -3.7630   -3.6990   -1.7770 c1        1 B8L     -0.099000
      8 C7         -0.0970   -3.2340   -0.6710 c2        1 B8L      0.356000
      9 O7          0.5240   -3.5440   -1.6880 o         1 B8L     -0.370000
     10 N8          0.6280   -2.8160    0.5320 n         1 B8L     -0.381000
     11 C8          2.0720   -2.7690    0.5240 c3        1 B8L      0.016000
     12 C9          2.5440   -1.8180    1.5720 c3        1 B8L      0.026000
     13 C10         3.8140   -1.0670    1.0990 c3        1 B8L     -0.159000
     14 C11         4.7190   -2.0000    0.2600 c3        1 B8L     -0.157000
     15 C12         4.8250   -3.3880    0.9170 c3        1 B8L     -0.071000
     16 N13         3.9610   -4.3140    0.2820 n3        1 B8L     -0.307000
     17 O9          1.5180   -0.8830    1.8400 os        1 B8L     -0.264000
     18 C14         2.6240   -4.1920    0.7720 c3        1 B8L     -0.083000
     19 C15         1.7740   -0.0290    2.9880 c2        1 B8L      0.352000
     20 O15         2.2160   -0.5090    4.0160 o         1 B8L     -0.377000
     21 C16         1.6220    1.4770    2.8610 c2        1 B8L     -0.095000
     22 C17         0.3700    2.0720    3.0590 c2        1 B8L     -0.094000
     23 C18         0.2520    3.4590    3.0570 c1        1 B8L     -0.093000
     24 C19         1.3610    4.2380    2.8600 c1        1 B8L     -0.112000
     25 C20         2.6110    3.6410    2.6620 c1        1 B8L     -0.102000
     26 C21         2.7300    2.2610    2.6640 c1        1 B8L     -0.081000
     27 C22         1.2060    5.8200    2.7270 c2        1 B8L      0.324000
     28 O22         1.1770    6.4990    3.7060 o         1 B8L     -0.263000
     29 C23         1.1690    6.4860    1.3200 c2        1 B8L     -0.131000
     30 C24        -0.0420    6.7180    0.7000 c2        1 B8L     -0.101000
     31 C26        -0.0810    7.3440   -0.5310 c1        1 B8L      0.046000
     32 O26        -1.3490    7.5630   -1.1870 o         1 B8L     -0.207000
     33 C27         1.0970    7.7390   -1.1470 c2        1 B8L     -0.151000
     34 C28         2.3100    7.5080   -0.5290 c1        1 B8L     -0.180000
     35 C29         2.3480    6.8800    0.7060 c1        1 B8L      0.079000
     36 O29         3.5700    6.7630    1.3930 oh        1 B8L     -0.245000
     37 C66        -4.5400   -4.1690   -3.0240 c3        1 B8L     -0.064000
     38 C71        -4.3480   -5.6770   -3.2050 c3        1 B8L     -0.155000
     39 C72        -4.0350   -3.4400   -4.2400 c3        1 B8L     -0.206000
     40 C81        -5.5790   -6.2750   -3.9740 c3        1 B8L     -0.210000
     41 C30        -1.8140    8.9510   -1.1370 c3        1 B8L     -0.077000
     42 HO1        -6.2250   -3.7390   -0.1640 ho        1 B8L      0.221000
     43 H2         -4.2080   -2.7190    1.2700 ha        1 B8L      0.138000
     44 H3         -1.8410   -2.6190    1.2840 ha        1 B8L      0.142000
     45 H5         -1.8480   -3.9040   -2.6350 ha        1 B8L      0.161000
     46 HN8         0.1570   -2.6420    1.3280 hn        1 B8L      0.237000
     47 H8          2.3660   -2.4670   -0.3170 h1        1 B8L      0.153000
     48 H9          2.7610   -2.3390    2.4320 h1        1 B8L      0.108000
     49 H101        4.3160   -0.7500    1.8870 hc        1 B8L      0.094500
     50 H102        3.5410   -0.2630    0.5300 hc        1 B8L      0.094500
     51 H111        4.3460   -2.0950   -0.6160 hc        1 B8L      0.096000
     52 H112        5.6160   -1.6050    0.1880 hc        1 B8L      0.096000
     53 H121        4.5650   -3.3110    1.9180 h1        1 B8L      0.068000
     54 H122        5.7650   -3.7160    0.8450 h1        1 B8L      0.068000
     55 H13         4.2600   -5.1560    0.4300 hn        1 B8L      0.165000
     56 H141        2.6110   -4.3930    1.7710 h1        1 B8L      0.077000
     57 H142        2.0500   -4.8410    0.3040 h1        1 B8L      0.077000
     58 H17        -0.4010    1.5280    3.1960 ha        1 B8L      0.159000
     59 H18        -0.6480    3.8910    3.2000 ha        1 B8L      0.161000
     60 H20         3.3700    4.1750    2.5280 ha        1 B8L      0.152000
     61 H21         3.6100    1.8440    2.5260 ha        1 B8L      0.163000
     62 H24        -0.8560    6.4600    1.1320 ha        1 B8L      0.161000
     63 H27         1.0690    8.1910   -2.0360 ha        1 B8L      0.144000
     64 H28         3.1080    7.7760   -0.9450 ha        1 B8L      0.140000
     65 H29         3.8480    7.5960    1.6710 ho        1 B8L      0.223000
     66 H66        -5.4730   -3.9800   -2.9070 hc        1 B8L      0.112000
     67 H711       -3.5110   -5.8480   -3.7340 hc        1 B8L      0.082000
     68 H712       -4.2720   -6.0930   -2.3480 hc        1 B8L      0.082000
     69 H721       -3.6270   -2.5870   -3.9670 hc        1 B8L      0.077000
     70 H722       -4.8050   -3.2570   -4.8630 hc        1 B8L      0.077000
     71 H723       -3.3770   -3.9820   -4.6920 hc        1 B8L      0.077000
     72 H811       -5.7210   -7.2290   -3.6910 hc        1 B8L      0.073000
     73 H812       -5.4020   -6.2410   -4.9600 hc        1 B8L      0.073000
     74 H813       -6.3830   -5.7490   -3.7680 hc        1 B8L      0.073000
     75 H301       -1.1020    9.5360   -1.3990 h1        1 B8L      0.085333
     76 H302       -2.5640    9.0620   -1.7440 h1        1 B8L      0.085333
     77 H303       -2.0990    9.1710   -0.2180 h1        1 B8L      0.085333
@<TRIPOS>BOND
     1    1    2 1   
     2    1   42 1   
     3    2    3 1   
     4    2    7 1   
     5    3    4 1   
     6    3   43 1   
     7    4   44 1   
     8    5    6 1   
     9    5    8 1   
    10    6   45 1   
    11    7   37 1   
    12    8    9 1   
    13    8   10 1   
    14   10   11 1   
    15   10   46 1   
    16   11   12 1   
    17   11   18 1   
    18   11   47 1   
    19   12   13 1   
    20   12   17 1   
    21   12   48 1   
    22   13   14 1   
    23   13   49 1   
    24   13   50 1   
    25   14   15 1   
    26   14   51 1   
    27   14   52 1   
    28   15   16 1   
    29   15   53 1   
    30   15   54 1   
    31   16   18 1   
    32   16   55 1   
    33   17   19 1   
    34   18   56 1   
    35   18   57 1   
    36   19   20 1   
    37   19   21 1   
    38   21   22 1   
    39   21   26 1   
    40   22   23 1   
    41   22   58 1   
    42   23   59 1   
    43   24   25 1   
    44   24   27 1   
    45   25   60 1   
    46   26   61 1   
    47   27   28 1   
    48   27   29 1   
    49   29   30 1   
    50   29   35 1   
    51   30   31 1   
    52   30   62 1   
    53   31   33 1   
    54   32   41 1   
    55   33   34 1   
    56   33   63 1   
    57   34   64 1   
    58   35   36 1   
    59   36   65 1   
    60   37   38 1   
    61   37   39 1   
    62   37   66 1   
    63   38   40 1   
    64   38   67 1   
    65   38   68 1   
    66   39   69 1   
    67   39   70 1   
    68   39   71 1   
    69   40   72 1   
    70   40   73 1   
    71   40   74 1   
    72   41   75 1   
    73   41   76 1   
    74   41   77 1   
@<TRIPOS>SUBSTRUCTURE
     1 B8L         1 TEMP              0 ****  ****    0 ROOT
