@<TRIPOS>MOLECULE
B8M
   47    46     1     0     0
SMALL
bcc


@<TRIPOS>ATOM
      1 C16         1.8600   -0.6720   -2.2580 c3        1 B8M     -0.093100
      2 C15         1.8840   -0.9570   -0.7780 c3        1 B8M     -0.080400
      3 C14         2.5220    0.1770   -0.0050 c3        1 B8M     -0.079400
      4 C13         2.5440   -0.1140    1.4810 c3        1 B8M     -0.078400
      5 C12         3.1830    1.0240    2.2510 c3        1 B8M     -0.052200
      6 C11         3.2150    0.7630    3.7090 c2        1 B8M     -0.152200
      7 C10         3.7190    1.6010    4.6270 ce        1 B8M     -0.146000
      8 C9          4.3080    2.8890    4.3320 ce        1 B8M     -0.145000
      9 C8          4.8060    3.7290    5.2500 c2        1 B8M     -0.153200
     10 C7          4.8290    3.4720    6.7090 c3        1 B8M     -0.052200
     11 C6          5.4490    4.6200    7.4810 c3        1 B8M     -0.078400
     12 C5          5.4610    4.3330    8.9680 c3        1 B8M     -0.079400
     13 C4          6.0790    5.4790    9.7410 c3        1 B8M     -0.078400
     14 C3          6.0900    5.1930   11.2280 c3        1 B8M     -0.078400
     15 C2          6.7070    6.3400   11.9970 c3        1 B8M     -0.084400
     16 C1          6.7130    6.0420   13.4870 c3        1 B8M      0.131400
     17 O           7.3040    7.1590   14.1330 oh        1 B8M     -0.601800
     18 H161        1.2770    0.2560   -2.4710 hc        1 B8M      0.032700
     19 H162        1.3860   -1.5200   -2.8090 hc        1 B8M      0.032700
     20 H163        2.8960   -0.5320   -2.6500 hc        1 B8M      0.032700
     21 H151        2.4520   -1.9060   -0.5860 hc        1 B8M      0.038700
     22 H152        0.8370   -1.1190   -0.4080 hc        1 B8M      0.038700
     23 H141        1.9540    1.1260   -0.1940 hc        1 B8M      0.039700
     24 H142        3.5690    0.3400   -0.3720 hc        1 B8M      0.039700
     25 H131        1.4960   -0.2760    1.8480 hc        1 B8M      0.041700
     26 H132        3.1120   -1.0620    1.6700 hc        1 B8M      0.041700
     27 H121        2.6140    1.9740    2.0510 hc        1 B8M      0.050700
     28 H122        4.2300    1.1870    1.8750 hc        1 B8M      0.050700
     29 H11         2.7850   -0.2010    4.0300 ha        1 B8M      0.121000
     30 H10         3.6960    1.3140    5.6940 ha        1 B8M      0.121000
     31 H9          4.3360    3.1720    3.2650 ha        1 B8M      0.121000
     32 H8          5.2370    4.6930    4.9290 ha        1 B8M      0.121000
     33 H71C        5.4070    2.5300    6.9160 hc        1 B8M      0.050700
     34 H72C        3.7810    3.2990    7.0780 hc        1 B8M      0.050700
     35 H61C        6.4980    4.7920    7.1230 hc        1 B8M      0.042200
     36 H62C        4.8720    5.5610    7.2840 hc        1 B8M      0.042200
     37 H51C        6.0370    3.3920    9.1650 hc        1 B8M      0.039700
     38 H52C        4.4120    4.1600    9.3260 hc        1 B8M      0.039700
     39 H41C        5.5020    6.4210    9.5440 hc        1 B8M      0.042700
     40 H42C        7.1280    5.6520    9.3840 hc        1 B8M      0.042700
     41 H31C        6.6670    4.2510   11.4250 hc        1 B8M      0.039700
     42 H32C        5.0400    5.0200   11.5850 hc        1 B8M      0.039700
     43 H21C        7.7590    6.5180   11.6520 hc        1 B8M      0.055700
     44 H22C        6.1340    7.2850   11.8120 hc        1 B8M      0.055700
     45 H11C        5.6650    5.8920   13.8640 h1        1 B8M      0.019700
     46 H12C        7.3100    5.1150   13.7020 h1        1 B8M      0.019700
     47 H           7.3040    6.9620   15.0760 ho        1 B8M      0.398000
@<TRIPOS>BOND
     1    1    2 1   
     2    1   18 1   
     3    1   19 1   
     4    1   20 1   
     5    2    3 1   
     6    2   21 1   
     7    2   22 1   
     8    3    4 1   
     9    3   23 1   
    10    3   24 1   
    11    4    5 1   
    12    4   25 1   
    13    4   26 1   
    14    5    6 1   
    15    5   27 1   
    16    5   28 1   
    17    6    7 2   
    18    6   29 1   
    19    7    8 1   
    20    7   30 1   
    21    8    9 2   
    22    8   31 1   
    23    9   10 1   
    24    9   32 1   
    25   10   11 1   
    26   10   33 1   
    27   10   34 1   
    28   11   12 1   
    29   11   35 1   
    30   11   36 1   
    31   12   13 1   
    32   12   37 1   
    33   12   38 1   
    34   13   14 1   
    35   13   39 1   
    36   13   40 1   
    37   14   15 1   
    38   14   41 1   
    39   14   42 1   
    40   15   16 1   
    41   15   43 1   
    42   15   44 1   
    43   16   17 1   
    44   16   45 1   
    45   16   46 1   
    46   17   47 1   
@<TRIPOS>SUBSTRUCTURE
     1 B8M         1 TEMP              0 ****  ****    0 ROOT
