@<TRIPOS>MOLECULE
B8M
   47    46     1     0     0
SMALL
bcc


@<TRIPOS>ATOM
      1 C16         8.3560    2.7950   -0.3890 c3        1 B8M     -0.093100
      2 C15         7.8780    1.3660   -0.4280 c3        1 B8M     -0.080400
      3 C14         6.3920    1.2700   -0.1580 c3        1 B8M     -0.079400
      4 C13         5.9170   -0.1670   -0.1990 c3        1 B8M     -0.078400
      5 C12         4.4290   -0.2590    0.0720 c3        1 B8M     -0.052200
      6 C11         3.9400   -1.6570    0.0370 c2        1 B8M     -0.154200
      7 C10         2.6690   -2.0290    0.2430 ce        1 B8M     -0.144000
      8 C9          1.5790   -1.1200    0.5310 ce        1 B8M     -0.141000
      9 C8          0.3200   -1.5300    0.7360 c2        1 B8M     -0.156200
     10 C7         -0.7980   -0.6110    1.0530 c3        1 B8M     -0.050200
     11 C6         -2.0490   -0.9640    0.2730 c3        1 B8M     -0.076400
     12 C5         -3.1880   -0.0280    0.6180 c3        1 B8M     -0.079400
     13 C4         -4.4400   -0.3810   -0.1570 c3        1 B8M     -0.078400
     14 C3         -5.5790    0.5560    0.1870 c3        1 B8M     -0.078400
     15 C2         -6.8280    0.2000   -0.5880 c3        1 B8M     -0.084400
     16 C1         -7.9630    1.1460   -0.2360 c3        1 B8M      0.132400
     17 O          -9.0910    0.7460   -0.9980 oh        1 B8M     -0.601800
     18 H161        9.4530    2.8430   -0.5900 hc        1 B8M      0.032700
     19 H162        7.8290    3.4080   -1.1590 hc        1 B8M      0.032700
     20 H163        8.1610    3.2490    0.6130 hc        1 B8M      0.032700
     21 H151        8.1050    0.9200   -1.4320 hc        1 B8M      0.038700
     22 H152        8.4360    0.7610    0.3350 hc        1 B8M      0.038700
     23 H141        6.1630    1.7140    0.8460 hc        1 B8M      0.039700
     24 H142        5.8320    1.8730   -0.9210 hc        1 B8M      0.039700
     25 H131        6.1450   -0.6110   -1.2040 hc        1 B8M      0.041700
     26 H132        6.4760   -0.7700    0.5640 hc        1 B8M      0.041700
     27 H121        4.2050    0.1940    1.0760 hc        1 B8M      0.050700
     28 H122        3.8740    0.3530   -0.6920 hc        1 B8M      0.050700
     29 H11         4.7040   -2.4240   -0.1760 ha        1 B8M      0.121000
     30 H10         2.4010   -3.0990    0.1970 ha        1 B8M      0.120000
     31 H9          1.8370   -0.0470    0.5760 ha        1 B8M      0.122000
     32 H8          0.0530   -2.5990    0.6880 ha        1 B8M      0.121000
     33 H71C       -1.0160   -0.6760    2.1550 hc        1 B8M      0.047200
     34 H72C       -0.5110    0.4540    0.8380 hc        1 B8M      0.047200
     35 H61C       -1.8350   -0.9080   -0.8260 hc        1 B8M      0.042700
     36 H62C       -2.3490   -2.0210    0.5000 hc        1 B8M      0.042700
     37 H51C       -3.3990   -0.0810    1.7190 hc        1 B8M      0.039700
     38 H52C       -2.8890    1.0290    0.3890 hc        1 B8M      0.039700
     39 H41C       -4.2290   -0.3290   -1.2570 hc        1 B8M      0.042200
     40 H42C       -4.7400   -1.4370    0.0730 hc        1 B8M      0.042200
     41 H31C       -5.7890    0.5040    1.2880 hc        1 B8M      0.039700
     42 H32C       -5.2790    1.6120   -0.0440 hc        1 B8M      0.039700
     43 H21C       -6.6310    0.2540   -1.6900 hc        1 B8M      0.055700
     44 H22C       -7.1410   -0.8520   -0.3590 hc        1 B8M      0.055700
     45 H11C       -8.2020    1.0870    0.8600 h1        1 B8M      0.019700
     46 H12C       -7.6870    2.2060   -0.4880 h1        1 B8M      0.019700
     47 H          -9.8050    1.3510   -0.7700 ho        1 B8M      0.398000
@<TRIPOS>BOND
     1    1    2 1   
     2    1   18 1   
     3    1   19 1   
     4    1   20 1   
     5    2    3 1   
     6    2   21 1   
     7    2   22 1   
     8    3    4 1   
     9    3   23 1   
    10    3   24 1   
    11    4    5 1   
    12    4   25 1   
    13    4   26 1   
    14    5    6 1   
    15    5   27 1   
    16    5   28 1   
    17    6    7 2   
    18    6   29 1   
    19    7    8 1   
    20    7   30 1   
    21    8    9 2   
    22    8   31 1   
    23    9   10 1   
    24    9   32 1   
    25   10   11 1   
    26   10   33 1   
    27   10   34 1   
    28   11   12 1   
    29   11   35 1   
    30   11   36 1   
    31   12   13 1   
    32   12   37 1   
    33   12   38 1   
    34   13   14 1   
    35   13   39 1   
    36   13   40 1   
    37   14   15 1   
    38   14   41 1   
    39   14   42 1   
    40   15   16 1   
    41   15   43 1   
    42   15   44 1   
    43   16   17 1   
    44   16   45 1   
    45   16   46 1   
    46   17   47 1   
@<TRIPOS>SUBSTRUCTURE
     1 B8M         1 TEMP              0 ****  ****    0 ROOT
