@<TRIPOS>MOLECULE
B8M
   47    46     1     0     0
SMALL
bcc


@<TRIPOS>ATOM
      1 C16         1.8770   -0.8410   -2.1870 c3        1 B8M     -0.093100
      2 C15         1.9120   -1.1010   -0.7030 c3        1 B8M     -0.080400
      3 C14         2.5260    0.0600    0.0500 c3        1 B8M     -0.079400
      4 C13         2.5590   -0.2070    1.5390 c3        1 B8M     -0.078400
      5 C12         3.1750    0.9580    2.2890 c3        1 B8M     -0.052200
      6 C11         3.2180    0.7200    3.7510 c2        1 B8M     -0.152200
      7 C10         3.7090    1.5820    4.6530 ce        1 B8M     -0.146000
      8 C9          4.2730    2.8760    4.3360 ce        1 B8M     -0.145000
      9 C8          4.7640    3.7380    5.2380 c2        1 B8M     -0.153200
     10 C7          4.8070    3.5010    6.6990 c3        1 B8M     -0.052200
     11 C6          5.4210    4.6660    7.4490 c3        1 B8M     -0.078400
     12 C5          5.4540    4.3990    8.9390 c3        1 B8M     -0.079400
     13 C4          6.0660    5.5620    9.6900 c3        1 B8M     -0.078400
     14 C3          6.0990    5.2960   11.1800 c3        1 B8M     -0.078400
     15 C2          6.7120    6.4600   11.9270 c3        1 B8M     -0.084400
     16 C1          6.7390    6.1810   13.4200 c3        1 B8M      0.131400
     17 O           7.3250    7.3130   14.0440 oh        1 B8M     -0.601800
     18 H161        1.2730    0.0710   -2.4140 hc        1 B8M      0.032700
     19 H162        1.4210   -1.7080   -2.7230 hc        1 B8M      0.032700
     20 H163        2.9090   -0.6840   -2.5850 hc        1 B8M      0.032700
     21 H151        2.5020   -2.0340   -0.4980 hc        1 B8M      0.038700
     22 H152        0.8700   -1.2810   -0.3280 hc        1 B8M      0.038700
     23 H141        1.9370    0.9930   -0.1530 hc        1 B8M      0.039700
     24 H142        3.5690    0.2400   -0.3240 hc        1 B8M      0.039700
     25 H131        1.5170   -0.3860    1.9130 hc        1 B8M      0.041700
     26 H132        3.1490   -1.1390    1.7420 hc        1 B8M      0.041700
     27 H121        2.5840    1.8910    2.0770 hc        1 B8M      0.050700
     28 H122        4.2170    1.1380    1.9060 hc        1 B8M      0.050700
     29 H11         2.8080   -0.2470    4.0890 ha        1 B8M      0.121000
     30 H10         3.6970    1.3120    5.7240 ha        1 B8M      0.121000
     31 H9          4.2850    3.1460    3.2640 ha        1 B8M      0.121000
     32 H8          5.1740    4.7050    4.8990 ha        1 B8M      0.121000
     33 H71C        5.3980    2.5680    6.9120 hc        1 B8M      0.050700
     34 H72C        3.7650    3.3200    7.0820 hc        1 B8M      0.050700
     35 H61C        6.4640    4.8460    7.0760 hc        1 B8M      0.041700
     36 H62C        4.8300    5.5980    7.2460 hc        1 B8M      0.041700
     37 H51C        6.0440    3.4670    9.1420 hc        1 B8M      0.039700
     38 H52C        4.4110    4.2180    9.3120 hc        1 B8M      0.039700
     39 H41C        5.4760    6.4940    9.4880 hc        1 B8M      0.042700
     40 H42C        7.1090    5.7430    9.3180 hc        1 B8M      0.042700
     41 H31C        6.6900    4.3640   11.3820 hc        1 B8M      0.039700
     42 H32C        5.0560    5.1150   11.5520 hc        1 B8M      0.039700
     43 H21C        7.7570    6.6460   11.5670 hc        1 B8M      0.055700
     44 H22C        6.1260    7.3960   11.7370 hc        1 B8M      0.055700
     45 H11C        5.6990    6.0240   13.8120 h1        1 B8M      0.019700
     46 H12C        7.3500    5.2640   13.6400 h1        1 B8M      0.019700
     47 H           7.3390    7.1290   14.9900 ho        1 B8M      0.398000
@<TRIPOS>BOND
     1    1    2 1   
     2    1   18 1   
     3    1   19 1   
     4    1   20 1   
     5    2    3 1   
     6    2   21 1   
     7    2   22 1   
     8    3    4 1   
     9    3   23 1   
    10    3   24 1   
    11    4    5 1   
    12    4   25 1   
    13    4   26 1   
    14    5    6 1   
    15    5   27 1   
    16    5   28 1   
    17    6    7 2   
    18    6   29 1   
    19    7    8 1   
    20    7   30 1   
    21    8    9 2   
    22    8   31 1   
    23    9   10 1   
    24    9   32 1   
    25   10   11 1   
    26   10   33 1   
    27   10   34 1   
    28   11   12 1   
    29   11   35 1   
    30   11   36 1   
    31   12   13 1   
    32   12   37 1   
    33   12   38 1   
    34   13   14 1   
    35   13   39 1   
    36   13   40 1   
    37   14   15 1   
    38   14   41 1   
    39   14   42 1   
    40   15   16 1   
    41   15   43 1   
    42   15   44 1   
    43   16   17 1   
    44   16   45 1   
    45   16   46 1   
    46   17   47 1   
@<TRIPOS>SUBSTRUCTURE
     1 B8M         1 TEMP              0 ****  ****    0 ROOT
