@<TRIPOS>MOLECULE
B8M
   47    44     1     0     0
SMALL
bcc


@<TRIPOS>ATOM
      1 C16        -6.8550   -1.0220   -5.6860 c3        1 B8M     -0.211000
      2 C15        -5.3580   -0.8040   -5.6900 c3        1 B8M     -0.159000
      3 C14        -4.8690   -0.6360   -4.2690 c3        1 B8M     -0.158000
      4 C13        -3.3750   -0.3930   -4.2750 c3        1 B8M     -0.157000
      5 C12        -2.8910   -0.1930   -2.8550 c3        1 B8M     -0.135000
      6 C11        -1.3920    0.0120   -2.8580 c2        1 B8M     -0.148000
      7 C10        -0.7370    0.2070   -1.6970 c1        1 B8M     -0.146000
      8 C9         -1.5000    0.2220   -0.3910 c1        1 B8M     -0.147000
      9 C8         -0.8340    0.2910    0.7780 c1        1 B8M     -0.147000
     10 C7          0.6780    0.3530    0.7850 c2        1 B8M     -0.135000
     11 C6          1.1650    0.6260    2.1910 c3        1 B8M     -0.157000
     12 C5          2.6320    0.2710    2.2940 c3        1 B8M     -0.158000
     13 C4          3.1610    0.6980    3.6460 c3        1 B8M     -0.157000
     14 C3          4.5570    0.1490    3.8370 c3        1 B8M     -0.157000
     15 C2          5.1350    0.6790    5.1310 c3        1 B8M     -0.163000
     16 C1          6.4670    0.0150    5.3990 c3        1 B8M     -0.019000
     17 O           7.0120    0.5210    6.5970 oh        1 B8M     -0.329000
     18 H161       -7.0590   -1.8770   -5.2530 hc        1 B8M      0.072000
     19 H162       -7.2900   -0.2950   -5.1940 hc        1 B8M      0.072000
     20 H163       -7.1860   -1.0360   -6.6090 hc        1 B8M      0.072000
     21 H151       -4.9170   -1.5760   -6.0980 hc        1 B8M      0.078000
     22 H152       -5.1470    0.0010   -6.2050 hc        1 B8M      0.078000
     23 H141       -5.0650   -1.4470   -3.7580 hc        1 B8M      0.079000
     24 H142       -5.3210    0.1260   -3.8560 hc        1 B8M      0.079000
     25 H131       -3.1770    0.4060   -4.8030 hc        1 B8M      0.081000
     26 H132       -2.9210   -1.1650   -4.6680 hc        1 B8M      0.081000
     27 H121       -3.1120   -0.9820   -2.3210 hc        1 B8M      0.090000
     28 H122       -3.3270    0.5940   -2.4700 hc        1 B8M      0.090000
     29 H11        -0.9000    0.0020   -3.7010 ha        1 B8M      0.121000
     30 H10         0.2300    0.3390   -1.6990 ha        1 B8M      0.121000
     31 H9         -2.4760    0.1820   -0.3950 ha        1 B8M      0.121000
     32 H8         -1.3260    0.3010    1.6210 ha        1 B8M      0.121000
     33 H71C        0.9770    1.0700    0.1910 ha        1 B8M      0.090000
     34 H72C        1.0400   -0.5000    0.4740 ha        1 B8M      0.090000
     35 H61C        0.6530    0.0850    2.8240 hc        1 B8M      0.081000
     36 H62C        1.0440    1.5740    2.4000 hc        1 B8M      0.081000
     37 H51C        2.7410   -0.6960    2.1910 hc        1 B8M      0.079000
     38 H52C        3.1300    0.7320    1.5890 hc        1 B8M      0.079000
     39 H41C        2.5750    0.3520    4.3490 hc        1 B8M      0.082000
     40 H42C        3.1850    1.6750    3.6930 hc        1 B8M      0.082000
     41 H31C        5.1230    0.4280    3.0890 hc        1 B8M      0.079000
     42 H32C        4.5220   -0.8280    3.8720 hc        1 B8M      0.079000
     43 H21C        5.2610    1.6470    5.0590 hc        1 B8M      0.095000
     44 H22C        4.5200    0.4850    5.8660 hc        1 B8M      0.095000
     45 H11C        7.0790    0.2010    4.6570 h1        1 B8M      0.059000
     46 H12C        6.3390   -0.9530    5.4820 h1        1 B8M      0.059000
     47 H           7.8120    0.1570    6.7360 ho        1 B8M      0.197000
@<TRIPOS>BOND
     1    1    2 1   
     2    1   18 1   
     3    1   19 1   
     4    1   20 1   
     5    2    3 1   
     6    2   21 1   
     7    2   22 1   
     8    3    4 1   
     9    3   23 1   
    10    3   24 1   
    11    4    5 1   
    12    4   25 1   
    13    4   26 1   
    14    5    6 1   
    15    5   27 1   
    16    5   28 1   
    17    6    7 1   
    18    6   29 1   
    19    7   30 1   
    20    8    9 1   
    21    8   31 1   
    22    9   32 1   
    23   10   11 1   
    24   10   33 1   
    25   10   34 1   
    26   11   12 1   
    27   11   35 1   
    28   11   36 1   
    29   12   13 1   
    30   12   37 1   
    31   12   38 1   
    32   13   14 1   
    33   13   39 1   
    34   13   40 1   
    35   14   15 1   
    36   14   41 1   
    37   14   42 1   
    38   15   16 1   
    39   15   43 1   
    40   15   44 1   
    41   16   17 1   
    42   16   45 1   
    43   16   46 1   
    44   17   47 1   
@<TRIPOS>SUBSTRUCTURE
     1 B8M         1 TEMP              0 ****  ****    0 ROOT
