@<TRIPOS>MOLECULE
B90
   54    58     1     0     0
SMALL
bcc


@<TRIPOS>ATOM
      1 N1          2.6970   -1.5760   -1.1610 nc        1 B90     -0.502100
      2 C2          3.4960   -1.5760   -0.0750 cd        1 B90      0.344800
      3 C3          3.0510   -0.5600    0.8720 ca        1 B90     -0.211900
      4 C4          1.9050    0.0350    0.2260 ca        1 B90     -0.055200
      5 N5          1.7750   -0.6170   -1.0100 na        1 B90     -0.022100
      6 C6          3.4600   -0.1130    2.1350 ca        1 B90     -0.006800
      7 C7          2.7200    0.9060    2.7440 ca        1 B90     -0.093300
      8 C8          1.6040    1.4790    2.0900 ca        1 B90     -0.100000
      9 C9          1.1800    1.0670    0.8400 ca        1 B90     -0.133000
     10 C10         3.0930    1.4170    4.0850 c3        1 B90     -0.052800
     11 C14         4.5770   -0.7490    2.8190 ce        1 B90     -0.161200
     12 C15         5.8940   -0.5240    2.6620 c2        1 B90     -0.034100
     13 N16         6.5140    0.3910    1.8140 na        1 B90     -0.212200
     14 C17         5.9380    1.3100    0.8920 cc        1 B90      0.431700
     15 N18         6.8370    2.0620    0.2470 nd        1 B90     -0.546100
     16 C19         8.0860    1.6510    0.7400 ca        1 B90     -0.213200
     17 C20         7.9090    0.5960    1.7300 ca        1 B90      0.451800
     18 C21         9.4310    2.0650    0.4540 ca        1 B90      0.752200
     19 N22        10.4620    1.4450    1.1080 nb        1 B90     -0.770000
     20 C23        10.1500    0.4730    2.0080 ca        1 B90      0.679900
     21 N24         8.9430   -0.0110    2.3820 nb        1 B90     -0.716000
     22 N25         9.6230    3.0860   -0.4680 nu        1 B90     -0.732300
     23 C26        10.8520    3.5630   -0.9460 ca        1 B90      0.210600
     24 C27        10.9210    4.0060   -2.2920 ca        1 B90     -0.181000
     25 C28        12.1020    4.5340   -2.7900 ca        1 B90     -0.017500
     26 C29        13.2410    4.6410   -1.9880 ca        1 B90     -0.503500
     27 C30        13.1680    4.2160   -0.6660 ca        1 B90     -0.017500
     28 C31        11.9990    3.6880   -0.1310 ca        1 B90     -0.181000
     29 P36        14.5840    5.2580   -2.6500 py        1 B90      1.496200
     30 C37        15.0490    6.5020   -1.6690 c3        1 B90     -0.457800
     31 C41        15.7650    4.1250   -2.4290 c3        1 B90     -0.457800
     32 O45        14.4190    5.6580   -4.0510 o         1 B90     -0.911300
     33 H2          4.3390   -2.2590    0.0330 h4        1 B90      0.059800
     34 HN5         1.0260   -0.5300   -1.6540 hn        1 B90      0.326700
     35 H8          1.0540    2.2830    2.6060 ha        1 B90      0.139000
     36 H9          0.3110    1.5250    0.3490 ha        1 B90      0.143000
     37 H10         3.8410    2.2440    3.9870 hc        1 B90      0.047367
     38 H10A        3.5460    0.6080    4.7100 hc        1 B90      0.047367
     39 H10B        2.1980    1.8180    4.6230 hc        1 B90      0.047367
     40 H14         4.2760   -1.5160    3.5570 ha        1 B90      0.156000
     41 H15         6.6270   -1.1080    3.2610 h4        1 B90      0.175000
     42 H17         4.8470    1.3550    0.7530 h5        1 B90      0.095800
     43 H23        11.0270    0.0060    2.5080 h5        1 B90      0.058100
     44 HN25        8.8200    3.3210   -1.0160 hn        1 B90      0.465800
     45 H27        10.0420    3.9330   -2.9510 ha        1 B90      0.153000
     46 H28        12.1760    4.8810   -3.8400 ha        1 B90      0.153000
     47 H30        14.0610    4.3070   -0.0260 ha        1 B90      0.153000
     48 H31        11.9850    3.3820    0.9260 ha        1 B90      0.153000
     49 H37        14.2730    7.3050   -1.6170 hc        1 B90      0.091367
     50 H37A       15.9730    7.0020   -2.0490 hc        1 B90      0.091367
     51 H37B       15.2610    6.2020   -0.6160 hc        1 B90      0.091367
     52 H41        15.5610    3.1940   -3.0140 hc        1 B90      0.091367
     53 H41A       16.7600    4.4900   -2.7840 hc        1 B90      0.091367
     54 H41B       15.9030    3.8050   -1.3710 hc        1 B90      0.091367
@<TRIPOS>BOND
     1    1    2 2   
     2    1    5 1   
     3    2    3 1   
     4    2   33 1   
     5    3    4 ar  
     6    3    6 ar  
     7    4    5 1   
     8    4    9 ar  
     9    5   34 1   
    10    6    7 ar  
    11    6   11 1   
    12    7    8 ar  
    13    7   10 1   
    14    8    9 ar  
    15    8   35 1   
    16    9   36 1   
    17   10   37 1   
    18   10   38 1   
    19   10   39 1   
    20   11   12 2   
    21   11   40 1   
    22   12   13 1   
    23   12   41 1   
    24   13   14 1   
    25   13   17 1   
    26   14   15 2   
    27   14   42 1   
    28   15   16 1   
    29   16   17 ar  
    30   16   18 ar  
    31   17   21 ar  
    32   18   19 ar  
    33   18   22 1   
    34   19   20 ar  
    35   20   21 ar  
    36   20   43 1   
    37   22   23 1   
    38   22   44 1   
    39   23   24 ar  
    40   23   28 ar  
    41   24   25 ar  
    42   24   45 1   
    43   25   26 ar  
    44   25   46 1   
    45   26   27 ar  
    46   26   29 1   
    47   27   28 ar  
    48   27   47 1   
    49   28   48 1   
    50   29   30 1   
    51   29   31 1   
    52   29   32 2   
    53   30   49 1   
    54   30   50 1   
    55   30   51 1   
    56   31   52 1   
    57   31   53 1   
    58   31   54 1   
@<TRIPOS>SUBSTRUCTURE
     1 B90         1 TEMP              0 ****  ****    0 ROOT
