@<TRIPOS>MOLECULE
B90
   55    59     1     0     0
SMALL
bcc


@<TRIPOS>ATOM
      1 N1          6.4250   -0.6380   -1.5250 nc        1 B90     -0.488100
      2 C2          6.4110   -0.6860   -0.1780 cd        1 B90      0.324800
      3 C3          5.0900   -0.3250    0.3200 ca        1 B90     -0.209900
      4 C4          4.3270   -0.0700   -0.8810 ca        1 B90     -0.060200
      5 N5          5.2220   -0.2380   -1.9510 na        1 B90     -0.010100
      6 C6          4.4780   -0.2140    1.5750 ca        1 B90     -0.058800
      7 C7          3.1200    0.1250    1.6230 ca        1 B90     -0.074300
      8 C8          2.3960    0.3780    0.4350 ca        1 B90     -0.103000
      9 C9          2.9730    0.2910   -0.8190 ca        1 B90     -0.111000
     10 C10         2.4190    0.2050    2.9270 c3        1 B90     -0.061800
     11 C14         5.2050   -0.5150    2.7980 ce        1 B90     -0.075200
     12 C15         6.2700    0.1290    3.3090 c2        1 B90     -0.093100
     13 N16         6.8930    1.2710    2.7830 na        1 B90     -0.184200
     14 C17         6.3750    2.2270    1.8780 cc        1 B90      0.510700
     15 N18         7.2310    3.2230    1.5770 nd        1 B90     -0.591100
     16 C19         8.3890    2.9340    2.3040 ca        1 B90     -0.128200
     17 C20         8.2000    1.6920    3.0890 ca        1 B90      0.448800
     18 C21         9.6470    3.5510    2.4370 ca        1 B90      0.538200
     19 N22        10.6150    3.0380    3.2380 nb        1 B90     -0.687000
     20 C23        10.3100    1.8920    3.9130 ca        1 B90      0.665900
     21 N24         9.1590    1.1730    3.8940 nb        1 B90     -0.620000
     22 N25         9.9220    4.7910    1.6750 n4        1 B90     -0.619100
     23 C26        10.5700    4.5080    0.3830 ca        1 B90     -0.005400
     24 C27         9.7800    4.4170   -0.7750 ca        1 B90     -0.117000
     25 C28        10.4120    4.1750   -1.9940 ca        1 B90     -0.028000
     26 C29        11.7970    4.0200   -2.0610 ca        1 B90     -0.383500
     27 C30        12.5620    4.1030   -0.9060 ca        1 B90     -0.028000
     28 C31        11.9650    4.3440    0.3320 ca        1 B90     -0.117000
     29 P36        12.4340    3.7350   -3.5620 py        1 B90      1.475200
     30 C37        13.5740    4.8950   -3.7660 c3        1 B90     -0.479300
     31 C41        13.2690    2.3320   -3.4080 c3        1 B90     -0.479300
     32 O45        11.3710    3.7220   -4.5660 o         1 B90     -0.887300
     33 H2          7.2830   -0.9840    0.4040 h4        1 B90      0.055800
     34 HN5         4.9810   -0.3160   -2.9130 hn        1 B90      0.335700
     35 H8          1.3290    0.6440    0.5180 ha        1 B90      0.151000
     36 H9          2.3920    0.4870   -1.7320 ha        1 B90      0.155000
     37 H10         3.0020    0.8210    3.6550 hc        1 B90      0.053033
     38 H10A        2.2990   -0.8220    3.3570 hc        1 B90      0.053033
     39 H10B        1.4030    0.6580    2.8170 hc        1 B90      0.053033
     40 H14         4.8090   -1.3790    3.3690 ha        1 B90      0.172000
     41 H15         6.7590   -0.2270    4.2410 h4        1 B90      0.185000
     42 H17         5.3530    2.1210    1.4670 h5        1 B90      0.119800
     43 H23        11.1220    1.4960    4.5670 h5        1 B90      0.095100
     44 HN25       10.5370    5.4080    2.2260 hn        1 B90      0.476800
     45 H27         8.6820    4.5240   -0.7390 ha        1 B90      0.170500
     46 H28         9.8290    4.0990   -2.9380 ha        1 B90      0.188500
     47 H30        13.6570    3.9750   -0.9610 ha        1 B90      0.188500
     48 H31        12.5850    4.3940    1.2420 ha        1 B90      0.170500
     49 H37        13.1400    5.9270   -3.7790 hc        1 B90      0.105700
     50 H37A       14.3800    4.9060   -2.9950 hc        1 B90      0.105700
     51 H37B       14.0970    4.7930   -4.7530 hc        1 B90      0.105700
     52 H41        12.6030    1.4580   -3.1950 hc        1 B90      0.105700
     53 H41A       13.8020    2.0600   -4.3560 hc        1 B90      0.105700
     54 H41B       14.0480    2.3320   -2.6100 hc        1 B90      0.105700
     55 H252        9.0220    5.2650    1.5060 hn        1 B90      0.476800
@<TRIPOS>BOND
     1    1    2 2   
     2    1    5 1   
     3    2    3 1   
     4    2   33 1   
     5    3    4 ar  
     6    3    6 ar  
     7    4    5 1   
     8    4    9 ar  
     9    5   34 1   
    10    6    7 ar  
    11    6   11 1   
    12    7    8 ar  
    13    7   10 1   
    14    8    9 ar  
    15    8   35 1   
    16    9   36 1   
    17   10   37 1   
    18   10   38 1   
    19   10   39 1   
    20   11   12 2   
    21   11   40 1   
    22   12   13 1   
    23   12   41 1   
    24   13   14 1   
    25   13   17 1   
    26   14   15 2   
    27   14   42 1   
    28   15   16 1   
    29   16   17 ar  
    30   16   18 ar  
    31   17   21 ar  
    32   18   19 ar  
    33   18   22 1   
    34   19   20 ar  
    35   20   21 ar  
    36   20   43 1   
    37   22   23 1   
    38   22   44 1   
    39   22   55 1   
    40   23   24 ar  
    41   23   28 ar  
    42   24   25 ar  
    43   24   45 1   
    44   25   26 ar  
    45   25   46 1   
    46   26   27 ar  
    47   26   29 1   
    48   27   28 ar  
    49   27   47 1   
    50   28   48 1   
    51   29   30 1   
    52   29   31 1   
    53   29   32 2   
    54   30   49 1   
    55   30   50 1   
    56   30   51 1   
    57   31   52 1   
    58   31   53 1   
    59   31   54 1   
@<TRIPOS>SUBSTRUCTURE
     1 B90         1 TEMP              0 ****  ****    0 ROOT
