@<TRIPOS>MOLECULE
B90
   54    58     1     0     0
SMALL
bcc


@<TRIPOS>ATOM
      1 N1          8.2100   -2.2810    1.1430 nc        1 B90     -0.506100
      2 C2          6.9620   -1.9940    0.7240 cd        1 B90      0.340800
      3 C3          6.9070   -0.6290    0.2150 ca        1 B90     -0.203900
      4 C4          8.2560   -0.1460    0.3800 ca        1 B90     -0.053200
      5 N5          8.9890   -1.2160    0.9180 na        1 B90     -0.021100
      6 C6          5.9130    0.1980   -0.3320 ca        1 B90      0.014200
      7 C7          6.2820    1.4900   -0.7220 ca        1 B90     -0.091300
      8 C8          7.6130    1.9430   -0.5500 ca        1 B90     -0.100000
      9 C9          8.6110    1.1550   -0.0070 ca        1 B90     -0.131000
     10 C10         5.3170    2.4310   -1.3410 c3        1 B90     -0.057800
     11 C14         4.5780   -0.3570   -0.4850 ce        1 B90     -0.152200
     12 C15         3.4540    0.3280   -0.1840 c2        1 B90     -0.040100
     13 N16         2.1590   -0.1730   -0.3030 na        1 B90     -0.210200
     14 C17         1.7410   -1.4550   -0.7580 cc        1 B90      0.418700
     15 N18         0.4140   -1.6250   -0.7420 nd        1 B90     -0.538100
     16 C19        -0.1090   -0.4150   -0.2560 ca        1 B90     -0.217200
     17 C20         0.9750    0.5190    0.0260 ca        1 B90      0.458800
     18 C21        -1.4490    0.0370   -0.0040 ca        1 B90      0.756200
     19 N22        -1.6340    1.3090    0.4680 nb        1 B90     -0.771000
     20 C23        -0.5280    2.0740    0.6840 ca        1 B90      0.682900
     21 N24         0.7810    1.7830    0.5020 nb        1 B90     -0.715000
     22 N25        -2.4950   -0.8420   -0.2400 nh        1 B90     -0.732300
     23 C26        -3.8660   -0.5580   -0.1410 ca        1 B90      0.208600
     24 C27        -4.7500   -1.1900   -1.0530 ca        1 B90     -0.179000
     25 C28        -6.1170   -0.9760   -0.9560 ca        1 B90     -0.018000
     26 C29        -6.6490   -0.1430    0.0300 ca        1 B90     -0.501500
     27 C30        -5.7830    0.4670    0.9300 ca        1 B90     -0.018000
     28 C31        -4.4080    0.2700    0.8680 ca        1 B90     -0.179000
     29 P36        -8.2570    0.0630    0.0660 py        1 B90      1.496200
     30 C37        -8.7330   -0.3270    1.5980 c3        1 B90     -0.458300
     31 C41        -8.5110    1.6910   -0.0200 c3        1 B90     -0.458300
     32 O45        -8.9680   -0.6910   -0.9710 o         1 B90     -0.911300
     33 H2          6.1440   -2.7120    0.7790 h4        1 B90      0.053800
     34 HN5         9.9080   -1.1790    1.2880 hn        1 B90      0.324700
     35 H8          7.8560    2.9700   -0.8670 ha        1 B90      0.136000
     36 H9          9.6350    1.5290    0.1150 ha        1 B90      0.141000
     37 H10         4.8240    3.0540   -0.5520 hc        1 B90      0.047700
     38 H10A        5.8370    3.1220   -2.0510 hc        1 B90      0.047700
     39 H10B        4.5230    1.8830   -1.9060 hc        1 B90      0.047700
     40 H14         4.5550   -1.4040   -0.8330 ha        1 B90      0.136000
     41 H15         3.4860    1.3690    0.2000 h4        1 B90      0.182000
     42 H17         2.4720   -2.2060   -1.0840 h5        1 B90      0.081800
     43 H23        -0.7410    3.0960    1.0670 h5        1 B90      0.059100
     44 HN25       -2.2560   -1.6640   -0.7570 hn        1 B90      0.465800
     45 H27        -4.3610   -1.8510   -1.8430 ha        1 B90      0.152500
     46 H28        -6.8220   -1.4570   -1.6630 ha        1 B90      0.153500
     47 H30        -6.1990    1.1170    1.7160 ha        1 B90      0.153500
     48 H31        -3.7630    0.7600    1.6120 ha        1 B90      0.152500
     49 H37        -8.2570    0.2860    2.3980 hc        1 B90      0.091700
     50 H37A       -9.8380   -0.2130    1.7260 hc        1 B90      0.091700
     51 H37B       -8.5110   -1.3940    1.8450 hc        1 B90      0.091700
     52 H41        -8.1840    2.1110   -1.0040 hc        1 B90      0.091700
     53 H41A       -9.5950    1.9460    0.0690 hc        1 B90      0.091700
     54 H41B       -7.9810    2.2820    0.7630 hc        1 B90      0.091700
@<TRIPOS>BOND
     1    1    2 2   
     2    1    5 1   
     3    2    3 1   
     4    2   33 1   
     5    3    4 ar  
     6    3    6 ar  
     7    4    5 1   
     8    4    9 ar  
     9    5   34 1   
    10    6    7 ar  
    11    6   11 1   
    12    7    8 ar  
    13    7   10 1   
    14    8    9 ar  
    15    8   35 1   
    16    9   36 1   
    17   10   37 1   
    18   10   38 1   
    19   10   39 1   
    20   11   12 2   
    21   11   40 1   
    22   12   13 1   
    23   12   41 1   
    24   13   14 1   
    25   13   17 1   
    26   14   15 2   
    27   14   42 1   
    28   15   16 1   
    29   16   17 ar  
    30   16   18 ar  
    31   17   21 ar  
    32   18   19 ar  
    33   18   22 1   
    34   19   20 ar  
    35   20   21 ar  
    36   20   43 1   
    37   22   23 1   
    38   22   44 1   
    39   23   24 ar  
    40   23   28 ar  
    41   24   25 ar  
    42   24   45 1   
    43   25   26 ar  
    44   25   46 1   
    45   26   27 ar  
    46   26   29 1   
    47   27   28 ar  
    48   27   47 1   
    49   28   48 1   
    50   29   30 1   
    51   29   31 1   
    52   29   32 2   
    53   30   49 1   
    54   30   50 1   
    55   30   51 1   
    56   31   52 1   
    57   31   53 1   
    58   31   54 1   
@<TRIPOS>SUBSTRUCTURE
     1 B90         1 TEMP              0 ****  ****    0 ROOT
