@<TRIPOS>MOLECULE
B90
   54    58     1     0     0
SMALL
bcc


@<TRIPOS>ATOM
      1 N1          2.6550   -1.4770   -1.1720 nc        1 B90     -0.502100
      2 C2          3.4690   -1.5160   -0.0990 cd        1 B90      0.344800
      3 C3          3.0440   -0.5290    0.8870 ca        1 B90     -0.211900
      4 C4          1.8920    0.0940    0.2760 ca        1 B90     -0.055200
      5 N5          1.7410   -0.5180   -0.9780 na        1 B90     -0.022100
      6 C6          3.4730   -0.1240    2.1570 ca        1 B90     -0.006800
      7 C7          2.7480    0.8800    2.8080 ca        1 B90     -0.093300
      8 C8          1.6270    1.4800    2.1900 ca        1 B90     -0.100000
      9 C9          1.1830    1.1100    0.9330 ca        1 B90     -0.133000
     10 C10         3.1430    1.3460    4.1600 c3        1 B90     -0.052800
     11 C14         4.5960   -0.7870    2.8040 ce        1 B90     -0.161200
     12 C15         5.9130   -0.5670    2.6320 c2        1 B90     -0.034100
     13 N16         6.5260    0.3670    1.8020 na        1 B90     -0.212200
     14 C17         5.9420    1.3220    0.9220 cc        1 B90      0.431700
     15 N18         6.8360    2.0830    0.2820 nd        1 B90     -0.546100
     16 C19         8.0910    1.6430    0.7350 ca        1 B90     -0.213200
     17 C20         7.9210    0.5590    1.6940 ca        1 B90      0.451800
     18 C21         9.4350    2.0500    0.4340 ca        1 B90      0.752200
     19 N22        10.4710    1.3980    1.0460 nb        1 B90     -0.770000
     20 C23        10.1650    0.4010    1.9220 ca        1 B90      0.679900
     21 N24         8.9610   -0.0810    2.3050 nb        1 B90     -0.716000
     22 N25         9.6190    3.0980   -0.4580 nh        1 B90     -0.732300
     23 C26        10.8430    3.5760   -0.9470 ca        1 B90      0.210600
     24 C27        10.8890    4.0630   -2.2790 ca        1 B90     -0.181000
     25 C28        12.0660    4.5940   -2.7850 ca        1 B90     -0.017500
     26 C29        13.2220    4.6610   -2.0050 ca        1 B90     -0.503500
     27 C30        13.1730    4.1930   -0.6960 ca        1 B90     -0.017500
     28 C31        12.0100    3.6620   -0.1530 ca        1 B90     -0.181000
     29 P36        14.5590    5.2840   -2.6750 py        1 B90      1.496200
     30 C37        15.0620    6.4870   -1.6620 c3        1 B90     -0.457800
     31 C41        15.7290    4.1290   -2.5200 c3        1 B90     -0.457800
     32 O45        14.3690    5.7340   -4.0580 o         1 B90     -0.911300
     33 H2          4.3100   -2.2070   -0.0240 h4        1 B90      0.059800
     34 HN5         0.9830   -0.4080   -1.6070 hn        1 B90      0.326700
     35 H8          1.0890    2.2690    2.7380 ha        1 B90      0.139000
     36 H9          0.3090    1.5870    0.4700 ha        1 B90      0.143000
     37 H10         3.5980    0.5140    4.7530 hc        1 B90      0.047367
     38 H10A        3.8970    2.1690    4.0770 hc        1 B90      0.047367
     39 H10B        2.2600    1.7370    4.7220 hc        1 B90      0.047367
     40 H14         4.3010   -1.5730    3.5260 ha        1 B90      0.156000
     41 H15         6.6500   -1.1740    3.2020 h4        1 B90      0.175000
     42 H17         4.8490    1.3830    0.8070 h5        1 B90      0.095800
     43 H23        11.0470   -0.0910    2.3880 h5        1 B90      0.058100
     44 HN25        8.8080    3.3600   -0.9810 hn        1 B90      0.465800
     45 H27         9.9950    4.0230   -2.9210 ha        1 B90      0.153000
     46 H28        12.1210    4.9740   -3.8240 ha        1 B90      0.153000
     47 H30        14.0810    4.2530   -0.0730 ha        1 B90      0.153000
     48 H31        12.0140    3.3210    0.8930 ha        1 B90      0.153000
     49 H37        15.2990    6.1480   -0.6270 hc        1 B90      0.091200
     50 H37A       14.2960    7.2940   -1.5610 hc        1 B90      0.091200
     51 H37B       15.9800    6.9920   -2.0490 hc        1 B90      0.091200
     52 H41        15.8810    3.7660   -1.4770 hc        1 B90      0.091200
     53 H41A       16.7230    4.4960   -2.8770 hc        1 B90      0.091200
     54 H41B       15.5040    3.2250   -3.1370 hc        1 B90      0.091200
@<TRIPOS>BOND
     1    1    2 2   
     2    1    5 1   
     3    2    3 1   
     4    2   33 1   
     5    3    4 ar  
     6    3    6 ar  
     7    4    5 1   
     8    4    9 ar  
     9    5   34 1   
    10    6    7 ar  
    11    6   11 1   
    12    7    8 ar  
    13    7   10 1   
    14    8    9 ar  
    15    8   35 1   
    16    9   36 1   
    17   10   37 1   
    18   10   38 1   
    19   10   39 1   
    20   11   12 2   
    21   11   40 1   
    22   12   13 1   
    23   12   41 1   
    24   13   14 1   
    25   13   17 1   
    26   14   15 2   
    27   14   42 1   
    28   15   16 1   
    29   16   17 ar  
    30   16   18 ar  
    31   17   21 ar  
    32   18   19 ar  
    33   18   22 1   
    34   19   20 ar  
    35   20   21 ar  
    36   20   43 1   
    37   22   23 1   
    38   22   44 1   
    39   23   24 ar  
    40   23   28 ar  
    41   24   25 ar  
    42   24   45 1   
    43   25   26 ar  
    44   25   46 1   
    45   26   27 ar  
    46   26   29 1   
    47   27   28 ar  
    48   27   47 1   
    49   28   48 1   
    50   29   30 1   
    51   29   31 1   
    52   29   32 2   
    53   30   49 1   
    54   30   50 1   
    55   30   51 1   
    56   31   52 1   
    57   31   53 1   
    58   31   54 1   
@<TRIPOS>SUBSTRUCTURE
     1 B90         1 TEMP              0 ****  ****    0 ROOT
