@<TRIPOS>MOLECULE
B90
   54    45     1     0     0
SMALL
bcc


@<TRIPOS>ATOM
      1 N1         -6.9930    1.3120   -2.4070 n2        1 B90     -0.035000
      2 C2         -5.7330    1.1450   -1.9290 c1        1 B90     -0.156000
      3 C3         -5.8260    0.6360   -0.6440 c1        1 B90     -0.128000
      4 C4         -7.1490    0.4950   -0.3430 c1        1 B90     -0.009000
      5 N5         -7.8770    0.9110   -1.4300 n1        1 B90     -0.197000
      6 C6         -4.8420    0.2280    0.2870 c1        1 B90      0.005000
      7 C7         -5.2240   -0.3190    1.5110 c1        1 B90     -0.086000
      8 C8         -6.5670   -0.4620    1.8160 c1        1 B90     -0.100000
      9 C9         -7.5360   -0.0600    0.8980 c1        1 B90     -0.133000
     10 C10        -4.7490   -0.7850    2.8930 c3        1 B90     -0.178000
     11 C14        -4.6000    1.5270    1.0600 c2        1 B90     -0.173000
     12 C15        -3.3500    2.1190    1.0460 c1        1 B90     -0.007000
     13 N16        -2.2830    1.5240    0.2920 n2        1 B90     -0.137000
     14 C17        -2.4220    0.6400   -0.7190 c1        1 B90     -0.024000
     15 N18        -1.1810    0.3140   -1.1670 n2        1 B90     -0.119000
     16 C19        -0.2720    1.0020   -0.4280 c1        1 B90     -0.222000
     17 C20        -0.9490    1.7500    0.4740 c1        1 B90      0.060000
     18 C21         1.1070    1.1230   -0.5330 c1        1 B90      0.232000
     19 N22         1.7710    1.9860    0.2630 n1        1 B90     -0.244000
     20 C23         1.0880    2.7400    1.1730 c1        1 B90      0.017000
     21 N24        -0.2740    2.6230    1.2790 n1        1 B90     -0.190000
     22 N25         2.1250    0.9130   -1.5320 n3        1 B90     -0.253000
     23 C26         3.2870    0.1070   -1.2230 c2        1 B90      0.129000
     24 C27         4.5250    0.7150   -1.0390 c2        1 B90     -0.161000
     25 C28         5.6560   -0.0650   -0.8160 c1        1 B90     -0.024000
     26 C29         5.5500   -1.4490   -0.7780 c1        1 B90     -0.893000
     27 C30         4.3140   -2.0570   -0.9620 c1        1 B90     -0.011000
     28 C31         3.1810   -1.2780   -1.1850 c1        1 B90     -0.201000
     29 P36         7.0550   -2.4800   -0.5480 p5        1 B90      2.973000
     30 C37         8.3890   -1.8520   -1.6130 c3        1 B90     -0.983500
     31 C41         7.5850   -2.4060    1.2010 c3        1 B90     -0.983500
     32 O45         6.7520   -3.8840   -0.9130 o         1 B90     -1.182000
     33 H2         -4.9050    1.3480   -2.4080 DU        1 B90      0.230667
     34 HN5        -8.7910    0.9210   -1.4940 DU        1 B90      0.230667
     35 H8         -6.8350   -0.8450    2.6740 ha        1 B90      0.139000
     36 H9         -8.4870   -0.1610    1.1140 ha        1 B90      0.143000
     37 H10        -4.9940   -0.1190    3.5640 hc        1 B90      0.086667
     38 H10A       -3.7760   -0.8970    2.8840 hc        1 B90      0.086667
     39 H10B       -5.1740   -1.6440    3.1140 hc        1 B90      0.086667
     40 H14        -5.3240    1.9310    1.5710 ha        1 B90      0.156000
     41 H15        -3.1960    2.9470    1.5390 ha        1 B90      0.175000
     42 H17        -3.2630    0.2730   -1.0460 DU        1 B90      0.230667
     43 H23         1.5680    3.3620    1.7480 ha        1 B90      0.195000
     44 HN25        2.0160    1.2510   -2.3730 hn        1 B90      0.261000
     45 H27         4.6010    1.6900   -1.0660 ha        1 B90      0.163000
     46 H28         6.5240    0.3610   -0.6870 ha        1 B90      0.127000
     47 H30         4.2400   -3.0280   -0.9350 ha        1 B90      0.180000
     48 H31         2.3110   -1.7060   -1.3140 ha        1 B90      0.142000
     49 H37         8.6850   -0.9800   -1.2840 hc        1 B90      0.130833
     50 H37A        8.0580   -1.7610   -2.5330 hc        1 B90      0.130833
     51 H37B        9.1410   -2.4790   -1.5970 hc        1 B90      0.130833
     52 H41         6.8720   -2.7540    1.7740 hc        1 B90      0.130833
     53 H41A        8.3950   -2.9480    1.3210 hc        1 B90      0.130833
     54 H41B        7.7760   -1.4760    1.4460 hc        1 B90      0.130833
@<TRIPOS>BOND
     1    1    2 1   
     2    1    5 1   
     3    2    3 1   
     4    3    6 1   
     5    4    9 1   
     6    6   11 1   
     7    7    8 1   
     8    7   10 1   
     9    8   35 1   
    10    9   36 1   
    11   10   37 1   
    12   10   38 1   
    13   10   39 1   
    14   11   12 1   
    15   11   40 1   
    16   12   41 1   
    17   13   14 1   
    18   13   17 1   
    19   14   15 1   
    20   15   16 1   
    21   16   18 1   
    22   17   21 1   
    23   18   22 1   
    24   19   20 1   
    25   20   43 1   
    26   22   23 1   
    27   22   44 1   
    28   23   24 1   
    29   23   28 1   
    30   24   25 1   
    31   24   45 1   
    32   25   46 1   
    33   26   27 1   
    34   26   29 1   
    35   27   47 1   
    36   28   48 1   
    37   29   30 1   
    38   29   31 1   
    39   29   32 1   
    40   30   49 1   
    41   30   50 1   
    42   30   51 1   
    43   31   52 1   
    44   31   53 1   
    45   31   54 1   
@<TRIPOS>SUBSTRUCTURE
     1 B90         1 TEMP              0 ****  ****    0 ROOT
