@<TRIPOS>MOLECULE
B91
   66    71     1     0     0
SMALL
bcc


@<TRIPOS>ATOM
      1 C1          1.0350    1.7710    0.8780 ca        1 B91      0.458800
      2 F1          6.3110    0.9440  -11.4900 f         1 B91     -0.233633
      3 N1          2.0900    1.4490   -0.0070 na        1 B91     -0.221200
      4 O1          2.3890    0.4270   -5.4480 o         1 B91     -0.576100
      5 C2         -3.6450   -1.2390    2.8440 cx        1 B91     -0.148900
      6 F2          5.4000   -0.8100  -12.3820 f         1 B91     -0.233633
      7 N2          4.3490   -0.2900   -6.4520 ns        1 B91     -0.472100
      8 C3          3.3050    2.1200   -0.0650 c2        1 B91     -0.015100
      9 F3          6.8640   -1.0340  -10.7990 f         1 B91     -0.233633
     10 N3          0.9780    0.1020   -9.9930 na        1 B91     -0.153000
     11 C4          4.3870    1.8380   -0.8150 ce        1 B91     -0.187200
     12 N4         -0.8860   -0.0140  -11.2960 nc        1 B91     -0.654000
     13 C5          4.5730    0.7690   -1.7860 ca        1 B91     -0.065800
     14 N5          0.4040   -0.0830   -0.4100 nc        1 B91     -0.535100
     15 C6          5.4020   -0.3290   -1.4830 ca        1 B91     -0.035300
     16 N6          0.9320    2.7510    1.8210 nb        1 B91     -0.732000
     17 C7          5.6140   -1.3160   -2.4520 ca        1 B91     -0.138000
     18 N7         -1.3140    1.8800    2.3270 nb        1 B91     -0.776000
     19 C8          5.0340   -1.2170   -3.7130 ca        1 B91     -0.098000
     20 N8         -2.2750    0.0500    1.0790 nu        1 B91     -0.813900
     21 C9          4.2250   -0.1180   -4.0180 ca        1 B91     -0.159600
     22 C10         3.9890    0.8670   -3.0540 ca        1 B91     -0.074000
     23 C11         6.0370   -0.4480   -0.1500 c3        1 B91     -0.061800
     24 C12         3.5630    0.0300   -5.3470 c         1 B91      0.686700
     25 C13         3.9780   -0.2100   -7.8020 ca        1 B91      0.097600
     26 C14         2.6370   -0.0930   -8.2180 ca        1 B91     -0.159000
     27 C15         2.3160   -0.0250   -9.5890 ca        1 B91      0.055800
     28 C16         3.3440   -0.0880  -10.5540 ca        1 B91     -0.142000
     29 C17         4.6620   -0.2220  -10.1290 ca        1 B91     -0.113300
     30 C18         4.9990   -0.2790   -8.7820 ca        1 B91     -0.159000
     31 C19         5.7770   -0.2810  -11.1720 c3        1 B91      0.687200
     32 C22        -0.0880    0.6060   -9.2290 cd        1 B91     -0.238600
     33 C23         0.4310   -0.2620  -11.2450 cd        1 B91      0.409400
     34 C24        -3.4220   -0.0600    1.9120 cx        1 B91      0.166500
     35 C25        -1.2300    0.5320  -10.0440 cc        1 B91      0.312600
     36 C26         1.6320    0.3200   -0.7480 cd        1 B91      0.418700
     37 C27        -2.5930    0.9510   -9.6790 c3        1 B91     -0.116400
     38 C28        -4.4870   -1.0950    1.6110 cx        1 B91     -0.148900
     39 C29        -0.0110    0.7970    0.6040 ca        1 B91     -0.225200
     40 C30        -1.2230    0.8980    1.3690 ca        1 B91      0.757200
     41 C33        -0.2550    2.7180    2.4740 ca        1 B91      0.685900
     42 H2         -2.9020   -2.0550    2.8860 hc        1 B91      0.077200
     43 H2A        -4.0910   -1.0390    3.8340 hc        1 B91      0.077200
     44 HN2         5.3070   -0.5050   -6.2800 hn        1 B91      0.326500
     45 H3          3.3380    2.9930    0.6260 h4        1 B91      0.176000
     46 H4          5.2700    2.4930   -0.6950 ha        1 B91      0.153000
     47 H7          6.2500   -2.1830   -2.2120 ha        1 B91      0.144000
     48 H8          5.2030   -2.0150   -4.4520 ha        1 B91      0.140000
     49 HN8        -2.0640   -0.7290    0.4940 hn        1 B91      0.448800
     50 H10         3.3370    1.7210   -3.3000 ha        1 B91      0.162000
     51 H11         6.8410   -1.2240   -0.1510 hc        1 B91      0.054033
     52 H11A        6.4840    0.5300    0.1600 hc        1 B91      0.054033
     53 H11B        5.2710   -0.7370    0.6140 hc        1 B91      0.054033
     54 H14         1.8290   -0.0560   -7.4650 ha        1 B91      0.188000
     55 H16         3.1230   -0.0320  -11.6310 ha        1 B91      0.161000
     56 H18         6.0580   -0.3820   -8.4950 ha        1 B91      0.153000
     57 H22         0.0420    0.9750   -8.2130 h4        1 B91      0.190000
     58 H23         1.0330   -0.7010  -12.0480 h5        1 B91      0.065100
     59 H24        -3.7630    0.9400    2.2690 h1        1 B91      0.117700
     60 H26         2.2620   -0.1360   -1.5250 h5        1 B91      0.088800
     61 H27        -2.9570    1.7500  -10.3720 hc        1 B91      0.049033
     62 H27A       -3.3000    0.0850   -9.7420 hc        1 B91      0.049033
     63 H27B       -2.6040    1.3480   -8.6340 hc        1 B91      0.049033
     64 H28        -4.3420   -1.8100    0.7810 hc        1 B91      0.077200
     65 H28A       -5.5430   -0.7870    1.7060 hc        1 B91      0.077200
     66 H33        -0.3860    3.4970    3.2580 h5        1 B91      0.055100
@<TRIPOS>BOND
     1    1    3 1   
     2    1   16 ar  
     3    1   39 ar  
     4    2   31 1   
     5    3    8 1   
     6    3   36 1   
     7    4   24 2   
     8    5   34 1   
     9    5   38 1   
    10    5   42 1   
    11    5   43 1   
    12    6   31 1   
    13    7   24 1   
    14    7   25 1   
    15    7   44 1   
    16    8   11 2   
    17    8   45 1   
    18    9   31 1   
    19   10   27 1   
    20   10   32 1   
    21   10   33 1   
    22   11   13 1   
    23   11   46 1   
    24   12   33 2   
    25   12   35 1   
    26   13   15 ar  
    27   13   22 ar  
    28   14   36 2   
    29   14   39 1   
    30   15   17 ar  
    31   15   23 1   
    32   16   41 ar  
    33   17   19 ar  
    34   17   47 1   
    35   18   40 ar  
    36   18   41 ar  
    37   19   21 ar  
    38   19   48 1   
    39   20   34 1   
    40   20   40 1   
    41   20   49 1   
    42   21   22 ar  
    43   21   24 1   
    44   22   50 1   
    45   23   51 1   
    46   23   52 1   
    47   23   53 1   
    48   25   26 ar  
    49   25   30 ar  
    50   26   27 ar  
    51   26   54 1   
    52   27   28 ar  
    53   28   29 ar  
    54   28   55 1   
    55   29   30 ar  
    56   29   31 1   
    57   30   56 1   
    58   32   35 2   
    59   32   57 1   
    60   33   58 1   
    61   34   38 1   
    62   34   59 1   
    63   35   37 1   
    64   36   60 1   
    65   37   61 1   
    66   37   62 1   
    67   37   63 1   
    68   38   64 1   
    69   38   65 1   
    70   39   40 ar  
    71   41   66 1   
@<TRIPOS>SUBSTRUCTURE
     1 B91         1 TEMP              0 ****  ****    0 ROOT
