@<TRIPOS>MOLECULE
B91
   66    57     1     0     0
SMALL
bcc


@<TRIPOS>ATOM
      1 C1         -0.4670    4.8070    2.0660 c1        1 B91      0.066000
      2 F1          1.9880   -3.6510   -7.0510 f         1 B91     -0.161333
      3 N1         -0.1370    3.6480    1.4240 n1        1 B91     -0.144000
      4 O1          1.7080   -0.8040   -3.0270 o         1 B91     -0.326000
      5 C2         -2.7700    5.2430    7.5260 cx        1 B91     -0.220500
      6 F2          2.3350   -5.7820   -6.6660 f         1 B91     -0.161333
      7 N2          1.4190   -2.6280   -1.6500 n         1 B91     -0.327000
      8 C3          0.2430    3.5280    0.0420 c1        1 B91     -0.092500
      9 F3          3.6840   -4.2800   -5.8110 f         1 B91     -0.161333
     10 N3         -1.5590   -5.9090   -3.5970 n3        1 B91     -0.131000
     11 C4          1.1150    2.5410   -0.3490 c1        1 B91     -0.092500
     12 N4         -2.9730   -7.5220   -3.1080 n2        1 B91     -0.129000
     13 C5          1.6830    1.5670    0.6880 c1        1 B91     -0.057000
     14 N5         -0.7920    3.1370    3.4540 n2        1 B91     -0.104000
     15 C6          2.9790    1.5090    1.1960 c2        1 B91     -0.030000
     16 N6         -0.5350    6.1010    1.6350 n1        1 B91     -0.206000
     17 C7          3.8620    0.5290    0.7450 c1        1 B91     -0.138000
     18 N7         -1.4190    6.7580    3.7330 n1        1 B91     -0.261000
     19 C8          3.4480   -0.3930   -0.2150 c1        1 B91     -0.099000
     20 N8         -1.7220    6.0890    5.4120 n3        1 B91     -0.255000
     21 C9          2.1520   -0.3370   -0.7250 c1        1 B91     -0.138000
     22 C10         1.2690    0.6440   -0.2730 c1        1 B91     -0.070000
     23 C11         3.7900    2.2870    2.2440 c3        1 B91     -0.187000
     24 C12         1.7490   -1.2490   -1.8940 c2        1 B91      0.359000
     25 C13         1.0390   -3.4860   -2.7500 c2        1 B91      0.106000
     26 C14        -0.1110   -4.2650   -2.6590 c2        1 B91     -0.191000
     27 C15        -0.4400   -5.1440   -3.6880 c1        1 B91      0.096000
     28 C16         0.3810   -5.2440   -4.8080 c1        1 B91     -0.137000
     29 C17         1.5310   -4.4650   -4.8990 c1        1 B91     -0.110000
     30 C18         1.8600   -3.5860   -3.8700 c1        1 B91     -0.125000
     31 C19         2.4110   -4.5470   -6.1440 c3        1 B91      0.466000
     32 C22        -2.7380   -5.6110   -4.1600 c1        1 B91     -0.152000
     33 C23        -1.6940   -7.0930   -2.9430 c1        1 B91     -0.082000
     34 C24        -1.5390    5.3640    6.6410 cx        1 B91     -0.038000
     35 C25        -3.6200   -6.6170   -3.8550 c1        1 B91     -0.108000
     36 C26        -0.3400    2.6210    2.2850 c1        1 B91     -0.048000
     37 C27        -5.1050   -6.7290   -4.1960 c2        1 B91     -0.140000
     38 C28        -1.6440    6.1880    7.9150 cx        1 B91     -0.220500
     39 C29        -0.8710    4.4910    3.3160 c1        1 B91     -0.216000
     40 C30        -1.3540    5.4850    4.1610 c1        1 B91      0.231000
     41 C33        -1.0110    7.0770    2.4670 c1        1 B91      0.025000
     42 H2         -3.5840    5.6690    7.1830 hc        1 B91      0.117500
     43 H2A        -2.8360    4.4180    8.0540 hc        1 B91      0.117500
     44 HN2         1.4460   -2.9620   -0.7960 hn        1 B91      0.237000
     45 H3         -0.1210    4.1520   -0.6220 ha        1 B91      0.166000
     46 H4          1.3740    2.4600   -1.2920 ha        1 B91      0.166000
     47 H7          4.7740    0.4890    1.1030 ha        1 B91      0.143000
     48 H8          4.0700   -1.0830   -0.5320 ha        1 B91      0.140000
     49 HN8        -2.0100    6.9600    5.4320 hn        1 B91      0.232000
     50 H10         0.3570    0.6840   -0.6310 ha        1 B91      0.164000
     51 H11         4.3080    1.6550    2.7920 hc        1 B91      0.092667
     52 H11A        4.4030    2.9070    1.7890 hc        1 B91      0.092667
     53 H11B        3.1780    2.7950    2.8200 hc        1 B91      0.092667
     54 H14        -0.6830   -4.2040   -1.8660 ha        1 B91      0.145000
     55 H16         0.1490   -5.8640   -5.5330 ha        1 B91      0.164000
     56 H18         2.6690   -3.0380   -3.9340 ha        1 B91      0.195000
     57 H22        -2.9360   -4.8140   -4.6950 DU        1 B91      0.198000
     58 H23        -0.9920   -7.5550   -2.4390 DU        1 B91      0.198000
     59 H24        -0.9150    4.6080    6.6740 h1        1 B91      0.156000
     60 H26        -0.2220    1.6700    2.0820 DU        1 B91      0.198000
     61 H27        -5.4500   -7.5920   -3.8770 ha        1 B91      0.088667
     62 H27A       -5.2220   -6.6690   -5.1700 ha        1 B91      0.088667
     63 H27B       -5.5970   -5.9980   -3.7610 ha        1 B91      0.088667
     64 H28        -1.8280    7.1430    7.7910 hc        1 B91      0.117500
     65 H28A       -1.0790    5.8920    8.6620 hc        1 B91      0.117500
     66 H33        -1.0590    8.0070    2.1550 ha        1 B91      0.192000
@<TRIPOS>BOND
     1    1   39 1   
     2    2   31 1   
     3    3   36 1   
     4    4   24 1   
     5    5   34 1   
     6    5   38 1   
     7    5   42 1   
     8    5   43 1   
     9    6   31 1   
    10    7   24 1   
    11    7   25 1   
    12    7   44 1   
    13    8   11 1   
    14    8   45 1   
    15    9   31 1   
    16   10   27 1   
    17   10   32 1   
    18   10   33 1   
    19   11   46 1   
    20   12   33 1   
    21   12   35 1   
    22   13   15 1   
    23   13   22 1   
    24   14   36 1   
    25   14   39 1   
    26   15   17 1   
    27   15   23 1   
    28   16   41 1   
    29   17   47 1   
    30   18   40 1   
    31   19   21 1   
    32   19   48 1   
    33   20   34 1   
    34   20   40 1   
    35   20   49 1   
    36   21   24 1   
    37   22   50 1   
    38   23   51 1   
    39   23   52 1   
    40   23   53 1   
    41   25   26 1   
    42   25   30 1   
    43   26   27 1   
    44   26   54 1   
    45   28   29 1   
    46   28   55 1   
    47   29   31 1   
    48   30   56 1   
    49   32   35 1   
    50   34   38 1   
    51   34   59 1   
    52   37   61 1   
    53   37   62 1   
    54   37   63 1   
    55   38   64 1   
    56   38   65 1   
    57   41   66 1   
@<TRIPOS>SUBSTRUCTURE
     1 B91         1 TEMP              0 ****  ****    0 ROOT
