@<TRIPOS>MOLECULE
B91
   66    71     1     0     0
SMALL
bcc


@<TRIPOS>ATOM
      1 C1         -5.5160   -0.0210    0.3060 ca        1 B91      0.464800
      2 F1          8.2850   -1.4930   -1.1880 f         1 B91     -0.233967
      3 N1         -4.8680   -1.2630    0.1350 na        1 B91     -0.218200
      4 O1          1.3860    0.0700    1.0140 o         1 B91     -0.577100
      5 C2        -11.3570    1.6090   -1.2670 cx        1 B91     -0.148400
      6 F2          8.0140    0.0660   -2.6700 f         1 B91     -0.233967
      7 N2          2.9360   -1.4650    0.2370 n         1 B91     -0.472100
      8 C3         -3.5560   -1.5520    0.4890 c2        1 B91     -0.020100
      9 F3          6.9470   -1.8120   -2.8630 f         1 B91     -0.233967
     10 N3          5.2370    2.8520    0.5930 na        1 B91     -0.153000
     11 C4         -2.9660   -2.7620    0.3620 ce        1 B91     -0.179200
     12 N4          6.0880    4.8590    1.2500 nc        1 B91     -0.654000
     13 C5         -1.5820   -2.9960    0.7380 ca        1 B91     -0.045800
     14 N5         -7.0220   -1.5360   -0.6620 nc        1 B91     -0.532100
     15 C6         -1.1930   -4.2490    1.2550 ca        1 B91     -0.038300
     16 N6         -5.0590    1.1600    0.8140 nb        1 B91     -0.727000
     17 C7          0.1450   -4.4620    1.6060 ca        1 B91     -0.135000
     18 N7         -7.2900    2.0950    0.3580 nb        1 B91     -0.775000
     19 C8          1.0980   -3.4610    1.4420 ca        1 B91     -0.100000
     20 N8         -9.0780    0.7390   -0.5300 nh        1 B91     -0.811900
     21 C9          0.7150   -2.2230    0.9200 ca        1 B91     -0.154600
     22 C10        -0.6200   -1.9900    0.5780 ca        1 B91     -0.071000
     23 C11        -2.1830   -5.3360    1.4380 c3        1 B91     -0.062800
     24 C12         1.6870   -1.1050    0.7410 c         1 B91      0.686700
     25 C13         4.0100   -0.6100   -0.0480 ca        1 B91      0.098600
     26 C14         4.0790    0.7120    0.4330 ca        1 B91     -0.159000
     27 C15         5.1840    1.5310    0.1210 ca        1 B91      0.055800
     28 C16         6.2380    1.0160   -0.6640 ca        1 B91     -0.143000
     29 C17         6.1650   -0.2980   -1.1140 ca        1 B91     -0.113300
     30 C18         5.0780   -1.1150   -0.8290 ca        1 B91     -0.160000
     31 C19         7.3190   -0.8660   -1.9390 c3        1 B91      0.686200
     32 C22         4.1490    3.6490    0.9870 cd        1 B91     -0.238600
     33 C23         6.3940    3.6420    0.7760 cd        1 B91      0.409400
     34 C24        -9.9680    1.8350   -0.7020 cx        1 B91      0.164500
     35 C25         4.6860    4.8840    1.3880 cc        1 B91      0.312600
     36 C26        -5.8400   -2.1240   -0.4530 cd        1 B91      0.408700
     37 C27         3.9310    6.0470    1.8810 c3        1 B91     -0.116400
     38 C28       -10.3480    2.3730   -2.0720 cx        1 B91     -0.148400
     39 C29        -6.8680   -0.2170   -0.2000 ca        1 B91     -0.228200
     40 C30        -7.7630    0.9050   -0.1420 ca        1 B91      0.758200
     41 C33        -6.0040    2.1320    0.7950 ca        1 B91      0.687900
     42 H2        -11.6570    0.6010   -1.6070 hc        1 B91      0.077700
     43 H2A       -12.1970    2.1470   -0.7930 hc        1 B91      0.077700
     44 HN2         3.0540   -2.4140   -0.0450 hn        1 B91      0.325500
     45 H3         -3.0140   -0.6770    0.9090 h4        1 B91      0.182000
     46 H4         -3.5060   -3.6410   -0.0270 ha        1 B91      0.136000
     47 H7          0.4480   -5.4350    2.0240 ha        1 B91      0.141000
     48 H8          2.1390   -3.6490    1.7460 ha        1 B91      0.139000
     49 HN8        -9.2830   -0.0930   -1.0410 hn        1 B91      0.446800
     50 H10        -0.9090   -1.0020    0.1820 ha        1 B91      0.157000
     51 H11        -2.5410   -5.7020    0.4420 hc        1 B91      0.052033
     52 H11A       -1.7400   -6.2000    1.9900 hc        1 B91      0.052033
     53 H11B       -3.0670   -4.9650    2.0140 hc        1 B91      0.052033
     54 H14         3.2620    1.1130    1.0600 ha        1 B91      0.188000
     55 H16         7.1070    1.6380   -0.9350 ha        1 B91      0.161000
     56 H18         5.0610   -2.1450   -1.2200 ha        1 B91      0.153000
     57 H22         3.1190    3.2990    0.9430 h4        1 B91      0.190000
     58 H23         7.4020    3.2730    0.5590 h5        1 B91      0.065100
     59 H24        -9.8620    2.5770    0.1230 h1        1 B91      0.117700
     60 H26        -5.5970   -3.1650   -0.6990 h5        1 B91      0.076800
     61 H27         4.1020    6.9340    1.2200 hc        1 B91      0.049033
     62 H27A        2.8380    5.8150    1.8960 hc        1 B91      0.049033
     63 H27B        4.2570    6.3160    2.9170 hc        1 B91      0.049033
     64 H28        -9.9310    1.9060   -2.9810 hc        1 B91      0.077700
     65 H28A      -10.4570    3.4660   -2.1860 hc        1 B91      0.077700
     66 H33        -5.6770    3.1170    1.1950 h5        1 B91      0.057100
@<TRIPOS>BOND
     1    1    3 1   
     2    1   16 ar  
     3    1   39 ar  
     4    2   31 1   
     5    3    8 1   
     6    3   36 1   
     7    4   24 2   
     8    5   34 1   
     9    5   38 1   
    10    5   42 1   
    11    5   43 1   
    12    6   31 1   
    13    7   24 1   
    14    7   25 1   
    15    7   44 1   
    16    8   11 2   
    17    8   45 1   
    18    9   31 1   
    19   10   27 1   
    20   10   32 1   
    21   10   33 1   
    22   11   13 1   
    23   11   46 1   
    24   12   33 2   
    25   12   35 1   
    26   13   15 ar  
    27   13   22 ar  
    28   14   36 2   
    29   14   39 1   
    30   15   17 ar  
    31   15   23 1   
    32   16   41 ar  
    33   17   19 ar  
    34   17   47 1   
    35   18   40 ar  
    36   18   41 ar  
    37   19   21 ar  
    38   19   48 1   
    39   20   34 1   
    40   20   40 1   
    41   20   49 1   
    42   21   22 ar  
    43   21   24 1   
    44   22   50 1   
    45   23   51 1   
    46   23   52 1   
    47   23   53 1   
    48   25   26 ar  
    49   25   30 ar  
    50   26   27 ar  
    51   26   54 1   
    52   27   28 ar  
    53   28   29 ar  
    54   28   55 1   
    55   29   30 ar  
    56   29   31 1   
    57   30   56 1   
    58   32   35 2   
    59   32   57 1   
    60   33   58 1   
    61   34   38 1   
    62   34   59 1   
    63   35   37 1   
    64   36   60 1   
    65   37   61 1   
    66   37   62 1   
    67   37   63 1   
    68   38   64 1   
    69   38   65 1   
    70   39   40 ar  
    71   41   66 1   
@<TRIPOS>SUBSTRUCTURE
     1 B91         1 TEMP              0 ****  ****    0 ROOT
