@<TRIPOS>MOLECULE
B91
   68    73     1     0     0
SMALL
bcc


@<TRIPOS>ATOM
      1 C1          0.5850    1.5630    1.1140 ca        1 B91      0.456800
      2 F1          6.3530   -2.3600   -9.8580 f         1 B91     -0.213300
      3 N1          1.6400    1.4230    0.1850 na        1 B91     -0.205200
      4 O1          2.7150    2.8140   -5.8050 o         1 B91     -0.418100
      5 C2         -1.8920   -2.8300    2.3370 cx        1 B91     -0.099900
      6 F2          4.5890   -3.5970   -9.5240 f         1 B91     -0.213300
      7 N2          4.6060    1.8640   -6.7600 n4        1 B91     -0.549200
      8 C3          2.8000    2.2030    0.1880 c2        1 B91     -0.033100
      9 F3          5.8460   -3.0120   -7.8460 f         1 B91     -0.213300
     10 N3          1.3380    0.2850  -10.0680 na        1 B91     -0.185000
     11 C4          3.8140    2.2050   -0.6950 ce        1 B91     -0.149200
     12 N4         -0.4900   -0.1720  -11.3520 nc        1 B91     -0.616000
     13 C5          4.0100    1.4290   -1.9130 ca        1 B91     -0.087800
     14 N5          0.0860   -0.2120   -0.3520 nc        1 B91     -0.568100
     15 C6          4.6350    0.1670   -1.8880 ca        1 B91      0.010700
     16 N6          0.4000    2.4280    2.1420 nb        1 B91     -0.622000
     17 C7          4.9030   -0.4910   -3.1010 ca        1 B91     -0.130000
     18 N7         -1.7430    1.3170    2.5770 nb        1 B91     -0.672000
     19 C8          4.5970    0.0990   -4.3200 ca        1 B91     -0.075000
     20 N8         -2.5840   -0.5610    1.2600 n4        1 B91     -0.711700
     21 C9          3.9960    1.3670   -4.3450 ca        1 B91     -0.210600
     22 C10         3.6870    2.0200   -3.1410 ca        1 B91     -0.035000
     23 C11         5.0480   -0.4690   -0.6180 c3        1 B91     -0.087800
     24 C12         3.6470    2.0540   -5.5880 c         1 B91      0.585700
     25 C13         4.1430    0.8380   -7.7030 ca        1 B91     -0.019400
     26 C14         2.9530    1.0560   -8.4160 ca        1 B91     -0.144000
     27 C15         2.5090    0.0920   -9.3510 ca        1 B91      0.098800
     28 C16         3.2890   -1.0840   -9.5350 ca        1 B91     -0.081000
     29 C17         4.4530   -1.2700   -8.8050 ca        1 B91     -0.113300
     30 C18         4.9080   -0.3200   -7.8870 ca        1 B91     -0.115000
     31 C19         5.2920   -2.5400   -9.0110 c3        1 B91      0.691200
     32 C22         0.6340    1.5020  -10.2410 cd        1 B91     -0.265600
     33 C23         0.5910   -0.7010  -10.7810 cd        1 B91      0.437400
     34 C24        -2.7130   -1.5580    2.3430 cx        1 B91     -0.000500
     35 C25        -0.4810    1.2090  -11.0330 cc        1 B91      0.371600
     36 C26         1.2700    0.3430   -0.6550 cd        1 B91      0.486700
     37 C27        -1.5120    2.1530  -11.4970 c3        1 B91     -0.134400
     38 C28        -3.3610   -2.8990    2.0580 cx        1 B91     -0.099900
     39 C29        -0.3870    0.5140    0.7500 ca        1 B91     -0.141200
     40 C30        -1.5480    0.4560    1.5490 ca        1 B91      0.560200
     41 C33        -0.7670    2.2440    2.8100 ca        1 B91      0.685900
     42 H2         -1.4970   -3.1840    3.3100 hc        1 B91      0.113950
     43 H2A        -1.1800   -3.0280    1.5130 hc        1 B91      0.113950
     44 HN2         4.6780    2.7560   -7.2730 hn        1 B91      0.470300
     45 H3          2.8360    2.9000    1.0580 h4        1 B91      0.201000
     46 H4          4.6480    2.9090   -0.4870 ha        1 B91      0.182000
     47 H7          5.3780   -1.4870   -3.0800 ha        1 B91      0.176000
     48 H8          4.8100   -0.4490   -5.2530 ha        1 B91      0.149000
     49 HN8        -3.4950   -0.0890    1.1500 hn        1 B91      0.473800
     50 H10         3.2030    3.0120   -3.1630 ha        1 B91      0.171000
     51 H11         4.9080   -1.5790   -0.6600 hc        1 B91      0.076033
     52 H11A        4.4710   -0.0660    0.2510 hc        1 B91      0.076033
     53 H11B        6.1360   -0.2660   -0.4350 hc        1 B91      0.076033
     54 H14         2.3600    1.9710   -8.2430 ha        1 B91      0.178000
     55 H16         2.9800   -1.8560  -10.2650 ha        1 B91      0.193000
     56 H18         5.8530   -0.5040   -7.3480 ha        1 B91      0.171000
     57 H22         0.9820    2.4470   -9.8300 h4        1 B91      0.182000
     58 H23         0.8900   -1.7550  -10.8260 h5        1 B91      0.077100
     59 H24        -2.9200   -1.0460    3.3140 hx        1 B91      0.163700
     60 H26         1.9310    0.0140   -1.4740 h5        1 B91      0.099800
     61 H27        -1.3040    3.1770  -11.0990 hc        1 B91      0.067033
     62 H27A       -2.5260    1.8270  -11.1520 hc        1 B91      0.067033
     63 H27B       -1.5230    2.1950  -12.6160 hc        1 B91      0.067033
     64 H28        -4.0530   -3.2990    2.8260 hc        1 B91      0.113950
     65 H28A       -3.7030   -3.1490    1.0350 hc        1 B91      0.113950
     66 H33        -0.9610    2.9370    3.6640 h5        1 B91      0.109100
     67 H221        5.5340    1.6070   -6.4040 hn        1 B91      0.470300
     68 H82        -2.3410   -1.0310    0.3760 hn        1 B91      0.473800
@<TRIPOS>BOND
     1    1    3 1   
     2    1   16 ar  
     3    1   39 ar  
     4    2   31 1   
     5    3    8 1   
     6    3   36 1   
     7    4   24 2   
     8    5   34 1   
     9    5   38 1   
    10    5   42 1   
    11    5   43 1   
    12    6   31 1   
    13    7   24 1   
    14    7   25 1   
    15    7   44 1   
    16    7   67 1   
    17    8   11 2   
    18    8   45 1   
    19    9   31 1   
    20   10   27 1   
    21   10   32 1   
    22   10   33 1   
    23   11   13 1   
    24   11   46 1   
    25   12   33 2   
    26   12   35 1   
    27   13   15 ar  
    28   13   22 ar  
    29   14   36 2   
    30   14   39 1   
    31   15   17 ar  
    32   15   23 1   
    33   16   41 ar  
    34   17   19 ar  
    35   17   47 1   
    36   18   40 ar  
    37   18   41 ar  
    38   19   21 ar  
    39   19   48 1   
    40   20   34 1   
    41   20   40 1   
    42   20   49 1   
    43   20   68 1   
    44   21   22 ar  
    45   21   24 1   
    46   22   50 1   
    47   23   51 1   
    48   23   52 1   
    49   23   53 1   
    50   25   26 ar  
    51   25   30 ar  
    52   26   27 ar  
    53   26   54 1   
    54   27   28 ar  
    55   28   29 ar  
    56   28   55 1   
    57   29   30 ar  
    58   29   31 1   
    59   30   56 1   
    60   32   35 2   
    61   32   57 1   
    62   33   58 1   
    63   34   38 1   
    64   34   59 1   
    65   35   37 1   
    66   36   60 1   
    67   37   61 1   
    68   37   62 1   
    69   37   63 1   
    70   38   64 1   
    71   38   65 1   
    72   39   40 ar  
    73   41   66 1   
@<TRIPOS>SUBSTRUCTURE
     1 B91         1 TEMP              0 ****  ****    0 ROOT
