@<TRIPOS>MOLECULE
B92
   76    76     1     0     0
SMALL
bcc


@<TRIPOS>ATOM
      1 C1         -4.6780    6.1940    2.2800 c3        1 B92     -0.280000
      2 C2         -3.2410    6.0620    1.6360 c2        1 B92      0.236000
      3 O3         -2.7640    6.9900    1.0280 o         1 B92     -0.368000
      4 C4         -2.4390    4.8170    1.8490 c3        1 B92     -0.023000
      5 C5         -1.8570    4.8320    3.2220 c3        1 B92     -0.235000
      6 C6         -2.1940    3.5360    3.9250 c2        1 B92      0.326000
      7 O7         -3.3980    3.2670    4.2090 o         1 B92     -0.573000
      8 O8         -1.2960    2.6920    4.1470 o         1 B92     -0.573000
      9 N9         -1.3660    4.7550    0.8650 n         1 B92     -0.326000
     10 C10        -1.2700    3.6240   -0.0250 c2        1 B92      0.277000
     11 O11        -2.1970    2.8760   -0.1410 o         1 B92     -0.364000
     12 C12         0.0040    3.2930   -0.6280 c3        1 B92     -0.020000
     13 C13         0.1320    3.9240   -2.0510 c2        1 B92     -0.173000
     14 C14         1.4040    3.4430   -2.7890 c1        1 B92     -0.079000
     15 C15         2.3170    4.4890   -3.5170 c3        1 B92     -0.115000
     16 C16         3.3990    3.7210   -4.3020 c3        1 B92     -0.167000
     17 C17         4.1450    2.7070   -3.4620 c3        1 B92     -0.148000
     18 C18         3.2420    1.7550   -2.7510 c3        1 B92     -0.189000
     19 C19         2.1720    2.4360   -1.9660 c2        1 B92      0.023000
     20 N20         1.3240    1.3630   -1.3520 n         1 B92     -0.174000
     21 N21         0.2100    1.7970   -0.6760 n         1 B92     -0.139000
     22 C22        -0.5360    0.6450   -0.2610 c2        1 B92      0.369000
     23 O23        -1.6120    0.6560    0.2990 o         1 B92     -0.331000
     24 N24         0.1820   -0.4830   -0.6150 n         1 B92     -0.304000
     25 C25        -0.2070   -1.8200   -0.3680 c3        1 B92     -0.020000
     26 C26         0.6800   -2.4130    0.6520 c3        1 B92     -0.006000
     27 C27         1.5570   -3.4670    0.0080 c3        1 B92     -0.157000
     28 C28         2.8240   -2.7960   -0.5740 c3        1 B92     -0.227000
     29 C29         3.4820   -3.7430   -1.5950 c2        1 B92      0.329000
     30 O30         4.2920   -4.6340   -1.1990 o         1 B92     -0.587500
     31 O31         3.2640   -3.5900   -2.8320 o         1 B92     -0.587500
     32 N32        -0.1250   -3.0230    1.6940 n         1 B92     -0.367000
     33 C33        -0.0280   -4.4220    1.9430 c2        1 B92      0.310000
     34 O34         0.9660   -5.0280    1.6110 o         1 B92     -0.393000
     35 C35        -1.1510   -5.1450    2.6780 c3        1 B92     -0.151000
     36 C36        -1.6110   -6.3220    1.8540 c2        1 B92     -0.076000
     37 C37        -1.0770   -7.5820    2.0860 c2        1 B92     -0.121000
     38 C38        -1.4900   -8.6610    1.3210 c1        1 B92     -0.136000
     39 C39        -2.4390   -8.4810    0.3240 c1        1 B92     -0.130000
     40 C40        -2.9720   -7.2230    0.0940 c1        1 B92     -0.130000
     41 C41        -2.5590   -6.1440    0.8580 c1        1 B92     -0.127000
     42 C42         1.3020   -0.0660   -1.3620 c2        1 B92      0.356000
     43 O43         2.0220   -0.7780   -2.0070 o         1 B92     -0.319000
     44 H1         -5.2970    6.5820    1.6220 hc        1 B92      0.120333
     45 H1A        -4.6310    6.7820    3.0770 hc        1 B92      0.120333
     46 H1B        -5.0010    5.3000    2.5490 hc        1 B92      0.120333
     47 H4         -3.0100    4.0460    1.7520 h1        1 B92      0.167000
     48 H5         -0.8900    4.9300    3.1630 hc        1 B92      0.079500
     49 H5A        -2.2340    5.5860    3.7290 hc        1 B92      0.079500
     50 HN9        -0.7100    5.4460    0.8310 hn        1 B92      0.207000
     51 H12         0.6090    3.7030   -0.0160 h1        1 B92      0.144000
     52 H13        -0.2180    4.7930   -2.2190 ha        1 B92      0.142000
     53 H15         1.8820    5.2240   -4.0100 hc        1 B92      0.083500
     54 H15A        2.7430    4.9770   -2.8430 hc        1 B92      0.083500
     55 H16         2.9910    3.2770   -5.0130 hc        1 B92      0.097500
     56 H16A        4.0300    4.3510   -4.6570 hc        1 B92      0.097500
     57 H17         4.7410    2.1980   -4.0400 hc        1 B92      0.076000
     58 H17A        4.6980    3.1990   -2.7780 hc        1 B92      0.076000
     59 H18         3.8000    1.2350   -2.1070 hc        1 B92      0.115500
     60 H18A        2.8150    1.2160   -3.4130 hc        1 B92      0.115500
     61 H19         2.6050    2.9230   -1.2360 h4        1 B92      0.126000
     62 H25        -1.1410   -1.8330   -0.0400 h1        1 B92      0.127500
     63 H25A       -0.1460   -2.3300   -1.1860 h1        1 B92      0.127500
     64 H26         1.2440   -1.7110    1.0430 h1        1 B92      0.128000
     65 H27         1.0600   -3.9100   -0.7140 hc        1 B92      0.097000
     66 H27A        1.8140   -4.1220    0.6720 hc        1 B92      0.097000
     67 H28         2.5740   -1.9550   -1.0200 hc        1 B92      0.066000
     68 H28A        3.4550   -2.6060    0.1500 hc        1 B92      0.066000
     69 HN32       -0.7270   -2.5180    2.1590 hn        1 B92      0.237000
     70 H35        -1.8970   -4.5320    2.8170 hc        1 B92      0.112500
     71 H35A       -0.8230   -5.4630    3.5460 hc        1 B92      0.112500
     72 H37        -0.4080   -7.7080    2.7890 ha        1 B92      0.131000
     73 H38        -1.1120   -9.5540    1.4840 ha        1 B92      0.121000
     74 H39        -2.6950   -9.2330   -0.2490 ha        1 B92      0.128000
     75 H40        -3.6430   -7.0970   -0.6110 ha        1 B92      0.128000
     76 H41        -2.8890   -5.2470    0.6560 ha        1 B92      0.163000
@<TRIPOS>BOND
     1    1    2 1   
     2    1   44 1   
     3    1   45 1   
     4    1   46 1   
     5    2    3 1   
     6    2    4 1   
     7    4    5 1   
     8    4    9 1   
     9    4   47 1   
    10    5    6 1   
    11    5   48 1   
    12    5   49 1   
    13    6    7 1   
    14    6    8 1   
    15    9   10 1   
    16    9   50 1   
    17   10   11 1   
    18   10   12 1   
    19   12   13 1   
    20   12   21 1   
    21   12   51 1   
    22   13   14 1   
    23   13   52 1   
    24   14   15 1   
    25   15   16 1   
    26   15   53 1   
    27   15   54 1   
    28   16   17 1   
    29   16   55 1   
    30   16   56 1   
    31   17   18 1   
    32   17   57 1   
    33   17   58 1   
    34   18   19 1   
    35   18   59 1   
    36   18   60 1   
    37   19   20 1   
    38   19   61 1   
    39   20   21 1   
    40   20   42 1   
    41   21   22 1   
    42   22   23 1   
    43   22   24 1   
    44   24   25 1   
    45   24   42 1   
    46   25   26 1   
    47   25   62 1   
    48   25   63 1   
    49   26   27 1   
    50   26   32 1   
    51   26   64 1   
    52   27   28 1   
    53   27   65 1   
    54   27   66 1   
    55   28   29 1   
    56   28   67 1   
    57   28   68 1   
    58   29   30 1   
    59   29   31 1   
    60   32   33 1   
    61   32   69 1   
    62   33   34 1   
    63   33   35 1   
    64   35   36 1   
    65   35   70 1   
    66   35   71 1   
    67   36   37 1   
    68   36   41 1   
    69   37   38 1   
    70   37   72 1   
    71   38   73 1   
    72   39   40 1   
    73   39   74 1   
    74   40   75 1   
    75   41   76 1   
    76   42   43 1   
@<TRIPOS>SUBSTRUCTURE
     1 B92         1 TEMP              0 ****  ****    0 ROOT
