@<TRIPOS>MOLECULE
B92
   78    81     1     0     0
SMALL
bcc


@<TRIPOS>ATOM
      1 C1          1.3400   -1.3670   -1.6850 c3        1 B92     -0.211100
      2 C2          2.5700   -0.8440   -1.0280 c         1 B92      0.561100
      3 O3          3.3130   -0.0040   -1.5410 o         1 B92     -0.530100
      4 C4          2.8620   -1.4510    0.3540 c3        1 B92     -0.019300
      5 C5          1.9980   -0.6940    1.3730 c3        1 B92     -0.187400
      6 C6          2.2630   -1.0500    2.8050 c         1 B92      0.632100
      7 O7          2.4810   -2.3360    3.1920 oh        1 B92     -0.574100
      8 O8          2.2600   -0.2460    3.7400 o         1 B92     -0.494000
      9 N9          4.2710   -1.4290    0.6820 n         1 B92     -0.537900
     10 C10         4.9360   -2.5880    1.0040 c         1 B92      0.635100
     11 O11         4.3000   -3.6400    1.2390 o         1 B92     -0.635100
     12 C12         6.4780   -2.5710    1.1420 c3        1 B92      0.001900
     13 C13         7.0770   -1.5550    0.2190 c2        1 B92     -0.199200
     14 C14         7.5900   -1.9170   -0.9630 c2        1 B92     -0.077400
     15 C15         8.1320   -0.9600   -1.9650 c3        1 B92     -0.045200
     16 C16         7.3650   -1.0790   -3.2710 c3        1 B92     -0.082400
     17 C17         7.2930   -2.5150   -3.7480 c3        1 B92     -0.078400
     18 C18         6.7420   -3.4470   -2.6860 c3        1 B92     -0.102400
     19 C19         7.6150   -3.3570   -1.4240 c3        1 B92      0.132900
     20 N20         7.3340   -4.3270   -0.3560 n         1 B92     -0.332400
     21 N21         7.1150   -3.8970    0.9560 n         1 B92     -0.188400
     22 C22         6.3490   -4.9940    1.6250 c         1 B92      0.765500
     23 O23         6.1410   -5.0710    2.8350 o         1 B92     -0.537500
     24 N24         6.0820   -6.0040    0.6460 n         1 B92     -0.484400
     25 C25         5.0560   -6.9920    0.7910 c3        1 B92      0.102000
     26 C26         3.6430   -6.5820    0.2760 c3        1 B92      0.069700
     27 C27         2.6880   -7.7420    0.6170 c3        1 B92     -0.093400
     28 C28         1.2490   -7.2710    0.6340 c3        1 B92     -0.182400
     29 C29         0.2960   -8.4250    0.5650 c         1 B92      0.623100
     30 O30         0.2200   -9.1590   -0.5880 oh        1 B92     -0.585100
     31 O31        -0.4730   -8.8110    1.4440 o         1 B92     -0.484000
     32 N32         3.6700   -6.2600   -1.1310 n         1 B92     -0.564900
     33 C33         2.9380   -5.2470   -1.7000 c         1 B92      0.667100
     34 O34         2.1500   -4.5350   -1.0370 o         1 B92     -0.653100
     35 C35         3.1390   -4.9800   -3.1870 c3        1 B92     -0.109100
     36 C36         3.1860   -6.2100   -4.0180 ca        1 B92     -0.104300
     37 C37         2.0230   -6.6910   -4.6310 ca        1 B92     -0.127500
     38 C38         2.0710   -7.8330   -5.4280 ca        1 B92     -0.126000
     39 C39         3.2800   -8.5020   -5.6210 ca        1 B92     -0.122000
     40 C40         4.4420   -8.0250   -5.0150 ca        1 B92     -0.126000
     41 C41         4.3980   -6.8830   -4.2160 ca        1 B92     -0.127500
     42 C42         6.6020   -5.5520   -0.6040 c         1 B92      0.777500
     43 O43         6.5600   -6.1880   -1.6710 o         1 B92     -0.629500
     44 H1          1.4330   -2.4770   -1.8230 hc        1 B92      0.080033
     45 H1A         1.1860   -0.8830   -2.6790 hc        1 B92      0.080033
     46 H1B         0.4480   -1.1670   -1.0420 hc        1 B92      0.080033
     47 H4          2.5210   -2.5380    0.3140 h1        1 B92      0.125700
     48 H5          2.1510    0.4130    1.2600 hc        1 B92      0.091700
     49 H5A         0.9190   -0.9200    1.1570 hc        1 B92      0.091700
     50 HN9         4.7810   -0.6190    0.4070 hn        1 B92      0.336500
     51 H12         6.6960   -2.3080    2.2240 h1        1 B92      0.136700
     52 H13         7.0790   -0.5160    0.5800 ha        1 B92      0.152000
     53 H15         9.2190   -1.1870   -2.1390 hc        1 B92      0.061200
     54 H15A        8.0640    0.0920   -1.5820 hc        1 B92      0.061200
     55 H16         6.3260   -0.6780   -3.1300 hc        1 B92      0.054200
     56 H16A        7.8660   -0.4490   -4.0510 hc        1 B92      0.054200
     57 H17         6.6390   -2.5720   -4.6570 hc        1 B92      0.051200
     58 H17A        8.3170   -2.8610   -4.0500 hc        1 B92      0.051200
     59 H18         6.7390   -4.4970   -3.0830 hc        1 B92      0.063200
     60 H18A        5.6860   -3.1650   -2.4400 hc        1 B92      0.063200
     61 H19         8.6830   -3.6080   -1.7230 h1        1 B92      0.097700
     62 H25         4.9670   -7.2150    1.8930 h1        1 B92      0.085200
     63 H25A        5.3980   -7.9170    0.2450 h1        1 B92      0.085200
     64 H26         3.2980   -5.6590    0.8390 h1        1 B92      0.113700
     65 H27         2.8180   -8.5800   -0.1170 hc        1 B92      0.058700
     66 H27A        2.9550   -8.1430    1.6300 hc        1 B92      0.058700
     67 H28         1.0470   -6.5780   -0.2280 hc        1 B92      0.091200
     68 H28A        1.0480   -6.6950    1.5770 hc        1 B92      0.091200
     69 HN32        4.2820   -6.7950   -1.7080 hn        1 B92      0.335500
     70 H35         4.0990   -4.4030   -3.2990 hc        1 B92      0.079700
     71 H35A        2.2970   -4.3140   -3.5200 hc        1 B92      0.079700
     72 H37         1.0680   -6.1620   -4.4860 ha        1 B92      0.144000
     73 H38         1.1530   -8.2050   -5.9070 ha        1 B92      0.139000
     74 H39         3.3160   -9.4020   -6.2520 ha        1 B92      0.138000
     75 H40         5.3980   -8.5490   -5.1670 ha        1 B92      0.139000
     76 H41         5.3220   -6.5100   -3.7400 ha        1 B92      0.144000
     77 H92         2.5710   -2.9220    2.4230 ho        1 B92      0.446000
     78 H322        0.8380   -8.8050   -1.2420 ho        1 B92      0.424000
@<TRIPOS>BOND
     1    1    2 1   
     2    1   44 1   
     3    1   45 1   
     4    1   46 1   
     5    2    3 2   
     6    2    4 1   
     7    4    5 1   
     8    4    9 1   
     9    4   47 1   
    10    5    6 1   
    11    5   48 1   
    12    5   49 1   
    13    6    7 1   
    14    6    8 2   
    15    7   77 1   
    16    9   10 1   
    17    9   50 1   
    18   10   11 2   
    19   10   12 1   
    20   12   13 1   
    21   12   21 1   
    22   12   51 1   
    23   13   14 2   
    24   13   52 1   
    25   14   15 1   
    26   14   19 1   
    27   15   16 1   
    28   15   53 1   
    29   15   54 1   
    30   16   17 1   
    31   16   55 1   
    32   16   56 1   
    33   17   18 1   
    34   17   57 1   
    35   17   58 1   
    36   18   19 1   
    37   18   59 1   
    38   18   60 1   
    39   19   20 1   
    40   19   61 1   
    41   20   21 1   
    42   20   42 1   
    43   21   22 1   
    44   22   23 2   
    45   22   24 1   
    46   24   25 1   
    47   24   42 1   
    48   25   26 1   
    49   25   62 1   
    50   25   63 1   
    51   26   27 1   
    52   26   32 1   
    53   26   64 1   
    54   27   28 1   
    55   27   65 1   
    56   27   66 1   
    57   28   29 1   
    58   28   67 1   
    59   28   68 1   
    60   29   30 1   
    61   29   31 2   
    62   30   78 1   
    63   32   33 1   
    64   32   69 1   
    65   33   34 2   
    66   33   35 1   
    67   35   36 1   
    68   35   70 1   
    69   35   71 1   
    70   36   37 ar  
    71   36   41 ar  
    72   37   38 ar  
    73   37   72 1   
    74   38   39 ar  
    75   38   73 1   
    76   39   40 ar  
    77   39   74 1   
    78   40   41 ar  
    79   40   75 1   
    80   41   76 1   
    81   42   43 2   
@<TRIPOS>SUBSTRUCTURE
     1 B92         1 TEMP              0 ****  ****    0 ROOT
