@<TRIPOS>MOLECULE
B92
   76    79     1     0     0
SMALL
bcc


@<TRIPOS>ATOM
      1 C1          2.2040    1.5520   -2.6810 c3        1 B92     -0.209100
      2 C2          3.2660    0.5910   -2.2670 c         1 B92      0.568100
      3 O3          3.4290   -0.5010   -2.8240 o         1 B92     -0.565100
      4 C4          4.1520    1.0480   -1.0960 c3        1 B92      0.030700
      5 C5          5.6110    1.0240   -1.5690 c3        1 B92     -0.209400
      6 C6          6.6410    1.2900   -0.4580 c         1 B92      0.911600
      7 O7          6.7070    0.4750    0.5150 o         1 B92     -0.846300
      8 O8          7.4050    2.2840   -0.5850 o         1 B92     -0.846300
      9 N9          3.9410    0.2360    0.0840 n         1 B92     -0.519900
     10 C10         2.7760    0.2660    0.7920 c         1 B92      0.626100
     11 O11         1.7290    0.8250    0.3930 o         1 B92     -0.636100
     12 C12         2.7660   -0.4970    2.1490 c3        1 B92      0.002900
     13 C13         3.2980   -1.8770    1.8990 c2        1 B92     -0.151200
     14 C14         2.4630   -2.9010    1.6940 c2        1 B92     -0.119400
     15 C15         2.8700   -4.2470    1.2150 c3        1 B92     -0.031200
     16 C16         2.2690   -4.4880   -0.1620 c3        1 B92     -0.081400
     17 C17         0.7750   -4.2340   -0.1820 c3        1 B92     -0.069400
     18 C18         0.4080   -2.8680    0.3670 c3        1 B92     -0.110400
     19 C19         0.9660   -2.7340    1.7940 c3        1 B92      0.112900
     20 N20         0.5620   -1.5560    2.5780 n         1 B92     -0.288400
     21 N21         1.4630   -0.5170    2.8410 n         1 B92     -0.231400
     22 C22         0.7010    0.7560    2.7420 c         1 B92      0.779500
     23 O23         1.1370    1.8690    3.0530 o         1 B92     -0.583500
     24 N24        -0.6580    0.4310    2.4650 n         1 B92     -0.484400
     25 C25        -1.7100    1.3690    2.2100 c3        1 B92      0.112000
     26 C26        -2.0960    1.6410    0.7260 c3        1 B92      0.067700
     27 C27        -3.4320    2.4120    0.7760 c3        1 B92     -0.085400
     28 C28        -3.7550    3.1260   -0.5150 c3        1 B92     -0.200400
     29 C29        -5.2770    3.2310   -0.7120 c         1 B92      0.908600
     30 O30        -5.9270    2.1580   -0.9110 o         1 B92     -0.858800
     31 O31        -5.8160    4.3720   -0.6780 o         1 B92     -0.858800
     32 N32        -2.1620    0.4180   -0.0420 n         1 B92     -0.538900
     33 C33        -1.8070    0.3760   -1.3770 c         1 B92      0.664100
     34 O34        -1.1400    1.2750   -1.9290 o         1 B92     -0.615100
     35 C35        -2.1600   -0.8880   -2.1500 c3        1 B92     -0.111100
     36 C36        -3.5750   -1.3250   -2.0310 ca        1 B92     -0.099300
     37 C37        -3.8780   -2.6850   -2.1960 ca        1 B92     -0.126000
     38 C38        -5.1970   -3.1260   -2.1270 ca        1 B92     -0.128000
     39 C39        -6.2290   -2.2160   -1.8880 ca        1 B92     -0.154000
     40 C40        -5.9350   -0.8650   -1.7220 ca        1 B92     -0.128000
     41 C41        -4.6130   -0.4180   -1.7980 ca        1 B92     -0.126000
     42 C42        -0.7530   -0.9720    2.2800 c         1 B92      0.771500
     43 O43        -1.7920   -1.6220    2.0850 o         1 B92     -0.617500
     44 H1          1.3950    1.5510   -1.8990 hc        1 B92      0.073700
     45 H1A         2.6190    2.5850   -2.7620 hc        1 B92      0.073700
     46 H1B         1.7530    1.2580   -3.6590 hc        1 B92      0.073700
     47 H4          3.8660    2.1160   -0.8460 h1        1 B92      0.062700
     48 H5          5.8380    0.0220   -2.0150 hc        1 B92      0.047700
     49 H5A         5.7220    1.8030   -2.3640 hc        1 B92      0.047700
     50 HN9         4.7860   -0.1030    0.5210 hn        1 B92      0.371500
     51 H12         3.4400    0.0740    2.8590 h1        1 B92      0.119700
     52 H13         4.3930   -1.9640    1.8360 ha        1 B92      0.160000
     53 H15         3.9880   -4.3260    1.1580 hc        1 B92      0.044200
     54 H15A        2.5080   -5.0320    1.9320 hc        1 B92      0.044200
     55 H16         2.7700   -3.8110   -0.9040 hc        1 B92      0.047200
     56 H16A        2.4740   -5.5450   -0.4740 hc        1 B92      0.047200
     57 H17         0.4020   -4.3110   -1.2370 hc        1 B92      0.036700
     58 H17A        0.2540   -5.0260    0.4180 hc        1 B92      0.036700
     59 H18         0.8300   -2.0610   -0.2870 hc        1 B92      0.075700
     60 H18A       -0.7080   -2.7570    0.3770 hc        1 B92      0.075700
     61 H19         0.5450   -3.5900    2.4090 h1        1 B92      0.077700
     62 H25        -2.6240    0.9850    2.7500 h1        1 B92      0.067200
     63 H25A       -1.3930    2.3540    2.6570 h1        1 B92      0.067200
     64 H26        -1.3040    2.2970    0.2550 h1        1 B92      0.099700
     65 H27        -4.2680    1.7020    1.0210 hc        1 B92      0.044200
     66 H27A       -3.3740    3.1610    1.6080 hc        1 B92      0.044200
     67 H28        -3.3090    4.1520   -0.5100 hc        1 B92      0.035700
     68 H28A       -3.3250    2.5750   -1.3910 hc        1 B92      0.035700
     69 HN32       -2.8340   -0.2490    0.2720 hn        1 B92      0.315500
     70 H35        -1.9280   -0.6880   -3.2330 hc        1 B92      0.070200
     71 H35A       -1.4680   -1.7020   -1.7980 hc        1 B92      0.070200
     72 H37        -3.0680   -3.4060   -2.3760 ha        1 B92      0.157000
     73 H38        -5.4230   -4.1940   -2.2550 ha        1 B92      0.142000
     74 H39        -7.2680   -2.5680   -1.8280 ha        1 B92      0.111000
     75 H40        -6.7200   -0.1150   -1.5170 ha        1 B92      0.142000
     76 H41        -4.4340    0.6680   -1.6550 ha        1 B92      0.157000
@<TRIPOS>BOND
     1    1    2 1   
     2    1   44 1   
     3    1   45 1   
     4    1   46 1   
     5    2    3 2   
     6    2    4 1   
     7    4    5 1   
     8    4    9 1   
     9    4   47 1   
    10    5    6 1   
    11    5   48 1   
    12    5   49 1   
    13    6    7 1   
    14    6    8 1   
    15    9   10 1   
    16    9   50 1   
    17   10   11 2   
    18   10   12 1   
    19   12   13 1   
    20   12   21 1   
    21   12   51 1   
    22   13   14 2   
    23   13   52 1   
    24   14   15 1   
    25   14   19 1   
    26   15   16 1   
    27   15   53 1   
    28   15   54 1   
    29   16   17 1   
    30   16   55 1   
    31   16   56 1   
    32   17   18 1   
    33   17   57 1   
    34   17   58 1   
    35   18   19 1   
    36   18   59 1   
    37   18   60 1   
    38   19   20 1   
    39   19   61 1   
    40   20   21 1   
    41   20   42 1   
    42   21   22 1   
    43   22   23 2   
    44   22   24 1   
    45   24   25 1   
    46   24   42 1   
    47   25   26 1   
    48   25   62 1   
    49   25   63 1   
    50   26   27 1   
    51   26   32 1   
    52   26   64 1   
    53   27   28 1   
    54   27   65 1   
    55   27   66 1   
    56   28   29 1   
    57   28   67 1   
    58   28   68 1   
    59   29   30 1   
    60   29   31 1   
    61   32   33 1   
    62   32   69 1   
    63   33   34 2   
    64   33   35 1   
    65   35   36 1   
    66   35   70 1   
    67   35   71 1   
    68   36   37 ar  
    69   36   41 ar  
    70   37   38 ar  
    71   37   72 1   
    72   38   39 ar  
    73   38   73 1   
    74   39   40 ar  
    75   39   74 1   
    76   40   41 ar  
    77   40   75 1   
    78   41   76 1   
    79   42   43 2   
@<TRIPOS>SUBSTRUCTURE
     1 B92         1 TEMP              0 ****  ****    0 ROOT
