@<TRIPOS>MOLECULE
B92
   78    81     1     0     0
SMALL
bcc


@<TRIPOS>ATOM
      1 C1          1.3260   -1.3660   -1.6340 c3        1 B92     -0.211100
      2 C2          2.5670   -0.8420   -0.9980 c         1 B92      0.561100
      3 O3          3.3020   -0.0020   -1.5240 o         1 B92     -0.530100
      4 C4          2.8830   -1.4500    0.3780 c3        1 B92     -0.019300
      5 C5          2.0370   -0.6940    1.4120 c3        1 B92     -0.187400
      6 C6          2.3260   -1.0490    2.8400 c         1 B92      0.632100
      7 O7          2.5510   -2.3360    3.2220 oh        1 B92     -0.574100
      8 O8          2.3380   -0.2450    3.7740 o         1 B92     -0.494000
      9 N9          4.2980   -1.4280    0.6820 n         1 B92     -0.537900
     10 C10         4.9680   -2.5860    0.9930 c         1 B92      0.635100
     11 O11         4.3360   -3.6390    1.2380 o         1 B92     -0.635100
     12 C12         6.5120   -2.5680    1.1050 c3        1 B92      0.001900
     13 C13         7.0960   -1.5520    0.1730 c2        1 B92     -0.199200
     14 C14         7.5880   -1.9130   -1.0180 c2        1 B92     -0.077400
     15 C15         8.1130   -0.9560   -2.0280 c3        1 B92     -0.045200
     16 C16         7.3240   -1.0740   -3.3210 c3        1 B92     -0.082400
     17 C17         7.2450   -2.5100   -3.7970 c3        1 B92     -0.078400
     18 C18         6.7120   -3.4430   -2.7280 c3        1 B92     -0.102400
     19 C19         7.6070   -3.3530   -1.4800 c3        1 B92      0.132900
     20 N20         7.3440   -4.3240   -0.4080 n         1 B92     -0.332400
     21 N21         7.1470   -3.8940    0.9080 n         1 B92     -0.188400
     22 C22         6.3920   -4.9920    1.5880 c         1 B92      0.765500
     23 O23         6.2040   -5.0690    2.8020 o         1 B92     -0.537500
     24 N24         6.1090   -6.0020    0.6140 n         1 B92     -0.484400
     25 C25         5.0860   -6.9900    0.7750 c3        1 B92      0.102000
     26 C26         3.6640   -6.5800    0.2840 c3        1 B92      0.069700
     27 C27         2.7160   -7.7400    0.6400 c3        1 B92     -0.093400
     28 C28         1.2770   -7.2700    0.6820 c3        1 B92     -0.182400
     29 C29         0.3230   -8.4240    0.6290 c         1 B92      0.623100
     30 O30         0.2280   -9.1580   -0.5230 oh        1 B92     -0.585100
     31 O31        -0.4310   -8.8110    1.5210 o         1 B92     -0.484000
     32 N32         3.6670   -6.2580   -1.1230 n         1 B92     -0.564900
     33 C33         2.9260   -5.2450   -1.6800 c         1 B92      0.667100
     34 O34         2.1490   -4.5340   -1.0030 o         1 B92     -0.653100
     35 C35         3.1020   -4.9770   -3.1690 c3        1 B92     -0.109100
     36 C36         3.1360   -6.2070   -4.0020 ca        1 B92     -0.104300
     37 C37         1.9630   -6.6890   -4.5950 ca        1 B92     -0.127500
     38 C38         1.9990   -7.8310   -5.3930 ca        1 B92     -0.126000
     39 C39         3.2050   -8.4990   -5.6060 ca        1 B92     -0.122000
     40 C40         4.3770   -8.0210   -5.0190 ca        1 B92     -0.126000
     41 C41         4.3460   -6.8800   -4.2200 ca        1 B92     -0.127500
     42 C42         6.6080   -5.5490   -0.6440 c         1 B92      0.777500
     43 O43         6.5480   -6.1840   -1.7110 o         1 B92     -0.629500
     44 H1          1.4180   -2.4750   -1.7750 hc        1 B92      0.080033
     45 H1A         1.1550   -0.8810   -2.6260 hc        1 B92      0.080033
     46 H1B         0.4450   -1.1660   -0.9760 hc        1 B92      0.080033
     47 H4          2.5410   -2.5370    0.3440 h1        1 B92      0.125700
     48 H5          0.9540   -0.9200    1.2150 hc        1 B92      0.091700
     49 H5A         2.1870    0.4140    1.2960 hc        1 B92      0.091700
     50 HN9         4.8020   -0.6180    0.3990 hn        1 B92      0.336500
     51 H12         6.7480   -2.3070    2.1840 h1        1 B92      0.136700
     52 H13         7.1030   -0.5140    0.5340 ha        1 B92      0.152000
     53 H15         9.1970   -1.1820   -2.2210 hc        1 B92      0.061200
     54 H15A        8.0520    0.0960   -1.6440 hc        1 B92      0.061200
     55 H16         6.2880   -0.6740   -3.1630 hc        1 B92      0.054200
     56 H16A        7.8120   -0.4430   -4.1090 hc        1 B92      0.054200
     57 H17         6.5750   -2.5670   -4.6950 hc        1 B92      0.051200
     58 H17A        8.2640   -2.8560   -4.1170 hc        1 B92      0.051200
     59 H18         6.7030   -4.4930   -3.1250 hc        1 B92      0.063200
     60 H18A        5.6600   -3.1620   -2.4630 hc        1 B92      0.063200
     61 H19         8.6690   -3.6040   -1.7970 h1        1 B92      0.097700
     62 H25         5.0150   -7.2140    1.8790 h1        1 B92      0.085200
     63 H25A        5.4190   -7.9150    0.2240 h1        1 B92      0.085200
     64 H26         3.3280   -5.6570    0.8530 h1        1 B92      0.113700
     65 H27         2.9990   -8.1420    1.6490 hc        1 B92      0.058700
     66 H27A        2.8330   -8.5790   -0.0960 hc        1 B92      0.058700
     67 H28         1.0920   -6.6930    1.6280 hc        1 B92      0.090700
     68 H28A        1.0600   -6.5770   -0.1770 hc        1 B92      0.090700
     69 HN32        4.2710   -6.7920   -1.7100 hn        1 B92      0.335500
     70 H35         4.0600   -4.4000   -3.2970 hc        1 B92      0.079700
     71 H35A        2.2540   -4.3120   -3.4880 hc        1 B92      0.079700
     72 H37         1.0110   -6.1610   -4.4350 ha        1 B92      0.144000
     73 H38         1.0730   -8.2040   -5.8570 ha        1 B92      0.139000
     74 H39         3.2320   -9.3990   -6.2370 ha        1 B92      0.138000
     75 H40         5.3300   -8.5450   -5.1870 ha        1 B92      0.139000
     76 H41         5.2770   -6.5060   -3.7590 ha        1 B92      0.144000
     77 H92         2.6280   -2.9210    2.4520 ho        1 B92      0.446000
     78 H322        0.8340   -8.8030   -1.1870 ho        1 B92      0.424000
@<TRIPOS>BOND
     1    1    2 1   
     2    1   44 1   
     3    1   45 1   
     4    1   46 1   
     5    2    3 2   
     6    2    4 1   
     7    4    5 1   
     8    4    9 1   
     9    4   47 1   
    10    5    6 1   
    11    5   48 1   
    12    5   49 1   
    13    6    7 1   
    14    6    8 2   
    15    7   77 1   
    16    9   10 1   
    17    9   50 1   
    18   10   11 2   
    19   10   12 1   
    20   12   13 1   
    21   12   21 1   
    22   12   51 1   
    23   13   14 2   
    24   13   52 1   
    25   14   15 1   
    26   14   19 1   
    27   15   16 1   
    28   15   53 1   
    29   15   54 1   
    30   16   17 1   
    31   16   55 1   
    32   16   56 1   
    33   17   18 1   
    34   17   57 1   
    35   17   58 1   
    36   18   19 1   
    37   18   59 1   
    38   18   60 1   
    39   19   20 1   
    40   19   61 1   
    41   20   21 1   
    42   20   42 1   
    43   21   22 1   
    44   22   23 2   
    45   22   24 1   
    46   24   25 1   
    47   24   42 1   
    48   25   26 1   
    49   25   62 1   
    50   25   63 1   
    51   26   27 1   
    52   26   32 1   
    53   26   64 1   
    54   27   28 1   
    55   27   65 1   
    56   27   66 1   
    57   28   29 1   
    58   28   67 1   
    59   28   68 1   
    60   29   30 1   
    61   29   31 2   
    62   30   78 1   
    63   32   33 1   
    64   32   69 1   
    65   33   34 2   
    66   33   35 1   
    67   35   36 1   
    68   35   70 1   
    69   35   71 1   
    70   36   37 ar  
    71   36   41 ar  
    72   37   38 ar  
    73   37   72 1   
    74   38   39 ar  
    75   38   73 1   
    76   39   40 ar  
    77   39   74 1   
    78   40   41 ar  
    79   40   75 1   
    80   41   76 1   
    81   42   43 2   
@<TRIPOS>SUBSTRUCTURE
     1 B92         1 TEMP              0 ****  ****    0 ROOT
