@<TRIPOS>MOLECULE
B92
   78    81     1     0     0
SMALL
bcc


@<TRIPOS>ATOM
      1 C1          1.3190   -1.3850   -1.6780 c3        1 B92     -0.211100
      2 C2          2.5500   -0.8530   -1.0300 c         1 B92      0.561100
      3 O3          3.2860   -0.0110   -1.5500 o         1 B92     -0.530100
      4 C4          2.8530   -1.4540    0.3520 c3        1 B92     -0.019300
      5 C5          1.9910   -0.6990    1.3740 c3        1 B92     -0.187400
      6 C6          2.2660   -1.0480    2.8060 c         1 B92      0.632100
      7 O7          2.4920   -2.3320    3.1950 oh        1 B92     -0.574100
      8 O8          2.2630   -0.2410    3.7370 o         1 B92     -0.494000
      9 N9          4.2640   -1.4240    0.6730 ns        1 B92     -0.537900
     10 C10         4.9370   -2.5770    0.9950 c         1 B92      0.635100
     11 O11         4.3080   -3.6320    1.2370 o         1 B92     -0.635100
     12 C12         6.4790   -2.5510    1.1250 c3        1 B92      0.001900
     13 C13         7.0680   -1.5350    0.1960 c2        1 B92     -0.199200
     14 C14         7.5770   -1.8970   -0.9880 c2        1 B92     -0.077400
     15 C15         8.1080   -0.9410   -1.9950 c3        1 B92     -0.045200
     16 C16         7.3350   -1.0680   -3.2970 c3        1 B92     -0.082400
     17 C17         7.2690   -2.5060   -3.7690 c3        1 B92     -0.078400
     18 C18         6.7290   -3.4380   -2.7020 c3        1 B92     -0.102400
     19 C19         7.6080   -3.3380   -1.4450 c3        1 B92      0.132900
     20 N20         7.3380   -4.3070   -0.3720 n         1 B92     -0.332400
     21 N21         7.1230   -3.8740    0.9400 n         1 B92     -0.188400
     22 C22         6.3660   -4.9730    1.6160 c         1 B92      0.765500
     23 O23         6.1650   -5.0480    2.8270 o         1 B92     -0.537500
     24 N24         6.1010   -5.9880    0.6420 n         1 B92     -0.484400
     25 C25         5.0810   -6.9810    0.7950 c3        1 B92      0.102000
     26 C26         3.6620   -6.5810    0.2850 c3        1 B92      0.069700
     27 C27         2.7160   -7.7440    0.6350 c3        1 B92     -0.093400
     28 C28         1.2740   -7.2810    0.6580 c3        1 B92     -0.182400
     29 C29         0.3280   -8.4410    0.5980 c         1 B92      0.623100
     30 O30         0.2490   -9.1790   -0.5520 oh        1 B92     -0.585100
     31 O31        -0.4340   -8.8290    1.4820 o         1 B92     -0.484000
     32 N32         3.6800   -6.2630   -1.1220 ns        1 B92     -0.564900
     33 C33         2.9400   -5.2560   -1.6910 c         1 B92      0.667100
     34 O34         2.1510   -4.5470   -1.0260 o         1 B92     -0.653100
     35 C35         3.1320   -4.9920   -3.1800 c3        1 B92     -0.109100
     36 C36         3.1820   -6.2250   -4.0070 ca        1 B92     -0.104300
     37 C37         2.0180   -6.7140   -4.6120 ca        1 B92     -0.127500
     38 C38         2.0690   -7.8590   -5.4060 ca        1 B92     -0.126000
     39 C39         3.2810   -8.5210   -5.6030 ca        1 B92     -0.122000
     40 C40         4.4440   -8.0360   -5.0040 ca        1 B92     -0.126000
     41 C41         4.3970   -6.8920   -4.2090 ca        1 B92     -0.127500
     42 C42         6.6110   -5.5370   -0.6130 c         1 B92      0.777500
     43 O43         6.5670   -6.1760   -1.6770 o         1 B92     -0.629500
     44 H1          0.4300   -1.1880   -1.0310 hc        1 B92      0.080033
     45 H1A         1.4190   -2.4950   -1.8140 hc        1 B92      0.080033
     46 H1B         1.1580   -0.9050   -2.6740 hc        1 B92      0.080033
     47 H4          2.5180   -2.5430    0.3180 h1        1 B92      0.125700
     48 H5          0.9120   -0.9320    1.1640 hc        1 B92      0.091700
     49 H5A         2.1370    0.4090    1.2560 hc        1 B92      0.091700
     50 HN9         2.5820   -2.9200    2.4280 ho        1 B92      0.446000
     51 H12         6.7010   -2.2840    2.2050 h1        1 B92      0.136700
     52 H13         7.0660   -0.4950    0.5530 ha        1 B92      0.152000
     53 H15         9.1950   -1.1620   -2.1750 hc        1 B92      0.061200
     54 H15A        8.0370    0.1130   -1.6150 hc        1 B92      0.061200
     55 H16         7.8290   -0.4370   -4.0810 hc        1 B92      0.054200
     56 H16A        6.2950   -0.6720   -3.1520 hc        1 B92      0.054200
     57 H17         8.2940   -2.8470   -4.0750 hc        1 B92      0.051200
     58 H17A        6.6100   -2.5700   -4.6740 hc        1 B92      0.051200
     59 H18         5.6730   -3.1610   -2.4510 hc        1 B92      0.063200
     60 H18A        6.7300   -4.4890   -3.0950 hc        1 B92      0.063200
     61 H19         8.6760   -3.5850   -1.7480 h1        1 B92      0.097700
     62 H25         5.4250   -7.9060    0.2500 h1        1 B92      0.085200
     63 H25A        4.9980   -7.2020    1.8980 h1        1 B92      0.085200
     64 H26         3.3150   -5.6580    0.8470 h1        1 B92      0.113700
     65 H27         2.9900   -8.1410    1.6480 hc        1 B92      0.058700
     66 H27A        2.8470   -8.5850   -0.0970 hc        1 B92      0.058700
     67 H28         1.0640   -6.5930   -0.2060 hc        1 B92      0.090700
     68 H28A        1.0750   -6.7030    1.6000 hc        1 B92      0.090700
     69 HN32        4.2930   -6.7960   -1.7010 hn        1 B92      0.335500
     70 H35         4.0880   -4.4100   -3.2980 hc        1 B92      0.079700
     71 H35A        2.2840   -4.3320   -3.5100 hc        1 B92      0.079700
     72 H37         1.0610   -6.1910   -4.4650 ha        1 B92      0.144000
     73 H38         1.1510   -8.2380   -5.8800 ha        1 B92      0.139000
     74 H39         3.3200   -9.4240   -6.2310 ha        1 B92      0.138000
     75 H40         5.4020   -8.5550   -5.1590 ha        1 B92      0.139000
     76 H41         5.3210   -6.5120   -3.7390 ha        1 B92      0.144000
     77 H92         4.7680   -0.6120    0.3920 hn        1 B92      0.336500
     78 H322        0.8610   -8.8240   -1.2110 ho        1 B92      0.424000
@<TRIPOS>BOND
     1    1    2 1   
     2    1   44 1   
     3    1   45 1   
     4    1   46 1   
     5    2    3 2   
     6    2    4 1   
     7    4    5 1   
     8    4    9 1   
     9    4   47 1   
    10    5    6 1   
    11    5   48 1   
    12    5   49 1   
    13    6    7 1   
    14    6    8 2   
    15    7   50 1   
    16    9   10 1   
    17    9   77 1   
    18   10   11 2   
    19   10   12 1   
    20   12   13 1   
    21   12   21 1   
    22   12   51 1   
    23   13   14 2   
    24   13   52 1   
    25   14   15 1   
    26   14   19 1   
    27   15   16 1   
    28   15   53 1   
    29   15   54 1   
    30   16   17 1   
    31   16   55 1   
    32   16   56 1   
    33   17   18 1   
    34   17   57 1   
    35   17   58 1   
    36   18   19 1   
    37   18   59 1   
    38   18   60 1   
    39   19   20 1   
    40   19   61 1   
    41   20   21 1   
    42   20   42 1   
    43   21   22 1   
    44   22   23 2   
    45   22   24 1   
    46   24   25 1   
    47   24   42 1   
    48   25   26 1   
    49   25   62 1   
    50   25   63 1   
    51   26   27 1   
    52   26   32 1   
    53   26   64 1   
    54   27   28 1   
    55   27   65 1   
    56   27   66 1   
    57   28   29 1   
    58   28   67 1   
    59   28   68 1   
    60   29   30 1   
    61   29   31 2   
    62   30   78 1   
    63   32   33 1   
    64   32   69 1   
    65   33   34 2   
    66   33   35 1   
    67   35   36 1   
    68   35   70 1   
    69   35   71 1   
    70   36   37 ar  
    71   36   41 ar  
    72   37   38 ar  
    73   37   72 1   
    74   38   39 ar  
    75   38   73 1   
    76   39   40 ar  
    77   39   74 1   
    78   40   41 ar  
    79   40   75 1   
    80   41   76 1   
    81   42   43 2   
@<TRIPOS>SUBSTRUCTURE
     1 B92         1 TEMP              0 ****  ****    0 ROOT
