@<TRIPOS>MOLECULE
B93
   77    81     1     0     0
SMALL
bcc


@<TRIPOS>ATOM
      1 C1         -0.0960   -3.2320    1.7340 c3        1 B93     -0.205100
      2 C2          0.7630   -2.8580    0.5730 c         1 B93      0.569100
      3 O3          1.9880   -3.0130    0.5710 o         1 B93     -0.546100
      4 C4         -0.0030   -2.2770   -0.6220 c3        1 B93      0.014700
      5 C5          0.0840   -3.2870   -1.7740 c3        1 B93     -0.206400
      6 C6         -0.7710   -2.8750   -2.9790 c         1 B93      0.916600
      7 O7         -1.5560   -3.7380   -3.4700 o         1 B93     -0.850300
      8 O8         -0.6520   -1.7020   -3.4420 o         1 B93     -0.850300
      9 N9          0.4880   -0.9640   -1.0000 n         1 B93     -0.497900
     10 C10         0.3080    0.1210   -0.1930 c         1 B93      0.634100
     11 O11        -0.1440    0.0540    0.9770 o         1 B93     -0.683100
     12 C12         0.7990    1.4880   -0.7410 c3        1 B93     -0.003100
     13 C13         2.2960    1.3990   -0.8310 c2        1 B93     -0.157200
     14 C14         3.0560    1.7870    0.2040 c2        1 B93     -0.103400
     15 C15         4.5370    1.6910    0.2300 c3        1 B93     -0.036200
     16 C16         5.2150    3.0210   -0.0780 c3        1 B93     -0.060700
     17 C17         6.6830    2.9640    0.3250 c3        1 B93     -0.075400
     18 C18         7.3860    4.2680    0.0090 c3        1 B93     -0.075400
     19 C19         7.2420    4.6370   -1.4530 c3        1 B93     -0.076400
     20 C20         5.7850    4.6770   -1.8680 c3        1 B93     -0.075400
     21 C21         5.0900    3.3690   -1.5540 c3        1 B93     -0.075400
     22 C22         2.3990    2.3140    1.4470 c3        1 B93      0.079200
     23 N23         1.1270    3.0060    1.1850 n         1 B93     -0.269400
     24 N24         0.3780    2.6680    0.0490 n         1 B93     -0.220400
     25 C25        -1.0450    2.6210    0.4700 c         1 B93      0.760500
     26 O26        -2.0080    2.4710   -0.2890 o         1 B93     -0.575500
     27 N27        -1.1090    2.9390    1.8560 n         1 B93     -0.498400
     28 C28        -2.2990    2.9350    2.6530 c3        1 B93      0.090000
     29 C29        -2.7060    1.5670    3.2530 c3        1 B93      0.073000
     30 N30        -2.9250    0.5280    2.2990 n         1 B93     -0.568900
     31 C31        -4.1890    0.1310    1.8910 c         1 B93      0.681700
     32 O32        -5.2140    0.5260    2.4860 o         1 B93     -0.631100
     33 C33        -4.2220   -0.8350    0.7560 ca        1 B93     -0.172600
     34 C34        -3.4590   -0.5480   -0.3990 ca        1 B93     -0.115000
     35 C35        -3.3520   -1.4500   -1.4420 ca        1 B93     -0.126000
     36 C36        -4.0430   -2.6630   -1.3120 ca        1 B93     -0.060200
     37 N37        -4.1210   -3.7820   -2.1410 na        1 B93     -0.251300
     38 C38        -4.9470   -4.6970   -1.4680 cc        1 B93      0.400700
     39 N39        -5.4380   -4.2340   -0.3020 nd        1 B93     -0.595100
     40 C40        -4.8780   -2.9490   -0.1540 ca        1 B93      0.034400
     41 C41        -4.9600   -2.0060    0.8800 ca        1 B93     -0.034000
     42 C42         0.2190    3.0690    2.3420 c         1 B93      0.759500
     43 O43         0.5560    3.3230    3.5070 o         1 B93     -0.604500
     44 H1         -0.9130   -3.9170    1.4010 hc        1 B93      0.066700
     45 H1A         0.5010   -3.7330    2.5330 hc        1 B93      0.066700
     46 H1B        -0.5560   -2.2980    2.1470 hc        1 B93      0.066700
     47 H4         -1.0930   -2.1710   -0.3220 h1        1 B93      0.073700
     48 H5          1.1450   -3.3980   -2.1100 hc        1 B93      0.055700
     49 H5A        -0.2700   -4.2770   -1.3910 hc        1 B93      0.055700
     50 HN9         0.5830   -0.8300   -1.9940 hn        1 B93      0.367500
     51 H12         0.3390    1.6640   -1.7600 h1        1 B93      0.126700
     52 H13         2.6990    0.9810   -1.7640 ha        1 B93      0.156000
     53 H15         4.8590    1.3430    1.2500 hc        1 B93      0.054700
     54 H15A        4.8810    0.9190   -0.5090 hc        1 B93      0.054700
     55 H16         4.7130    3.8310    0.5230 hc        1 B93      0.055700
     56 H17         6.7630    2.7520    1.4230 hc        1 B93      0.042700
     57 H17A        7.1850    2.1220   -0.2200 hc        1 B93      0.042700
     58 H18         6.9550    5.0870    0.6440 hc        1 B93      0.037700
     59 H18A        8.4730    4.1780    0.2690 hc        1 B93      0.037700
     60 H19         7.7140    5.6370   -1.6370 hc        1 B93      0.034700
     61 H19A        7.7880    3.8850   -2.0820 hc        1 B93      0.034700
     62 H20         5.2660    5.5140   -1.3310 hc        1 B93      0.037700
     63 H20A        5.7130    4.8850   -2.9670 hc        1 B93      0.037700
     64 H21         5.5410    2.5470   -2.1710 hc        1 B93      0.042700
     65 H21A        4.0040    3.4380   -1.8260 hc        1 B93      0.042700
     66 H22         2.2590    1.4540    2.1670 h1        1 B93      0.078700
     67 H22A        3.0490    3.0890    1.9440 h1        1 B93      0.078700
     68 H28        -2.1320    3.6450    3.5130 h1        1 B93      0.073700
     69 H28A       -3.1360    3.3190    2.0030 h1        1 B93      0.073700
     70 H29        -1.8970    1.2310    3.9640 h1        1 B93      0.066200
     71 H29A       -3.6540    1.7410    3.8390 h1        1 B93      0.066200
     72 HN30       -2.1390    0.2330    1.7590 hn        1 B93      0.338500
     73 H34        -2.9360    0.4200   -0.4760 ha        1 B93      0.152000
     74 H35        -2.7220   -1.2530   -2.3290 ha        1 B93      0.193000
     75 H38        -5.1710   -5.6810   -1.8940 h5        1 B93      0.056800
     76 H41        -5.5790   -2.1930    1.7700 ha        1 B93      0.149000
     77 HN37       -3.4850   -3.9650   -2.8930 hn        1 B93      0.365700
@<TRIPOS>BOND
     1    1    2 1   
     2    1   44 1   
     3    1   45 1   
     4    1   46 1   
     5    2    3 2   
     6    2    4 1   
     7    4    5 1   
     8    4    9 1   
     9    4   47 1   
    10    5    6 1   
    11    5   48 1   
    12    5   49 1   
    13    6    7 1   
    14    6    8 1   
    15    9   10 1   
    16    9   50 1   
    17   10   11 2   
    18   10   12 1   
    19   12   13 1   
    20   12   24 1   
    21   12   51 1   
    22   13   14 2   
    23   13   52 1   
    24   14   15 1   
    25   14   22 1   
    26   15   16 1   
    27   15   53 1   
    28   15   54 1   
    29   16   17 1   
    30   16   21 1   
    31   16   55 1   
    32   17   18 1   
    33   17   56 1   
    34   17   57 1   
    35   18   19 1   
    36   18   58 1   
    37   18   59 1   
    38   19   20 1   
    39   19   60 1   
    40   19   61 1   
    41   20   21 1   
    42   20   62 1   
    43   20   63 1   
    44   21   64 1   
    45   21   65 1   
    46   22   23 1   
    47   22   66 1   
    48   22   67 1   
    49   23   24 1   
    50   23   42 1   
    51   24   25 1   
    52   25   26 2   
    53   25   27 1   
    54   27   28 1   
    55   27   42 1   
    56   28   29 1   
    57   28   68 1   
    58   28   69 1   
    59   29   30 1   
    60   29   70 1   
    61   29   71 1   
    62   30   31 1   
    63   30   72 1   
    64   31   32 2   
    65   31   33 1   
    66   33   34 ar  
    67   33   41 ar  
    68   34   35 ar  
    69   34   73 1   
    70   35   36 ar  
    71   35   74 1   
    72   36   37 1   
    73   36   40 ar  
    74   37   38 1   
    75   37   77 1   
    76   38   39 2   
    77   38   75 1   
    78   39   40 1   
    79   40   41 ar  
    80   41   76 1   
    81   42   43 2   
@<TRIPOS>SUBSTRUCTURE
     1 B93         1 TEMP              0 ****  ****    0 ROOT
