@<TRIPOS>MOLECULE
B93
   77    75     1     0     0
SMALL
bcc


@<TRIPOS>ATOM
      1 C1         -4.3640    5.4830   -2.5200 c3        1 B93     -0.282000
      2 C2         -2.8460    5.4720   -2.6120 c2        1 B93      0.234000
      3 O3         -2.2970    5.6380   -3.6980 o         1 B93     -0.364000
      4 C4         -2.0070    5.3260   -1.3480 c3        1 B93     -0.030000
      5 C5         -1.5520    6.7050   -0.8770 c3        1 B93     -0.240000
      6 C6         -2.5690    7.2710    0.0930 c2        1 B93      0.328000
      7 O7         -3.3240    8.2140   -0.2670 o         1 B93     -0.568000
      8 O8         -2.5960    6.8620    1.2890 o         1 B93     -0.568000
      9 N9         -0.8680    4.5180   -1.6230 n         1 B93     -0.314000
     10 C10        -0.7530    3.1880   -1.0170 c2        1 B93      0.284000
     11 O11        -1.7690    2.5620   -0.7120 o         1 B93     -0.400000
     12 C12         0.6460    2.6370   -0.6170 c3        1 B93     -0.053000
     13 C13         1.4690    2.3120   -1.8460 c2        1 B93     -0.164000
     14 C14         1.4830    0.7250   -2.2840 c1        1 B93     -0.086000
     15 C15         1.3640    0.3100   -3.8510 c2        1 B93     -0.123000
     16 C16         2.7150   -0.2780   -4.3350 c3        1 B93     -0.100000
     17 C17         2.4610   -1.6390   -4.9740 c3        1 B93     -0.154000
     18 C18         3.7020   -2.2090   -5.6380 c3        1 B93     -0.154000
     19 C19         4.3500   -1.2290   -6.5980 c3        1 B93     -0.155000
     20 C20         4.6040    0.1180   -5.9640 c3        1 B93     -0.154000
     21 C21         3.3540    0.6950   -5.2900 c3        1 B93     -0.154000
     22 C22         1.0400   -0.2450   -1.2130 c3        1 B93     -0.034000
     23 N23         0.1230    0.4040   -0.2280 n         1 B93     -0.176000
     24 N24         0.5170    1.4660    0.2840 n         1 B93     -0.102000
     25 C25         0.2960    1.3810    1.7470 c2        1 B93      0.355000
     26 O26         0.6980    2.1700    2.5760 o         1 B93     -0.283000
     27 N27        -0.4000    0.2530    1.9950 n         1 B93     -0.305000
     28 C28        -0.9330   -0.1590    3.2850 c3        1 B93     -0.024000
     29 C29         0.0660   -1.0680    3.9770 c3        1 B93     -0.037000
     30 N30        -0.6290   -1.9780    4.8320 n         1 B93     -0.369000
     31 C31        -0.1850   -3.3410    4.9450 c2        1 B93      0.343000
     32 O32         0.8270   -3.7010    4.3680 o         1 B93     -0.380000
     33 C33        -1.0190   -4.3600    5.7500 c2        1 B93     -0.140000
     34 C34        -2.1590   -4.8310    5.0920 c2        1 B93     -0.081000
     35 C35        -2.7850   -5.9870    5.5310 c1        1 B93     -0.149000
     36 C36        -2.2710   -6.6910    6.6450 c1        1 B93     -0.013000
     37 N37        -2.6790   -7.8450    7.2760 n1        1 B93     -0.251000
     38 C38        -1.8150   -8.0930    8.3060 c1        1 B93     -0.047000
     39 N39        -0.8700   -7.0950    8.3180 n2        1 B93     -0.130000
     40 C40        -1.1540   -6.2300    7.2890 c1        1 B93     -0.094000
     41 C41        -0.5150   -5.0450    6.8380 c1        1 B93     -0.013000
     42 C42        -0.5440   -0.4010    0.8350 c2        1 B93      0.351000
     43 O43        -1.1690   -1.4420    0.6680 o         1 B93     -0.359000
     44 H1         -4.7000    6.3810   -2.7460 hc        1 B93      0.123667
     45 H1A        -4.7320    4.8300   -3.1470 hc        1 B93      0.123667
     46 H1B        -4.6410    5.2490   -1.6000 hc        1 B93      0.123667
     47 H4         -2.5400    4.9050   -0.6520 h1        1 B93      0.177000
     48 H5         -0.6760    6.6280   -0.4290 hc        1 B93      0.081500
     49 H5A        -1.4720    7.3060   -1.6530 hc        1 B93      0.081500
     50 HN9        -0.1840    4.8610   -2.0660 hn        1 B93      0.218000
     51 H12         1.0270    3.4160   -0.1320 h1        1 B93      0.156000
     52 H13         1.6430    3.0040   -2.5130 ha        1 B93      0.149000
     53 H15         0.6580   -0.3630   -3.9580 ha        1 B93      0.098000
     54 H15A        1.1380    1.1170   -4.3940 ha        1 B93      0.098000
     55 H16         3.3060   -0.3970   -3.5590 hc        1 B93      0.092000
     56 H17         2.1580   -2.2600   -4.2860 hc        1 B93      0.082250
     57 H17A        1.7500   -1.5450   -5.6550 hc        1 B93      0.082250
     58 H18         3.4530   -3.0220   -6.1320 hc        1 B93      0.077250
     59 H18A        4.3460   -2.4460   -4.9490 hc        1 B93      0.077250
     60 H19         3.7610   -1.1080   -7.3760 hc        1 B93      0.075000
     61 H19A        5.2170   -1.6060   -6.9050 hc        1 B93      0.075000
     62 H20         5.3180    0.0230   -5.2890 hc        1 B93      0.077250
     63 H20A        4.9030    0.7370   -6.6530 hc        1 B93      0.077250
     64 H21         3.6070    1.5010   -4.7980 hc        1 B93      0.082250
     65 H21A        2.6870    0.9420   -5.9990 hc        1 B93      0.082250
     66 H22         0.5840   -1.0300   -1.6090 h1        1 B93      0.117500
     67 H22A        1.8550   -0.6080   -0.7440 h1        1 B93      0.117500
     68 H28        -1.0940    0.6370    3.8420 h1        1 B93      0.121500
     69 H28A       -1.7690   -0.6380    3.1530 h1        1 B93      0.121500
     70 H29         0.5660   -1.5690    3.3100 h1        1 B93      0.104000
     71 H29A        0.6840   -0.5280    4.5090 h1        1 B93      0.104000
     72 HN30       -1.3680   -1.6880    5.3170 hn        1 B93      0.244000
     73 H34        -2.5660   -4.2960    4.3660 ha        1 B93      0.165000
     74 H35        -3.5740   -6.3120    5.0740 ha        1 B93      0.138000
     75 H38        -1.8300   -8.8900    8.9020 DU        1 B93      0.223500
     76 H41         0.2550   -4.7100    7.3000 ha        1 B93      0.169000
     77 HN37       -3.4120   -8.3630    7.0430 DU        1 B93      0.223500
@<TRIPOS>BOND
     1    1    2 1   
     2    1   44 1   
     3    1   45 1   
     4    1   46 1   
     5    2    3 1   
     6    2    4 1   
     7    4    5 1   
     8    4    9 1   
     9    4   47 1   
    10    5    6 1   
    11    5   48 1   
    12    5   49 1   
    13    6    7 1   
    14    6    8 1   
    15    9   10 1   
    16    9   50 1   
    17   10   11 1   
    18   10   12 1   
    19   12   13 1   
    20   12   24 1   
    21   12   51 1   
    22   13   14 1   
    23   13   52 1   
    24   14   22 1   
    25   15   16 1   
    26   15   53 1   
    27   15   54 1   
    28   16   17 1   
    29   16   21 1   
    30   16   55 1   
    31   17   18 1   
    32   17   56 1   
    33   17   57 1   
    34   18   19 1   
    35   18   58 1   
    36   18   59 1   
    37   19   20 1   
    38   19   60 1   
    39   19   61 1   
    40   20   21 1   
    41   20   62 1   
    42   20   63 1   
    43   21   64 1   
    44   21   65 1   
    45   22   23 1   
    46   22   66 1   
    47   22   67 1   
    48   23   24 1   
    49   23   42 1   
    50   24   25 1   
    51   25   26 1   
    52   25   27 1   
    53   27   28 1   
    54   27   42 1   
    55   28   29 1   
    56   28   68 1   
    57   28   69 1   
    58   29   30 1   
    59   29   70 1   
    60   29   71 1   
    61   30   31 1   
    62   30   72 1   
    63   31   32 1   
    64   31   33 1   
    65   33   34 1   
    66   33   41 1   
    67   34   35 1   
    68   34   73 1   
    69   35   74 1   
    70   36   40 1   
    71   37   38 1   
    72   38   39 1   
    73   39   40 1   
    74   41   76 1   
    75   42   43 1   
@<TRIPOS>SUBSTRUCTURE
     1 B93         1 TEMP              0 ****  ****    0 ROOT
