@<TRIPOS>MOLECULE
B93
   79    83     1     0     0
SMALL
bcc


@<TRIPOS>ATOM
      1 C1          0.7220   -1.1830    2.4260 c3        1 B93     -0.202100
      2 C2          2.1740   -0.8550    2.4210 c         1 B93      0.562100
      3 O3          2.6230    0.2910    2.4110 o         1 B93     -0.498100
      4 C4          3.1090   -2.0780    2.4140 c3        1 B93      0.002700
      5 C5          3.3080   -2.5200    3.8820 c3        1 B93     -0.183400
      6 C6          3.6920   -3.9630    3.9440 c         1 B93      0.665100
      7 O7          4.9240   -4.3580    4.3760 oh        1 B93     -0.625100
      8 O8          2.9880   -4.9350    3.6390 o         1 B93     -0.557000
      9 N9          4.3480   -1.8000    1.7240 ns        1 B93     -0.536900
     10 C10         5.1850   -2.7920    1.2990 c         1 B93      0.662100
     11 O11         4.9070   -4.0020    1.4870 o         1 B93     -0.697100
     12 C12         6.5110   -2.3810    0.6090 c3        1 B93      0.005900
     13 C13         6.2270   -2.2410   -0.8520 c2        1 B93     -0.212200
     14 C14         6.7520   -3.0600   -1.7720 c2        1 B93     -0.065400
     15 C15         6.4850   -2.9240   -3.2300 c3        1 B93     -0.051200
     16 C16         7.5690   -2.1280   -3.9500 c3        1 B93     -0.060700
     17 C17         7.4610   -2.3510   -5.4530 c3        1 B93     -0.074400
     18 C18         8.5170   -1.5580   -6.1960 c3        1 B93     -0.076900
     19 C19         8.4420   -0.0830   -5.8620 c3        1 B93     -0.079400
     20 C20         8.5240    0.1480   -4.3670 c3        1 B93     -0.076900
     21 C21         7.4620   -0.6430   -3.6320 c3        1 B93     -0.074400
     22 C22         7.6740   -4.1780   -1.3930 c3        1 B93      0.085200
     23 N23         7.9940   -4.2920    0.0320 n         1 B93     -0.284400
     24 N24         7.6470   -3.2810    0.9370 n         1 B93     -0.173400
     25 C25         7.4140   -3.9650    2.2420 c         1 B93      0.774500
     26 O26         7.2290   -3.4010    3.3270 o         1 B93     -0.600500
     27 N27         7.5100   -5.3650    2.0350 n         1 B93     -0.529400
     28 C28         7.3130   -6.3650    3.0330 c3        1 B93      0.111000
     29 C29         6.2180   -7.3950    2.6890 c3        1 B93      0.080800
     30 N30         4.8590   -6.8090    2.5510 ny        1 B93     -0.674800
     31 C31         3.8590   -7.8900    2.1840 c         1 B93      0.587700
     32 O32         3.6120   -7.9790    0.9890 o         1 B93     -0.432100
     33 C33         3.3540   -8.7100    3.2860 ca        1 B93     -0.228600
     34 C34         2.9380   -8.1210    4.5020 ca        1 B93     -0.084000
     35 C35         2.4290   -8.8870    5.5370 ca        1 B93     -0.127000
     36 C36         2.3400  -10.2730    5.3430 ca        1 B93     -0.027200
     37 N37         1.8960  -11.3200    6.1440 na        1 B93     -0.275300
     38 C38         2.0430  -12.5000    5.3780 cc        1 B93      0.447700
     39 N39         2.5490  -12.2810    4.1570 nd        1 B93     -0.538100
     40 C40         2.7540  -10.8860    4.0830 ca        1 B93      0.050400
     41 C41         3.2460  -10.0870    3.0530 ca        1 B93      0.016000
     42 C42         7.7850   -5.5930    0.6500 c         1 B93      0.758500
     43 O43         7.8940   -6.7030    0.1170 o         1 B93     -0.575500
     44 H1          0.5090   -2.0640    3.0790 hc        1 B93      0.082700
     45 H1A         0.4010   -1.4270    1.3820 hc        1 B93      0.082700
     46 H1B         0.1250   -0.3070    2.7840 hc        1 B93      0.082700
     47 H4          2.5850   -2.9250    1.8690 h1        1 B93      0.106700
     48 H5          4.0690   -1.8760    4.3960 hc        1 B93      0.101700
     49 H5A         2.3300   -2.4030    4.4260 hc        1 B93      0.101700
     50 HN9         5.5000   -3.5980    4.5660 ho        1 B93      0.476000
     51 H12         6.8630   -1.3830    1.0220 h1        1 B93      0.127700
     52 H13         5.5660   -1.4010   -1.1170 ha        1 B93      0.160000
     53 H15         6.4190   -3.9500   -3.6870 hc        1 B93      0.063200
     54 H15A        5.4920   -2.4240   -3.3890 hc        1 B93      0.063200
     55 H16         8.5780   -2.4940   -3.6090 hc        1 B93      0.052700
     56 H17         7.5830   -3.4420   -5.6810 hc        1 B93      0.040450
     57 H17A        6.4410   -2.0430   -5.8020 hc        1 B93      0.040450
     58 H18         9.5340   -1.9500   -5.9310 hc        1 B93      0.045950
     59 H18A        8.3780   -1.7010   -7.3000 hc        1 B93      0.045950
     60 H19         9.2800    0.4600   -6.3720 hc        1 B93      0.046700
     61 H19A        7.4790    0.3410   -6.2530 hc        1 B93      0.046700
     62 H20         8.3940    1.2400   -4.1470 hc        1 B93      0.045950
     63 H20A        9.5390   -0.1530   -3.9960 hc        1 B93      0.045950
     64 H21         6.4460   -0.2700   -3.9290 hc        1 B93      0.040450
     65 H21A        7.5680   -0.4900   -2.5260 hc        1 B93      0.040450
     66 H22         8.6720   -4.0100   -1.9010 h1        1 B93      0.103200
     67 H22A        7.2540   -5.1600   -1.7610 h1        1 B93      0.103200
     68 H28         8.2670   -6.9590    3.1620 h1        1 B93      0.101700
     69 H28A        7.0670   -5.8410    4.0050 h1        1 B93      0.101700
     70 H29         6.4760   -7.9100    1.7150 hx        1 B93      0.119200
     71 H29A        6.1910   -8.1610    3.5160 hx        1 B93      0.119200
     72 HN30        4.8560   -6.0890    1.8110 hn        1 B93      0.481300
     73 H34         2.9690   -7.0240    4.6250 ha        1 B93      0.158000
     74 H35         2.0950   -8.4200    6.4740 ha        1 B93      0.159000
     75 H38         1.7590  -13.4830    5.7800 h5        1 B93      0.092800
     76 H41         3.5360  -10.5290    2.0850 ha        1 B93      0.176000
     77 HN37        1.5300  -11.2470    7.0570 hn        1 B93      0.324700
     78 H92         4.5990   -0.8410    1.6120 hn        1 B93      0.351500
     79 H302        4.5730   -6.3470    3.4300 hn        1 B93      0.481300
@<TRIPOS>BOND
     1    1    2 1   
     2    1   44 1   
     3    1   45 1   
     4    1   46 1   
     5    2    3 2   
     6    2    4 1   
     7    4    5 1   
     8    4    9 1   
     9    4   47 1   
    10    5    6 1   
    11    5   48 1   
    12    5   49 1   
    13    6    7 1   
    14    6    8 2   
    15    7   50 1   
    16    9   10 1   
    17    9   78 1   
    18   10   11 2   
    19   10   12 1   
    20   12   13 1   
    21   12   24 1   
    22   12   51 1   
    23   13   14 2   
    24   13   52 1   
    25   14   15 1   
    26   14   22 1   
    27   15   16 1   
    28   15   53 1   
    29   15   54 1   
    30   16   17 1   
    31   16   21 1   
    32   16   55 1   
    33   17   18 1   
    34   17   56 1   
    35   17   57 1   
    36   18   19 1   
    37   18   58 1   
    38   18   59 1   
    39   19   20 1   
    40   19   60 1   
    41   19   61 1   
    42   20   21 1   
    43   20   62 1   
    44   20   63 1   
    45   21   64 1   
    46   21   65 1   
    47   22   23 1   
    48   22   66 1   
    49   22   67 1   
    50   23   24 1   
    51   23   42 1   
    52   24   25 1   
    53   25   26 2   
    54   25   27 1   
    55   27   28 1   
    56   27   42 1   
    57   28   29 1   
    58   28   68 1   
    59   28   69 1   
    60   29   30 1   
    61   29   70 1   
    62   29   71 1   
    63   30   31 1   
    64   30   72 1   
    65   30   79 1   
    66   31   32 2   
    67   31   33 1   
    68   33   34 ar  
    69   33   41 ar  
    70   34   35 ar  
    71   34   73 1   
    72   35   36 ar  
    73   35   74 1   
    74   36   37 1   
    75   36   40 ar  
    76   37   38 1   
    77   37   77 1   
    78   38   39 2   
    79   38   75 1   
    80   39   40 1   
    81   40   41 ar  
    82   41   76 1   
    83   42   43 2   
@<TRIPOS>SUBSTRUCTURE
     1 B93         1 TEMP              0 ****  ****    0 ROOT
