@<TRIPOS>MOLECULE
B93
   79    83     1     0     0
SMALL
bcc


@<TRIPOS>ATOM
      1 C1          0.6690   -1.1910    2.2840 c3        1 B93     -0.202100
      2 C2          2.1180   -0.8540    2.3040 c         1 B93      0.562100
      3 O3          2.5610    0.2950    2.2870 o         1 B93     -0.498100
      4 C4          3.0610   -2.0710    2.3330 c3        1 B93      0.002700
      5 C5          3.2320   -2.4910    3.8110 c3        1 B93     -0.183400
      6 C6          3.6240   -3.9310    3.9010 c         1 B93      0.665100
      7 O7          4.8480   -4.3120    4.3640 oh        1 B93     -0.625100
      8 O8          2.9320   -4.9110    3.5940 o         1 B93     -0.558000
      9 N9          4.3120   -1.7940    1.6650 n         1 B93     -0.536900
     10 C10         5.1640   -2.7860    1.2710 c         1 B93      0.662100
     11 O11         4.8890   -3.9950    1.4700 o         1 B93     -0.697100
     12 C12         6.5010   -2.3770    0.6030 c3        1 B93      0.005900
     13 C13         6.2470   -2.2600   -0.8660 c2        1 B93     -0.212200
     14 C14         6.7970   -3.0890   -1.7620 c2        1 B93     -0.065400
     15 C15         6.5600   -2.9770   -3.2270 c3        1 B93     -0.051200
     16 C16         7.6510   -2.1810   -3.9360 c3        1 B93     -0.060700
     17 C17         7.5780   -2.4280   -5.4380 c3        1 B93     -0.074400
     18 C18         8.6420   -1.6360   -6.1700 c3        1 B93     -0.076900
     19 C19         8.5460   -0.1570   -5.8600 c3        1 B93     -0.079400
     20 C20         8.5950    0.0970   -4.3670 c3        1 B93     -0.076900
     21 C21         7.5240   -0.6930   -3.6430 c3        1 B93     -0.074400
     22 C22         7.7190   -4.1930   -1.3480 c3        1 B93      0.085200
     23 N23         8.0090   -4.2850    0.0850 n         1 B93     -0.284400
     24 N24         7.6360   -3.2640    0.9680 n         1 B93     -0.173400
     25 C25         7.3790   -3.9310    2.2770 c         1 B93      0.774500
     26 O26         7.1670   -3.3520    3.3500 o         1 B93     -0.600500
     27 N27         7.4890   -5.3330    2.0930 n         1 B93     -0.529400
     28 C28         7.2770   -6.3200    3.1000 c3        1 B93      0.111000
     29 C29         6.1960   -7.3620    2.7480 c3        1 B93      0.080800
     30 N30         4.8360   -6.7880    2.5720 n4        1 B93     -0.674800
     31 C31         3.8530   -7.8800    2.1980 c         1 B93      0.587700
     32 O32         3.6330   -7.9880    0.9990 o         1 B93     -0.432100
     33 C33         3.3280   -8.6880    3.3000 ca        1 B93     -0.228600
     34 C34         2.8810   -8.0860    4.4980 ca        1 B93     -0.084000
     35 C35         2.3530   -8.8410    5.5310 ca        1 B93     -0.127000
     36 C36         2.2770  -10.2300    5.3540 ca        1 B93     -0.027200
     37 N37         1.8220  -11.2680    6.1590 na        1 B93     -0.275300
     38 C38         1.9930  -12.4580    5.4140 cc        1 B93      0.447700
     39 N39         2.5260  -12.2530    4.2020 nd        1 B93     -0.538100
     40 C40         2.7230  -10.8580    4.1140 ca        1 B93      0.050400
     41 C41         3.2330  -10.0690    3.0830 ca        1 B93      0.016000
     42 C42         7.7950   -5.5790    0.7170 c         1 B93      0.758500
     43 O43         7.9230   -6.6950    0.2020 o         1 B93     -0.575500
     44 H1          0.3700   -1.4510    1.2360 hc        1 B93      0.082700
     45 H1A         0.4480   -2.0640    2.9440 hc        1 B93      0.082700
     46 H1B         0.0590   -0.3140    2.6170 hc        1 B93      0.082700
     47 H4          2.5530   -2.9280    1.7890 h1        1 B93      0.106700
     48 H5          2.2430   -2.3720    4.3330 hc        1 B93      0.101700
     49 H5A         3.9790   -1.8350    4.3320 hc        1 B93      0.101700
     50 HN9         5.4150   -3.5460    4.5560 ho        1 B93      0.476000
     51 H12         6.8380   -1.3710    1.0080 h1        1 B93      0.127700
     52 H13         5.5850   -1.4300   -1.1570 ha        1 B93      0.160000
     53 H15         6.5120   -4.0090   -3.6710 hc        1 B93      0.063200
     54 H15A        5.5660   -2.4870   -3.4140 hc        1 B93      0.063200
     55 H16         8.6560   -2.5330   -3.5680 hc        1 B93      0.052700
     56 H17         6.5620   -2.1340   -5.8130 hc        1 B93      0.040450
     57 H17A        7.7140   -3.5210   -5.6470 hc        1 B93      0.040450
     58 H18         8.5280   -1.7960   -7.2740 hc        1 B93      0.045950
     59 H18A        9.6560   -2.0150   -5.8780 hc        1 B93      0.045950
     60 H19         7.5890    0.2520   -6.2780 hc        1 B93      0.046700
     61 H19A        9.3900    0.3860   -6.3600 hc        1 B93      0.046700
     62 H20         9.6040   -0.1890   -3.9710 hc        1 B93      0.045950
     63 H20A        8.4510    1.1900   -4.1670 hc        1 B93      0.045950
     64 H21         6.5120   -0.3340   -3.9670 hc        1 B93      0.040450
     65 H21A        7.6060   -0.5220   -2.5380 hc        1 B93      0.040450
     66 H22         8.7270   -4.0250   -1.8370 h1        1 B93      0.103200
     67 H22A        7.3150   -5.1850   -1.7110 h1        1 B93      0.103200
     68 H28         7.0060   -5.7840    4.0590 h1        1 B93      0.101700
     69 H28A        8.2320   -6.9050    3.2580 h1        1 B93      0.101700
     70 H29         6.1570   -8.1170    3.5840 hx        1 B93      0.119200
     71 H29A        6.4790   -7.8890    1.7860 hx        1 B93      0.119200
     72 HN30        4.8460   -6.0780    1.8230 hn        1 B93      0.481300
     73 H34         2.9020   -6.9870    4.6060 ha        1 B93      0.158000
     74 H35         1.9950   -8.3630    6.4550 ha        1 B93      0.159000
     75 H38         1.7070  -13.4380    5.8240 h5        1 B93      0.092800
     76 H41         3.5490  -10.5230    2.1290 ha        1 B93      0.176000
     77 HN37        1.4340  -11.1860    7.0630 hn        1 B93      0.324700
     78 H92         4.5590   -0.8350    1.5440 hn        1 B93      0.351500
     79 H302        4.5290   -6.3160    3.4390 hn        1 B93      0.481300
@<TRIPOS>BOND
     1    1    2 1   
     2    1   44 1   
     3    1   45 1   
     4    1   46 1   
     5    2    3 2   
     6    2    4 1   
     7    4    5 1   
     8    4    9 1   
     9    4   47 1   
    10    5    6 1   
    11    5   48 1   
    12    5   49 1   
    13    6    7 1   
    14    6    8 2   
    15    7   50 1   
    16    9   10 1   
    17    9   78 1   
    18   10   11 2   
    19   10   12 1   
    20   12   13 1   
    21   12   24 1   
    22   12   51 1   
    23   13   14 2   
    24   13   52 1   
    25   14   15 1   
    26   14   22 1   
    27   15   16 1   
    28   15   53 1   
    29   15   54 1   
    30   16   17 1   
    31   16   21 1   
    32   16   55 1   
    33   17   18 1   
    34   17   56 1   
    35   17   57 1   
    36   18   19 1   
    37   18   58 1   
    38   18   59 1   
    39   19   20 1   
    40   19   60 1   
    41   19   61 1   
    42   20   21 1   
    43   20   62 1   
    44   20   63 1   
    45   21   64 1   
    46   21   65 1   
    47   22   23 1   
    48   22   66 1   
    49   22   67 1   
    50   23   24 1   
    51   23   42 1   
    52   24   25 1   
    53   25   26 2   
    54   25   27 1   
    55   27   28 1   
    56   27   42 1   
    57   28   29 1   
    58   28   68 1   
    59   28   69 1   
    60   29   30 1   
    61   29   70 1   
    62   29   71 1   
    63   30   31 1   
    64   30   72 1   
    65   30   79 1   
    66   31   32 2   
    67   31   33 1   
    68   33   34 ar  
    69   33   41 ar  
    70   34   35 ar  
    71   34   73 1   
    72   35   36 ar  
    73   35   74 1   
    74   36   37 1   
    75   36   40 ar  
    76   37   38 1   
    77   37   77 1   
    78   38   39 2   
    79   38   75 1   
    80   39   40 1   
    81   40   41 ar  
    82   41   76 1   
    83   42   43 2   
@<TRIPOS>SUBSTRUCTURE
     1 B93         1 TEMP              0 ****  ****    0 ROOT
