@<TRIPOS>MOLECULE
B93
   79    83     1     0     0
SMALL
bcc


@<TRIPOS>ATOM
      1 C1          0.7500   -1.1450    2.4250 c3        1 B93     -0.202100
      2 C2          2.2040   -0.8300    2.4200 c         1 B93      0.562100
      3 O3          2.6640    0.3120    2.4110 o         1 B93     -0.498100
      4 C4          3.1280   -2.0620    2.4120 c3        1 B93      0.002700
      5 C5          3.3230   -2.5060    3.8800 c3        1 B93     -0.183400
      6 C6          3.6930   -3.9530    3.9400 c         1 B93      0.665100
      7 O7          4.9210   -4.3600    4.3720 oh        1 B93     -0.625100
      8 O8          2.9800   -4.9180    3.6330 o         1 B93     -0.557000
      9 N9          4.3700   -1.7940    1.7230 n         1 B93     -0.536900
     10 C10         5.1970   -2.7930    1.2960 c         1 B93      0.662100
     11 O11         4.9070   -4.0010    1.4830 o         1 B93     -0.697100
     12 C12         6.5270   -2.3940    0.6070 c3        1 B93      0.005900
     13 C13         6.2440   -2.2500   -0.8540 c2        1 B93     -0.212200
     14 C14         6.7620   -3.0740   -1.7750 c2        1 B93     -0.065400
     15 C15         6.4970   -2.9340   -3.2330 c3        1 B93     -0.051200
     16 C16         7.5870   -2.1460   -3.9510 c3        1 B93     -0.060700
     17 C17         7.4780   -2.3670   -5.4550 c3        1 B93     -0.074400
     18 C18         8.5400   -1.5820   -6.1970 c3        1 B93     -0.076900
     19 C19         8.4760   -0.1060   -5.8620 c3        1 B93     -0.079400
     20 C20         8.5600    0.1220   -4.3670 c3        1 B93     -0.076900
     21 C21         7.4910   -0.6600   -3.6320 c3        1 B93     -0.074400
     22 C22         7.6730   -4.2000   -1.3970 c3        1 B93      0.085200
     23 N23         7.9920   -4.3180    0.0280 n         1 B93     -0.284400
     24 N24         7.6550   -3.3050    0.9340 n         1 B93     -0.173400
     25 C25         7.4150   -3.9880    2.2380 c         1 B93      0.774500
     26 O26         7.2340   -3.4230    3.3240 o         1 B93     -0.600500
     27 N27         7.4980   -5.3880    2.0300 n         1 B93     -0.529400
     28 C28         7.2910   -6.3880    3.0270 c3        1 B93      0.111000
     29 C29         6.1870   -7.4070    2.6820 c3        1 B93      0.080800
     30 N30         4.8330   -6.8090    2.5440 n4        1 B93     -0.674800
     31 C31         3.8240   -7.8800    2.1760 c         1 B93      0.587700
     32 O32         3.5770   -7.9650    0.9800 o         1 B93     -0.432100
     33 C33         3.3100   -8.6960    3.2760 ca        1 B93     -0.228600
     34 C34         2.8990   -8.1050    4.4930 ca        1 B93     -0.084000
     35 C35         2.3830   -8.8670    5.5260 ca        1 B93     -0.127000
     36 C36         2.2810  -10.2520    5.3310 ca        1 B93     -0.027200
     37 N37         1.8270  -11.2950    6.1300 na        1 B93     -0.275300
     38 C38         1.9620  -12.4760    5.3630 cc        1 B93      0.447700
     39 N39         2.4710  -12.2610    4.1430 nd        1 B93     -0.538100
     40 C40         2.6890  -10.8680    4.0710 ca        1 B93      0.050400
     41 C41         3.1890  -10.0720    3.0420 ca        1 B93      0.016000
     42 C42         7.7710   -5.6180    0.6440 c         1 B93      0.758500
     43 O43         7.8700   -6.7280    0.1110 o         1 B93     -0.575500
     44 H1          0.4260   -1.3850    1.3800 hc        1 B93      0.082700
     45 H1A         0.5280   -2.0240    3.0760 hc        1 B93      0.082700
     46 H1B         0.1610   -0.2630    2.7830 hc        1 B93      0.082700
     47 H4          2.5960   -2.9030    1.8660 h1        1 B93      0.106700
     48 H5          4.0900   -1.8700    4.3940 hc        1 B93      0.101700
     49 H5A         2.3460   -2.3810    4.4240 hc        1 B93      0.101700
     50 HN9         4.6290   -0.8370    1.6110 hn        1 B93      0.351500
     51 H12         6.8880   -1.4000    1.0200 h1        1 B93      0.127700
     52 H13         5.5910   -1.4050   -1.1190 ha        1 B93      0.160000
     53 H15         5.5080   -2.4250   -3.3910 hc        1 B93      0.063200
     54 H15A        6.4220   -3.9580   -3.6910 hc        1 B93      0.063200
     55 H16         8.5930   -2.5210   -3.6110 hc        1 B93      0.052700
     56 H17         6.4600   -2.0500   -5.8040 hc        1 B93      0.040450
     57 H17A        7.5910   -3.4580   -5.6840 hc        1 B93      0.040450
     58 H18         8.4010   -1.7220   -7.3010 hc        1 B93      0.045950
     59 H18A        9.5540   -1.9820   -5.9320 hc        1 B93      0.045950
     60 H19         7.5180    0.3260   -6.2530 hc        1 B93      0.046700
     61 H19A        9.3190    0.4300   -6.3710 hc        1 B93      0.046700
     62 H20         9.5730   -0.1870   -3.9960 hc        1 B93      0.045950
     63 H20A        8.4400    1.2150   -4.1460 hc        1 B93      0.045950
     64 H21         7.5990   -0.5090   -2.5270 hc        1 B93      0.040450
     65 H21A        6.4790   -0.2790   -3.9300 hc        1 B93      0.040450
     66 H22         7.2450   -5.1780   -1.7660 h1        1 B93      0.103200
     67 H22A        8.6740   -4.0410   -1.9050 h1        1 B93      0.103200
     68 H28         7.0500   -5.8630    3.9990 h1        1 B93      0.101700
     69 H28A        8.2400   -6.9900    3.1560 h1        1 B93      0.101700
     70 H29         6.4410   -7.9230    1.7070 hx        1 B93      0.119200
     71 H29A        6.1530   -8.1740    3.5080 hx        1 B93      0.119200
     72 HN30        4.5510   -6.3450    3.4240 hn        1 B93      0.481300
     73 H34         2.9410   -7.0080    4.6170 ha        1 B93      0.158000
     74 H35         2.0530   -8.3980    6.4640 ha        1 B93      0.159000
     75 H38         1.6690  -13.4570    5.7640 h5        1 B93      0.092800
     76 H41         3.4760  -10.5150    2.0740 ha        1 B93      0.176000
     77 HN37        1.4610  -11.2210    7.0430 hn        1 B93      0.324700
     78 H92         5.5040   -3.6060    4.5620 ho        1 B93      0.476000
     79 H302        4.8380   -6.0880    1.8050 hn        1 B93      0.481300
@<TRIPOS>BOND
     1    1    2 1   
     2    1   44 1   
     3    1   45 1   
     4    1   46 1   
     5    2    3 2   
     6    2    4 1   
     7    4    5 1   
     8    4    9 1   
     9    4   47 1   
    10    5    6 1   
    11    5   48 1   
    12    5   49 1   
    13    6    7 1   
    14    6    8 2   
    15    7   78 1   
    16    9   10 1   
    17    9   50 1   
    18   10   11 2   
    19   10   12 1   
    20   12   13 1   
    21   12   24 1   
    22   12   51 1   
    23   13   14 2   
    24   13   52 1   
    25   14   15 1   
    26   14   22 1   
    27   15   16 1   
    28   15   53 1   
    29   15   54 1   
    30   16   17 1   
    31   16   21 1   
    32   16   55 1   
    33   17   18 1   
    34   17   56 1   
    35   17   57 1   
    36   18   19 1   
    37   18   58 1   
    38   18   59 1   
    39   19   20 1   
    40   19   60 1   
    41   19   61 1   
    42   20   21 1   
    43   20   62 1   
    44   20   63 1   
    45   21   64 1   
    46   21   65 1   
    47   22   23 1   
    48   22   66 1   
    49   22   67 1   
    50   23   24 1   
    51   23   42 1   
    52   24   25 1   
    53   25   26 2   
    54   25   27 1   
    55   27   28 1   
    56   27   42 1   
    57   28   29 1   
    58   28   68 1   
    59   28   69 1   
    60   29   30 1   
    61   29   70 1   
    62   29   71 1   
    63   30   31 1   
    64   30   72 1   
    65   30   79 1   
    66   31   32 2   
    67   31   33 1   
    68   33   34 ar  
    69   33   41 ar  
    70   34   35 ar  
    71   34   73 1   
    72   35   36 ar  
    73   35   74 1   
    74   36   37 1   
    75   36   40 ar  
    76   37   38 1   
    77   37   77 1   
    78   38   39 2   
    79   38   75 1   
    80   39   40 1   
    81   40   41 ar  
    82   41   76 1   
    83   42   43 2   
@<TRIPOS>SUBSTRUCTURE
     1 B93         1 TEMP              0 ****  ****    0 ROOT
