@<TRIPOS>MOLECULE
B94
   71    74     1     0     0
SMALL
bcc


@<TRIPOS>ATOM
      1 C1          1.3380   -2.9380   -0.9450 c3        1 B94     -0.209100
      2 C2          2.1160   -1.7350   -0.5440 c         1 B94      0.561100
      3 O3          2.4340   -0.8290   -1.3180 o         1 B94     -0.523100
      4 C4          2.5270   -1.6930    0.9400 c3        1 B94     -0.012300
      5 C5          1.4720   -0.8540    1.6720 c3        1 B94     -0.188400
      6 C6          1.7460   -0.6010    3.1240 c         1 B94      0.633100
      7 O7          1.4110    0.4190    3.7290 o         1 B94     -0.495000
      8 O8          2.3490   -1.5280    3.9170 oh        1 B94     -0.576100
      9 N9          3.8720   -1.1910    1.1130 n         1 B94     -0.540900
     10 C10         4.8450   -1.9680    1.7040 c         1 B94      0.645100
     11 O11         4.5220   -2.9740    2.3730 o         1 B94     -0.629100
     12 C12         6.3250   -1.5260    1.5960 c3        1 B94     -0.005100
     13 C13         6.5390   -0.7940    0.3060 c2        1 B94     -0.194200
     14 C14         7.1090   -1.3900   -0.7430 c2        1 B94     -0.138200
     15 C15         7.6540   -2.7900   -0.6850 c3        1 B94      0.202700
     16 C16         9.0810   -2.7240   -1.2710 c3        1 B94     -0.092400
     17 N29         7.6740   -3.3910    0.6670 n3        1 B94     -0.529600
     18 N30         7.3260   -2.6110    1.7700 n         1 B94     -0.185200
     19 C31         6.9100   -3.5750    2.8390 c         1 B94      0.787500
     20 O32         6.8560   -3.2920    4.0380 o         1 B94     -0.563500
     21 N33         6.7550   -4.8560    2.2640 n         1 B94     -0.520800
     22 C34         6.2640   -6.0110    2.9480 c3        1 B94      0.123000
     23 C35         4.8970   -6.5080    2.4830 c3        1 B94     -0.105400
     24 C36         4.8990   -6.8510    1.0090 c3        1 B94     -0.165400
     25 C37         4.7380   -5.6340    0.1580 c         1 B94      0.760600
     26 O38         5.7270   -4.6840    0.0340 os        1 B94     -0.455900
     27 O39         3.7550   -5.3320   -0.5210 o         1 B94     -0.599500
     28 C40         6.9340   -4.7370    0.8050 c3        1 B94      0.689200
     29 O41         7.5920   -5.8230    0.2040 oh        1 B94     -0.586800
     30 C18         9.8260   -4.0560   -1.2600 c3        1 B94      0.083000
     31 N5         10.5910   -4.3140   -0.0700 n         1 B94     -0.564900
     32 C19        11.9630   -4.4860   -0.1110 c         1 B94      0.652100
     33 C20        12.7140   -4.5270    1.2120 c3        1 B94     -0.114100
     34 O9         12.5760   -4.6240   -1.1880 o         1 B94     -0.607100
     35 C21        12.0370   -5.3340    2.2590 ca        1 B94     -0.089300
     36 C22        12.2600   -6.7140    2.3360 ca        1 B94     -0.118000
     37 C23        11.6440   -7.4750    3.3270 ca        1 B94     -0.123000
     38 C24        10.8000   -6.8520    4.2510 ca        1 B94      0.014400
     39 C25        10.5730   -5.4740    4.1890 ca        1 B94     -0.123000
     40 C26        11.1910   -4.7220    3.1920 ca        1 B94     -0.118000
     41 CL1        10.0450   -7.7770    5.4620 cl        1 B94     -0.091400
     42 H1          0.8920   -2.8010   -1.9600 hc        1 B94      0.081367
     43 H1A         2.0270   -3.8240   -0.9700 hc        1 B94      0.081367
     44 H1B         0.5230   -3.1390   -0.2080 hc        1 B94      0.081367
     45 H4          2.4870   -2.7560    1.3360 h1        1 B94      0.099700
     46 H5          0.4860   -1.3880    1.5970 hc        1 B94      0.093700
     47 H5A         1.3610    0.1440    1.1650 hc        1 B94      0.093700
     48 HN9         2.6930   -2.2700    3.3950 ho        1 B94      0.445000
     49 H12         6.5110   -0.8410    2.4800 h1        1 B94      0.131700
     50 H13         6.2060    0.2540    0.2860 ha        1 B94      0.150000
     51 H14         7.2490   -0.8770   -1.7070 ha        1 B94      0.151000
     52 H15         7.0270   -3.4490   -1.3620 h1        1 B94      0.100700
     53 H16         9.6690   -1.9330   -0.7370 hc        1 B94      0.062200
     54 H16A        8.9700   -2.4010   -2.3400 hc        1 B94      0.062200
     55 H34         7.0190   -6.8400    2.8010 h1        1 B94      0.071700
     56 H34A        6.2120   -5.7580    4.0470 h1        1 B94      0.071700
     57 H35         4.6510   -7.4280    3.0750 hc        1 B94      0.073200
     58 H35A        4.1110   -5.7370    2.7020 hc        1 B94      0.073200
     59 H36         4.0470   -7.5460    0.7780 hc        1 B94      0.090700
     60 H36A        5.8580   -7.3650    0.7230 hc        1 B94      0.090700
     61 H22        10.5240   -4.0840   -2.1490 h1        1 B94      0.068700
     62 H23         9.0800   -4.8950   -1.3880 h1        1 B94      0.068700
     63 H24        10.1820   -4.0610    0.8000 hn        1 B94      0.319500
     64 H25        12.8470   -3.4660    1.5600 hc        1 B94      0.083700
     65 H26        13.7350   -4.9460    1.0010 hc        1 B94      0.083700
     66 H27        12.9280   -7.2020    1.6100 ha        1 B94      0.144500
     67 H28        11.8260   -8.5590    3.3820 ha        1 B94      0.154000
     68 H29         9.9120   -4.9820    4.9200 ha        1 B94      0.154000
     69 H30        11.0160   -3.6350    3.1470 ha        1 B94      0.144500
     70 H92         4.1320   -0.4400    0.5120 hn        1 B94      0.333500
     71 H52         8.4950   -5.8860    0.5490 ho        1 B94      0.454000
@<TRIPOS>BOND
     1    1    2 1   
     2    1   42 1   
     3    1   43 1   
     4    1   44 1   
     5    2    3 2   
     6    2    4 1   
     7    4    5 1   
     8    4    9 1   
     9    4   45 1   
    10    5    6 1   
    11    5   46 1   
    12    5   47 1   
    13    6    7 2   
    14    6    8 1   
    15    8   48 1   
    16    9   10 1   
    17    9   70 1   
    18   10   11 2   
    19   10   12 1   
    20   12   13 1   
    21   12   18 1   
    22   12   49 1   
    23   13   14 2   
    24   13   50 1   
    25   14   15 1   
    26   14   51 1   
    27   15   16 1   
    28   15   17 1   
    29   15   52 1   
    30   16   30 1   
    31   16   53 1   
    32   16   54 1   
    33   17   18 1   
    34   17   28 1   
    35   18   19 1   
    36   19   20 2   
    37   19   21 1   
    38   21   22 1   
    39   21   28 1   
    40   22   23 1   
    41   22   55 1   
    42   22   56 1   
    43   23   24 1   
    44   23   57 1   
    45   23   58 1   
    46   24   25 1   
    47   24   59 1   
    48   24   60 1   
    49   25   26 1   
    50   25   27 2   
    51   26   28 1   
    52   28   29 1   
    53   29   71 1   
    54   30   31 1   
    55   30   61 1   
    56   30   62 1   
    57   31   32 1   
    58   31   63 1   
    59   32   33 1   
    60   32   34 2   
    61   33   35 1   
    62   33   64 1   
    63   33   65 1   
    64   35   36 ar  
    65   35   40 ar  
    66   36   37 ar  
    67   36   66 1   
    68   37   38 ar  
    69   37   67 1   
    70   38   39 ar  
    71   38   41 1   
    72   39   40 ar  
    73   39   68 1   
    74   40   69 1   
@<TRIPOS>SUBSTRUCTURE
     1 B94         1 TEMP              0 ****  ****    0 ROOT
