@<TRIPOS>MOLECULE
B94
   71    74     1     0     0
SMALL
bcc


@<TRIPOS>ATOM
      1 C1          1.3570   -2.6830   -0.8680 c3        1 B94     -0.209100
      2 C2          2.1730   -1.5220   -0.4240 c         1 B94      0.561100
      3 O3          2.5140   -0.5940   -1.1610 o         1 B94     -0.523100
      4 C4          2.5930   -1.5550    1.0580 c3        1 B94     -0.012300
      5 C5          1.5690   -0.7150    1.8320 c3        1 B94     -0.188400
      6 C6          1.8590   -0.5320    3.2910 c         1 B94      0.633100
      7 O7          1.5590    0.4720    3.9410 o         1 B94     -0.495000
      8 O8          2.4380   -1.5100    4.0410 oh        1 B94     -0.576100
      9 N9          3.9540   -1.1010    1.2420 ns        1 B94     -0.540900
     10 C10         4.9060   -1.9320    1.7940 c         1 B94      0.645100
     11 O11         4.5570   -2.9540    2.4230 o         1 B94     -0.629100
     12 C12         6.3990   -1.5310    1.6940 c3        1 B94     -0.005100
     13 C13         6.6280   -0.7520    0.4340 c2        1 B94     -0.194200
     14 C14         7.1730   -1.3210   -0.6420 c2        1 B94     -0.138200
     15 C15         7.6750   -2.7380   -0.6470 c3        1 B94      0.202700
     16 C16         9.1000   -2.6910   -1.2400 c3        1 B94     -0.091400
     17 N29         7.6850   -3.3950    0.6790 n3        1 B94     -0.529600
     18 N30         7.3670   -2.6510    1.8150 n         1 B94     -0.185200
     19 C31         6.9280   -3.6470    2.8470 c         1 B94      0.787500
     20 O32         6.8890   -3.4120    4.0570 o         1 B94     -0.563500
     21 N33         6.7300   -4.8970    2.2200 n         1 B94     -0.520800
     22 C34         6.2080   -6.0640    2.8590 c3        1 B94      0.123000
     23 C35         4.8230   -6.4990    2.3830 c3        1 B94     -0.105400
     24 C36         4.8070   -6.7810    0.8960 c3        1 B94     -0.165400
     25 C37         4.6780   -5.5250    0.0980 c         1 B94      0.760600
     26 O38         5.6940   -4.6010    0.0060 os        1 B94     -0.455900
     27 O39         3.7010   -5.1650   -0.5610 o         1 B94     -0.599500
     28 C40         6.9050   -4.7230    0.7660 c3        1 B94      0.689200
     29 O41         7.5250   -5.8020    0.1150 oh        1 B94     -0.586800
     30 C18         9.8030   -4.0450   -1.2900 c3        1 B94      0.083000
     31 N5         10.5680   -4.3750   -0.1170 ns        1 B94     -0.564900
     32 C19        11.9320   -4.5880   -0.1750 c         1 B94      0.652100
     33 C20        12.6900   -4.7080    1.1390 c3        1 B94     -0.114100
     34 O9         12.5350   -4.6990   -1.2620 o         1 B94     -0.607100
     35 C21        11.9950   -5.5380    2.1560 ca        1 B94     -0.089300
     36 C22        12.1750   -6.9260    2.1730 ca        1 B94     -0.118000
     37 C23        11.5420   -7.7100    3.1350 ca        1 B94     -0.123000
     38 C24        10.7230   -7.1010    4.0910 ca        1 B94      0.014400
     39 C25        10.5380   -5.7140    4.0890 ca        1 B94     -0.123000
     40 C26        11.1740   -4.9400    3.1200 ca        1 B94     -0.118000
     41 Cl1         9.9470   -8.0530    5.2670 cl        1 B94     -0.091400
     42 H1          0.9080   -2.4900   -1.8740 hc        1 B94      0.081367
     43 H1A         0.5400   -2.8900   -0.1350 hc        1 B94      0.081367
     44 H1B         2.0180   -3.5880   -0.9360 hc        1 B94      0.081367
     45 H4          2.5230   -2.6310    1.4100 h1        1 B94      0.099700
     46 H5          1.4860    0.3060    1.3670 hc        1 B94      0.093700
     47 H5A         0.5670   -1.2160    1.7420 hc        1 B94      0.093700
     48 HN9         4.2340   -0.3340    0.6710 hn        1 B94      0.333500
     49 H12         6.6110   -0.8890    2.6050 h1        1 B94      0.131700
     50 H13         6.3270    0.3060    0.4600 ha        1 B94      0.150000
     51 H14         7.3230   -0.7720   -1.5850 ha        1 B94      0.151000
     52 H15         7.0240   -3.3490   -1.3470 h1        1 B94      0.100700
     53 H16         8.9930   -2.3200   -2.2940 hc        1 B94      0.062200
     54 H16A        9.7150   -1.9420   -0.6770 hc        1 B94      0.062200
     55 H34         6.9360   -6.9080    2.6720 h1        1 B94      0.071700
     56 H34A        6.1700   -5.8560    3.9680 h1        1 B94      0.071700
     57 H35         4.0630   -5.7150    2.6390 hc        1 B94      0.073200
     58 H35A        4.5520   -7.4360    2.9390 hc        1 B94      0.073200
     59 H36         5.7470   -7.3110    0.5830 hc        1 B94      0.090700
     60 H36A        3.9320   -7.4390    0.6430 hc        1 B94      0.090700
     61 H22         9.0310   -4.8550   -1.4470 h1        1 B94      0.068700
     62 H23        10.4950   -4.0560   -2.1840 h1        1 B94      0.068700
     63 H24         8.4280   -5.9070    0.4520 ho        1 B94      0.454000
     64 H25        12.8580   -3.6680    1.5300 hc        1 B94      0.083700
     65 H26        13.6970   -5.1490    0.9030 hc        1 B94      0.083700
     66 H27        12.8230   -7.4030    1.4220 ha        1 B94      0.144500
     67 H28        11.6910   -8.8000    3.1430 ha        1 B94      0.154000
     68 H29         9.8980   -5.2340    4.8450 ha        1 B94      0.154000
     69 H30        11.0320   -3.8480    3.1230 ha        1 B94      0.144500
     70 H92         2.7560   -2.2380    3.4860 ho        1 B94      0.445000
     71 H52        10.1710   -4.1470    0.7660 hn        1 B94      0.319500
@<TRIPOS>BOND
     1    1    2 1   
     2    1   42 1   
     3    1   43 1   
     4    1   44 1   
     5    2    3 2   
     6    2    4 1   
     7    4    5 1   
     8    4    9 1   
     9    4   45 1   
    10    5    6 1   
    11    5   46 1   
    12    5   47 1   
    13    6    7 2   
    14    6    8 1   
    15    8   70 1   
    16    9   10 1   
    17    9   48 1   
    18   10   11 2   
    19   10   12 1   
    20   12   13 1   
    21   12   18 1   
    22   12   49 1   
    23   13   14 2   
    24   13   50 1   
    25   14   15 1   
    26   14   51 1   
    27   15   16 1   
    28   15   17 1   
    29   15   52 1   
    30   16   30 1   
    31   16   53 1   
    32   16   54 1   
    33   17   18 1   
    34   17   28 1   
    35   18   19 1   
    36   19   20 2   
    37   19   21 1   
    38   21   22 1   
    39   21   28 1   
    40   22   23 1   
    41   22   55 1   
    42   22   56 1   
    43   23   24 1   
    44   23   57 1   
    45   23   58 1   
    46   24   25 1   
    47   24   59 1   
    48   24   60 1   
    49   25   26 1   
    50   25   27 2   
    51   26   28 1   
    52   28   29 1   
    53   29   63 1   
    54   30   31 1   
    55   30   61 1   
    56   30   62 1   
    57   31   32 1   
    58   31   71 1   
    59   32   33 1   
    60   32   34 2   
    61   33   35 1   
    62   33   64 1   
    63   33   65 1   
    64   35   36 ar  
    65   35   40 ar  
    66   36   37 ar  
    67   36   66 1   
    68   37   38 ar  
    69   37   67 1   
    70   38   39 ar  
    71   38   41 1   
    72   39   40 ar  
    73   39   68 1   
    74   40   69 1   
@<TRIPOS>SUBSTRUCTURE
     1 B94         1 TEMP              0 ****  ****    0 ROOT
