@<TRIPOS>MOLECULE
B94
   71    73     1     0     0
SMALL
bcc


@<TRIPOS>ATOM
      1 C1         -0.3470   -2.5600   -0.9950 c3        1 B94     -0.210100
      2 C2          0.7580   -1.5670   -0.8850 c         1 B94      0.570100
      3 O3          0.7020   -0.4260   -1.3490 o         1 B94     -0.524100
      4 C4          1.9890   -2.0780   -0.1250 c3        1 B94      0.000700
      5 C5          1.6690   -2.0400    1.3870 c3        1 B94     -0.210400
      6 C6          1.3240   -3.4130    1.8820 c         1 B94      0.629100
      7 O7          0.2010   -3.8110    2.1970 o         1 B94     -0.507000
      8 O8          2.3030   -4.3480    2.0100 oh        1 B94     -0.582100
      9 N9          3.1900   -1.3560   -0.4830 n         1 B94     -0.537900
     10 C10         4.4150   -1.7910   -0.0240 c         1 B94      0.648100
     11 O11         4.5510   -2.9060    0.5200 o         1 B94     -0.614100
     12 C12         5.6300   -0.8590   -0.2530 c3        1 B94      0.039900
     13 C13         6.3360   -1.3210   -1.4920 c2        1 B94     -0.173200
     14 C14         7.4890   -1.9910   -1.4180 c2        1 B94     -0.140200
     15 C15         8.0870   -2.3540   -0.0880 c3        1 B94      0.046900
     16 C16         9.6060   -2.5620   -0.2100 c3        1 B94     -0.089400
     17 N29         7.7740   -1.3130    0.9390 n         1 B94     -0.229400
     18 N30         6.5020   -0.7380    0.9260 n         1 B94     -0.266400
     19 C31         5.8500   -1.0030    2.2270 c         1 B94      0.753500
     20 O32         4.6870   -0.6760    2.5040 o         1 B94     -0.609500
     21 N33         6.8340   -1.5190    3.1180 n         1 B94     -0.444400
     22 C34         6.4850   -2.2720    4.3000 c3        1 B94      0.111000
     23 C35         5.6990   -3.5700    4.0910 c3        1 B94     -0.094400
     24 C36         6.5510   -4.8140    4.2100 c3        1 B94     -0.162400
     25 C37         7.5500   -4.9580    3.0900 c         1 B94      0.925600
     26 O38         8.4450   -5.8640    3.1100 o         1 B94     -0.897300
     27 O39         7.5450   -4.1530    2.0990 o         1 B94     -0.897300
     28 C40         8.0040   -1.7860    2.3360 c         1 B94      0.808500
     29 O41         9.1110   -2.1320    2.7730 o         1 B94     -0.627500
     30 C18         9.9880   -4.0400   -0.1340 c3        1 B94      0.127800
     31 N5         10.0280   -4.5840    1.2490 n4        1 B94     -0.685800
     32 C19        11.3890   -4.9270    1.7460 c         1 B94      0.563100
     33 C20        11.4680   -6.1130    2.6760 c3        1 B94     -0.113100
     34 O9         12.3360   -4.2380    1.3770 o         1 B94     -0.476100
     35 C21        11.4160   -7.3830    1.9010 ca        1 B94     -0.127300
     36 C22        12.5730   -7.8870    1.2960 ca        1 B94     -0.108000
     37 C23        12.5340   -9.0880    0.5930 ca        1 B94     -0.130000
     38 C24        11.3270   -9.7910    0.4970 ca        1 B94      0.029400
     39 C25        10.1680   -9.2990    1.1050 ca        1 B94     -0.130000
     40 C26        10.2140   -8.0950    1.8070 ca        1 B94     -0.108000
     41 CL1        11.2740  -11.2560   -0.3600 cl        1 B94     -0.083400
     42 H1         -0.0500   -3.3710   -1.7060 hc        1 B94      0.080700
     43 H1A        -1.2780   -2.0720   -1.3750 hc        1 B94      0.080700
     44 H1B        -0.5540   -3.0200    0.0060 hc        1 B94      0.080700
     45 H4          2.1600   -3.1590   -0.4260 h1        1 B94      0.093700
     46 H5          2.5520   -1.6580    1.9740 hc        1 B94      0.103200
     47 H5A         0.8070   -1.3510    1.5880 hc        1 B94      0.103200
     48 HN9         3.1620   -3.9840    1.7300 ho        1 B94      0.459000
     49 H12         5.2710    0.2070   -0.4090 h1        1 B94      0.106700
     50 H13         5.8440   -1.0630   -2.4400 ha        1 B94      0.152000
     51 H14         8.0310   -2.3350   -2.3100 ha        1 B94      0.142000
     52 H15         7.5970   -3.3410    0.2060 h1        1 B94      0.127700
     53 H16         9.9600   -2.1770   -1.2030 hc        1 B94      0.088200
     54 H16A       10.1610   -1.9790    0.5760 hc        1 B94      0.088200
     55 H34         7.4540   -2.4920    4.8340 h1        1 B94      0.073200
     56 H34A        5.8660   -1.5710    4.9320 h1        1 B94      0.073200
     57 H35         4.8950   -3.6100    4.8730 hc        1 B94      0.059200
     58 H35A        5.1930   -3.5670    3.0860 hc        1 B94      0.059200
     59 H36         7.1060   -4.8190    5.1840 hc        1 B94      0.060700
     60 H36A        5.8870   -5.7190    4.1970 hc        1 B94      0.060700
     61 H22        11.0080   -4.1680   -0.5990 hx        1 B94      0.088200
     62 H23         9.2460   -4.6570   -0.7170 hx        1 B94      0.088200
     63 H24         9.3940   -5.4150    1.3620 hn        1 B94      0.514800
     64 H25        12.4380   -6.0340    3.2400 hc        1 B94      0.124200
     65 H26        10.6160   -6.0740    3.4210 hc        1 B94      0.124200
     66 H27        13.5230   -7.3350    1.3790 ha        1 B94      0.169000
     67 H28        13.4470   -9.4820    0.1210 ha        1 B94      0.154500
     68 H29         9.2220   -9.8580    1.0380 ha        1 B94      0.154500
     69 H30         9.3020   -7.7070    2.3020 ha        1 B94      0.169000
     70 H92         3.0710   -0.4010   -0.7390 hn        1 B94      0.331500
     71 H52         9.5920   -3.8880    1.9070 hn        1 B94      0.514800
@<TRIPOS>BOND
     1    1    2 1   
     2    1   42 1   
     3    1   43 1   
     4    1   44 1   
     5    2    3 2   
     6    2    4 1   
     7    4    5 1   
     8    4    9 1   
     9    4   45 1   
    10    5    6 1   
    11    5   46 1   
    12    5   47 1   
    13    6    7 2   
    14    6    8 1   
    15    8   48 1   
    16    9   10 1   
    17    9   70 1   
    18   10   11 2   
    19   10   12 1   
    20   12   13 1   
    21   12   18 1   
    22   12   49 1   
    23   13   14 2   
    24   13   50 1   
    25   14   15 1   
    26   14   51 1   
    27   15   16 1   
    28   15   17 1   
    29   15   52 1   
    30   16   30 1   
    31   16   53 1   
    32   16   54 1   
    33   17   18 1   
    34   17   28 1   
    35   18   19 1   
    36   19   20 2   
    37   19   21 1   
    38   21   22 1   
    39   21   28 1   
    40   22   23 1   
    41   22   55 1   
    42   22   56 1   
    43   23   24 1   
    44   23   57 1   
    45   23   58 1   
    46   24   25 1   
    47   24   59 1   
    48   24   60 1   
    49   25   26 1   
    50   25   27 1   
    51   28   29 2   
    52   30   31 1   
    53   30   61 1   
    54   30   62 1   
    55   31   32 1   
    56   31   63 1   
    57   31   71 1   
    58   32   33 1   
    59   32   34 2   
    60   33   35 1   
    61   33   64 1   
    62   33   65 1   
    63   35   36 ar  
    64   35   40 ar  
    65   36   37 ar  
    66   36   66 1   
    67   37   38 ar  
    68   37   67 1   
    69   38   39 ar  
    70   38   41 1   
    71   39   40 ar  
    72   39   68 1   
    73   40   69 1   
@<TRIPOS>SUBSTRUCTURE
     1 B94         1 TEMP              0 ****  ****    0 ROOT
