@<TRIPOS>MOLECULE
B94
   69    68     1     0     0
SMALL
bcc


@<TRIPOS>ATOM
      1 C1         -5.4190    4.6660    1.3890 c3        1 B94     -0.286000
      2 C2         -4.0890    4.0000    1.0980 c2        1 B94      0.239000
      3 O3         -3.5010    4.2540    0.0790 o         1 B94     -0.356000
      4 C4         -3.5520    2.9380    2.0340 c3        1 B94     -0.006000
      5 C5         -3.0700    3.5940    3.3220 c3        1 B94     -0.238000
      6 C6         -3.9670    3.1680    4.4740 c2        1 B94      0.330000
      7 O7         -3.5000    2.4350    5.4050 o         1 B94     -0.576000
      8 O8         -5.0840    3.6100    4.5600 o         1 B94     -0.576000
      9 N9         -2.4590    2.2600    1.4070 n         1 B94     -0.333000
     10 C10        -2.5370    0.8260    1.1710 c2        1 B94      0.327000
     11 O11        -3.4490    0.2160    1.5770 o         1 B94     -0.381000
     12 C12        -1.2830    0.0410    0.4480 c3        1 B94     -0.050000
     13 C13        -1.0440    0.5570   -0.8280 c2        1 B94     -0.152000
     14 C14         0.0090   -0.2220   -1.6450 c1        1 B94     -0.210000
     15 C15         0.7220   -1.3890   -0.8690 c2        1 B94     -0.016000
     16 C16         1.6780   -0.9760    0.0980 c3        1 B94     -0.171000
     17 N29        -0.5830   -2.1130   -0.2690 n         1 B94     -0.150000
     18 N30        -1.5120   -1.3290    0.4100 n         1 B94     -0.143000
     19 C31        -2.5230   -2.1970    0.9260 c2        1 B94      0.317000
     20 O32        -3.5220   -1.8440    1.5950 o         1 B94     -0.274000
     21 N33        -2.1500   -3.5360    0.6200 n         1 B94     -0.311000
     22 C34        -2.7240   -4.7340    1.1970 c3        1 B94     -0.014000
     23 C35        -3.6930   -5.3680    0.1910 c3        1 B94     -0.168000
     24 C36        -4.1810   -6.7400    0.7290 c3        1 B94     -0.223000
     25 C37        -5.2110   -7.3060   -0.2130 c2        1 B94      0.332000
     26 O38        -4.8490   -7.9780   -1.2040 o         1 B94     -0.586500
     27 O39        -6.4680   -7.1150    0.0140 o         1 B94     -0.586500
     28 C40        -1.0100   -3.4900   -0.1790 c2        1 B94      0.331000
     29 O41        -0.4590   -4.4480   -0.6960 o         1 B94     -0.301000
     30 C18         3.1040   -0.9370   -0.5630 c3        1 B94     -0.032000
     31 N5          3.7470    0.3580   -0.2810 n         1 B94     -0.367000
     32 C19         4.9270    0.7580   -1.0290 c2        1 B94      0.303000
     33 C20         5.4330    2.2430   -0.9590 c3        1 B94     -0.154000
     34 O9          5.5830   -0.1130   -1.7040 o         1 B94     -0.376000
     35 C21         6.4040    2.5120   -2.1050 c2        1 B94     -0.075000
     36 C22         5.9270    2.6490   -3.4130 c2        1 B94     -0.125000
     37 C23         6.8230    2.9080   -4.4580 c1        1 B94     -0.116000
     38 C24         8.1870    3.0290   -4.1900 c1        1 B94     -0.061000
     39 C25         8.6540    2.8930   -2.8890 c1        1 B94     -0.125000
     40 C26         7.7600    2.6340   -1.8450 c1        1 B94     -0.112000
     41 CL1         9.3150    3.1640   -5.4960 cl        1 B94     -0.022000
     42 H1         -5.9580    4.7290    0.5320 hc        1 B94      0.115000
     43 H1A        -5.2630    5.5810    1.7500 hc        1 B94      0.115000
     44 H1B        -5.9170    4.1320    2.0500 hc        1 B94      0.115000
     45 H4         -4.2860    2.2720    2.2470 h1        1 B94      0.158000
     46 H5         -2.1390    3.3120    3.5060 hc        1 B94      0.085500
     47 H5A        -3.1050    4.5840    3.2210 hc        1 B94      0.085500
     48 HN9        -1.6520    2.7090    1.2730 hn        1 B94      0.234000
     49 H12        -0.5430    0.2590    1.0640 h1        1 B94      0.134000
     50 H13        -1.2200    1.4740   -1.0180 ha        1 B94      0.180000
     51 H14         0.4710    0.2190   -2.4460 ha        1 B94      0.146000
     52 H15         1.2470   -1.9670   -1.4470 h4        1 B94      0.137000
     53 H16         1.4490   -0.0960    0.4250 hc        1 B94      0.098000
     54 H16A        1.6800   -1.6320    0.8700 hc        1 B94      0.098000
     55 H34        -2.0200   -5.3580    1.4020 h1        1 B94      0.103000
     56 H34A       -3.2170   -4.5020    2.0340 h1        1 B94      0.103000
     57 H35        -4.4590   -4.7810    0.0620 hc        1 B94      0.100000
     58 H35A       -3.2300   -5.4970   -0.6690 hc        1 B94      0.100000
     59 H36        -4.5920   -6.6170    1.6400 hc        1 B94      0.064000
     60 H36A       -3.4070   -7.3690    0.7940 hc        1 B94      0.064000
     61 H22         3.0140   -1.0550   -1.5520 h1        1 B94      0.106500
     62 H23         3.6440   -1.6500   -0.2010 h1        1 B94      0.106500
     63 H24         3.3570    0.9460    0.3120 hn        1 B94      0.225000
     64 H25         4.6750    2.8450   -1.0300 hc        1 B94      0.118500
     65 H26         5.8980    2.3950   -0.0840 hc        1 B94      0.118500
     66 H27         4.9630    2.6490   -3.5840 ha        1 B94      0.144000
     67 H28         6.4750    3.0120   -5.4270 ha        1 B94      0.155000
     68 H29         9.6130    2.9790   -2.7020 ha        1 B94      0.144000
     69 H30         8.0880    2.5510   -0.9320 ha        1 B94      0.142000
@<TRIPOS>BOND
     1    1    2 1   
     2    1   42 1   
     3    1   43 1   
     4    1   44 1   
     5    2    3 1   
     6    2    4 1   
     7    4    5 1   
     8    4    9 1   
     9    4   45 1   
    10    5    6 1   
    11    5   46 1   
    12    5   47 1   
    13    6    7 1   
    14    6    8 1   
    15    9   10 1   
    16    9   48 1   
    17   10   11 1   
    18   10   12 1   
    19   12   13 1   
    20   12   18 1   
    21   12   49 1   
    22   13   14 1   
    23   13   50 1   
    24   14   51 1   
    25   15   16 1   
    26   15   17 1   
    27   15   52 1   
    28   16   30 1   
    29   16   53 1   
    30   16   54 1   
    31   17   18 1   
    32   17   28 1   
    33   18   19 1   
    34   19   20 1   
    35   19   21 1   
    36   21   22 1   
    37   21   28 1   
    38   22   23 1   
    39   22   55 1   
    40   22   56 1   
    41   23   24 1   
    42   23   57 1   
    43   23   58 1   
    44   24   25 1   
    45   24   59 1   
    46   24   60 1   
    47   25   26 1   
    48   25   27 1   
    49   28   29 1   
    50   30   31 1   
    51   30   61 1   
    52   30   62 1   
    53   31   32 1   
    54   31   63 1   
    55   32   33 1   
    56   32   34 1   
    57   33   35 1   
    58   33   64 1   
    59   33   65 1   
    60   35   36 1   
    61   35   40 1   
    62   36   37 1   
    63   36   66 1   
    64   37   67 1   
    65   38   39 1   
    66   38   41 1   
    67   39   68 1   
    68   40   69 1   
@<TRIPOS>SUBSTRUCTURE
     1 B94         1 TEMP              0 ****  ****    0 ROOT
