@<TRIPOS>MOLECULE
B94
   69    71     1     0     0
SMALL
bcc


@<TRIPOS>ATOM
      1 C1          8.1430   -0.2650   -0.7530 c3        1 B94     -0.211100
      2 C2          7.5380   -1.2790   -1.6700 c         1 B94      0.570100
      3 O3          7.7400   -1.2690   -2.8880 o         1 B94     -0.555100
      4 C4          6.6700   -2.3340   -0.9720 c3        1 B94      0.011700
      5 C5          6.8190   -3.6800   -1.6840 c3        1 B94     -0.212400
      6 C6          5.9810   -4.7870   -1.0220 c         1 B94      0.911600
      7 O7          6.5840   -5.8050   -0.5860 o         1 B94     -0.850300
      8 O8          4.7220   -4.6360   -0.9640 o         1 B94     -0.850300
      9 N9          5.2900   -1.8790   -0.9000 n         1 B94     -0.494900
     10 C10         4.8170   -1.3280    0.2720 c         1 B94      0.661100
     11 O11         5.5640   -0.8380    1.1450 o         1 B94     -0.627100
     12 C12         3.2770   -1.2700    0.4890 c3        1 B94      0.054900
     13 C13         2.6260   -2.5010   -0.0670 c2        1 B94     -0.177200
     14 C14         1.5240   -2.4390   -0.8180 c2        1 B94     -0.170200
     15 C15         0.8520   -1.1390   -1.1510 c3        1 B94      0.048900
     16 C16        -0.4090   -1.0150   -0.2770 c3        1 B94     -0.136400
     17 N29         1.8260   -0.0060   -1.0960 n         1 B94     -0.198400
     18 N30         2.7590   -0.0080   -0.0550 n         1 B94     -0.319400
     19 C31         2.4640    1.0780    0.8710 c         1 B94      0.742500
     20 O32         2.9930    1.2690    1.9740 o         1 B94     -0.589500
     21 N33         1.5630    1.9760    0.2040 n         1 B94     -0.476400
     22 C34         0.6970    2.8770    0.9280 c3        1 B94      0.092000
     23 C35        -0.7050    2.3370    1.1980 c3        1 B94     -0.102400
     24 C36        -1.5960    3.3700    1.8410 c3        1 B94     -0.182400
     25 C37        -3.0220    2.8290    1.9890 c         1 B94      0.911600
     26 O38        -3.9750    3.6480    2.1130 o         1 B94     -0.861800
     27 O39        -3.2110    1.5710    1.9750 o         1 B94     -0.861800
     28 C40         1.1290    1.3090   -0.9890 c         1 B94      0.735500
     29 O41         0.4140    1.7920   -1.8730 o         1 B94     -0.571500
     30 C18        -1.6290   -0.5900   -1.1070 c3        1 B94      0.083000
     31 N5         -2.7940   -0.2850   -0.3280 n         1 B94     -0.555900
     32 C19        -3.8490   -1.1540   -0.1900 c         1 B94      0.666100
     33 C20        -4.9590   -0.7440    0.7720 c3        1 B94     -0.121100
     34 O9         -3.9220   -2.2300   -0.8280 o         1 B94     -0.669100
     35 C21        -5.9580    0.1400    0.1140 ca        1 B94     -0.070300
     36 C22        -6.8820   -0.3930   -0.7930 ca        1 B94     -0.109000
     37 C23        -7.8490    0.4200   -1.3800 ca        1 B94     -0.139500
     38 C24        -7.8850    1.7780   -1.0540 ca        1 B94      0.008400
     39 C25        -6.9620    2.3270   -0.1620 ca        1 B94     -0.139500
     40 C26        -5.9970    1.5060    0.4230 ca        1 B94     -0.109000
     41 CL1        -9.0780    2.7780   -1.7660 cl        1 B94     -0.151400
     42 H1          8.9500   -0.7490   -0.1510 hc        1 B94      0.062367
     43 H1A         8.5770    0.5890   -1.3240 hc        1 B94      0.062367
     44 H1B         7.3570    0.1130   -0.0490 hc        1 B94      0.062367
     45 H4          7.0750   -2.4450    0.0820 h1        1 B94      0.071700
     46 H5          6.5050   -3.5840   -2.7540 hc        1 B94      0.047200
     47 H5A         7.8990   -3.9670   -1.6610 hc        1 B94      0.047200
     48 HN9         4.6550   -2.4780   -1.4040 hn        1 B94      0.349500
     49 H12         3.1410   -1.2570    1.6170 h1        1 B94      0.099700
     50 H13         3.1500   -3.4560    0.1440 ha        1 B94      0.211000
     51 H14         1.0420   -3.3360   -1.2330 ha        1 B94      0.149000
     52 H15         0.5480   -1.1470   -2.2420 h1        1 B94      0.096700
     53 H16        -0.6260   -2.0080    0.1990 hc        1 B94      0.060200
     54 H16A       -0.2440   -0.2860    0.5600 hc        1 B94      0.060200
     55 H34         1.2080    3.1270    1.9000 h1        1 B94      0.065700
     56 H34A        0.6180    3.8140    0.3050 h1        1 B94      0.065700
     57 H35        -1.1710    2.0120    0.2270 hc        1 B94      0.056200
     58 H35A       -0.6610    1.4360    1.8660 hc        1 B94      0.056200
     59 H36        -1.2140    3.6380    2.8580 hc        1 B94      0.034200
     60 H36A       -1.6260    4.3050    1.2270 hc        1 B94      0.034200
     61 H22        -1.3570    0.3350   -1.6960 h1        1 B94      0.063700
     62 H23        -1.8750   -1.4170   -1.8330 h1        1 B94      0.063700
     63 H24        -2.7430    0.5000    0.3000 hn        1 B94      0.367500
     64 H25        -5.4570   -1.6870    1.1200 hc        1 B94      0.092700
     65 H26        -4.5180   -0.2160    1.6680 hc        1 B94      0.092700
     66 H27        -6.8320   -1.4620   -1.0510 ha        1 B94      0.184000
     67 H28        -8.5690   -0.0040   -2.0920 ha        1 B94      0.138000
     68 H29        -6.9810    3.3990    0.0840 ha        1 B94      0.138000
     69 H30        -5.2480    1.9420    1.1270 ha        1 B94      0.184000
@<TRIPOS>BOND
     1    1    2 1   
     2    1   42 1   
     3    1   43 1   
     4    1   44 1   
     5    2    3 2   
     6    2    4 1   
     7    4    5 1   
     8    4    9 1   
     9    4   45 1   
    10    5    6 1   
    11    5   46 1   
    12    5   47 1   
    13    6    7 1   
    14    6    8 1   
    15    9   10 1   
    16    9   48 1   
    17   10   11 2   
    18   10   12 1   
    19   12   13 1   
    20   12   18 1   
    21   12   49 1   
    22   13   14 2   
    23   13   50 1   
    24   14   15 1   
    25   14   51 1   
    26   15   16 1   
    27   15   17 1   
    28   15   52 1   
    29   16   30 1   
    30   16   53 1   
    31   16   54 1   
    32   17   18 1   
    33   17   28 1   
    34   18   19 1   
    35   19   20 2   
    36   19   21 1   
    37   21   22 1   
    38   21   28 1   
    39   22   23 1   
    40   22   55 1   
    41   22   56 1   
    42   23   24 1   
    43   23   57 1   
    44   23   58 1   
    45   24   25 1   
    46   24   59 1   
    47   24   60 1   
    48   25   26 1   
    49   25   27 1   
    50   28   29 2   
    51   30   31 1   
    52   30   61 1   
    53   30   62 1   
    54   31   32 1   
    55   31   63 1   
    56   32   33 1   
    57   32   34 2   
    58   33   35 1   
    59   33   64 1   
    60   33   65 1   
    61   35   36 ar  
    62   35   40 ar  
    63   36   37 ar  
    64   36   66 1   
    65   37   38 ar  
    66   37   67 1   
    67   38   39 ar  
    68   38   41 1   
    69   39   40 ar  
    70   39   68 1   
    71   40   69 1   
@<TRIPOS>SUBSTRUCTURE
     1 B94         1 TEMP              0 ****  ****    0 ROOT
