@<TRIPOS>MOLECULE
B95
   40    38     1     0     0
SMALL
bcc


@<TRIPOS>ATOM
      1 OAA        -1.2260    2.6130   -0.1040 o         1 B95     -0.168000
      2 CAC         3.4600   -1.7660    3.1240 c2        1 B95     -0.159000
      3 CAD         2.5140   -1.4610    4.0360 c2        1 B95     -0.159000
      4 CAE        -1.0230   -1.4690   -6.6040 c1        1 B95     -0.130000
      5 CAF        -1.7610   -0.7190   -5.7710 c2        1 B95     -0.073000
      6 CAG         2.1270   -1.5480   -0.1050 c1        1 B95      0.311000
      7 CAH         2.7600    0.3330    2.7060 c1        1 B95      0.210000
      8 CAI         0.2300   -1.8450   -6.7180 c2        1 B95     -0.131000
      9 CAJ        -0.9780    0.0240   -4.8090 c2        1 B95     -0.119000
     10 CAL         3.1310    2.9700   -1.8690 c1        1 B95     -0.228500
     11 CAM         0.9220    2.2850    1.0240 c3        1 B95     -0.045000
     12 NAN         1.9230   -2.1350   -4.6740 n3        1 B95     -0.308000
     13 NAO         0.3440    1.4350   -1.3320 n4        1 B95     -0.128000
     14 NAP         0.9270   -0.5710   -3.2920 n2        1 B95     -0.322000
     15 OAQ         2.0690    1.4840    0.7960 os        1 B95     -0.199000
     16 CAR        -0.0920    2.1590   -0.0970 c2        1 B95      0.221000
     17 CAS         1.4960   -0.8540    0.8320 c2        1 B95     -0.519000
     18 CAT         1.7710   -1.6040   -3.3920 c2        1 B95      0.055000
     19 CAU         2.0990    0.2790    1.5250 c2        1 B95     -0.252000
     20 CAV         1.0720   -1.3450   -5.5560 c3        1 B95      0.022000
     21 CAW         0.2770   -0.4680   -4.5520 c2        1 B95     -0.092000
     22 HAC         1.4640   -1.7720    3.9280 ha        1 B95      0.142500
     23 HAD         3.2410   -2.3570    2.2210 ha        1 B95      0.142500
     24 HAG         4.5230   -1.5180    3.2750 ha        1 B95      0.142500
     25 HAH         2.7540   -0.9370    4.9760 ha        1 B95      0.142500
     26 HAI         1.7770   -0.6500   -6.1280 h1        1 B95      0.154000
     27 HAJ        -1.4710    0.7700   -4.1760 ha        1 B95      0.129000
     28 HAL         3.4890    2.6260   -0.9280 ha        1 B95      0.236000
     29 HALA        2.3500   -1.9960   -2.5350 h5        1 B95      0.210000
     30 HAM         0.4060    2.0510    1.9950 h1        1 B95      0.173000
     31 HAMA        1.2970    3.3510    1.0260 h1        1 B95      0.173000
     32 HNAO        0.7270    0.5140   -1.0670 hn        1 B95      0.274667
     33 HNAN        2.1350   -3.0850   -4.8510 hn        1 B95      0.258000
     34 CAK         2.7780    3.3780   -2.9390 c1        1 B95     -0.228500
     35 HAE         0.7500   -2.2290   -7.5990 ha        1 B95      0.176000
     36 HAK         2.4890    3.7520   -3.8930 ha        1 B95      0.236000
     37 HAKA       -0.4340    1.2980   -1.9880 hn        1 B95      0.274667
     38 HAO2        1.0980    1.9600   -1.8060 hn        1 B95      0.274667
     39 BRAB       -0.2400   -1.3830    1.3160 br        1 B95      0.126000
     40 HAF        -2.8520   -0.7540   -5.6700 ha        1 B95      0.175000
@<TRIPOS>BOND
     1    1   16 1   
     2    2    3 1   
     3    2   23 1   
     4    2   24 1   
     5    3   22 1   
     6    3   25 1   
     7    4    5 1   
     8    4    8 1   
     9    5    9 1   
    10    5   40 1   
    11    6   17 1   
    12    7   19 1   
    13    8   20 1   
    14    8   35 1   
    15    9   21 1   
    16    9   27 1   
    17   10   28 1   
    18   10   34 1   
    19   11   15 1   
    20   11   16 1   
    21   11   30 1   
    22   11   31 1   
    23   12   18 1   
    24   12   20 1   
    25   12   33 1   
    26   13   16 1   
    27   13   32 1   
    28   13   37 1   
    29   13   38 1   
    30   14   18 1   
    31   14   21 1   
    32   15   19 1   
    33   17   19 1   
    34   17   39 1   
    35   18   29 1   
    36   20   21 1   
    37   20   26 1   
    38   34   36 1   
@<TRIPOS>SUBSTRUCTURE
     1 B95         1 TEMP              0 ****  ****    0 ROOT
