@<TRIPOS>MOLECULE
B95
   39    41     1     0     0
SMALL
bcc


@<TRIPOS>ATOM
      1 OAA        -0.8100    2.4110    1.7260 o         1 B95     -0.611100
      2 CAC         6.1080    1.2080   -0.5030 ca        1 B95     -0.151000
      3 CAD         5.5900    2.1980    0.3320 ca        1 B95     -0.087000
      4 CAE        -8.3810   -0.4570    0.5470 ca        1 B95     -0.113000
      5 CAF        -8.2240   -1.4380   -0.4500 ca        1 B95     -0.155000
      6 CAG         5.2500    0.4000   -1.2460 ca        1 B95     -0.080000
      7 CAH         4.2140    2.3840    0.4230 ca        1 B95     -0.185000
      8 CAI        -7.3420    0.3820    0.9170 ca        1 B95     -0.135000
      9 CAJ        -7.0210   -1.6190   -1.1160 ca        1 B95     -0.069000
     10 CAL        -2.6050    0.7010   -0.7260 c3        1 B95     -0.127700
     11 CAM         1.4320    2.2100    0.9230 c3        1 B95      0.054400
     12 NAN        -4.8860    0.8670    0.3690 na        1 B95     -0.281300
     13 NAO        -0.3880    0.5630    0.4210 n         1 B95     -0.542900
     14 NAP        -4.6220   -0.7370   -1.2620 nc        1 B95     -0.565100
     15 OAQ         1.9800    1.7660   -0.3220 os        1 B95     -0.333900
     16 CAR        -0.0200    1.7450    1.0260 c         1 B95      0.649100
     17 CAS         3.8620    0.5600   -1.1650 ca        1 B95     -0.046900
     18 CAT        -4.0210    0.2540   -0.5690 cd        1 B95      0.415800
     19 CAU         3.3510    1.5680   -0.3240 ca        1 B95      0.138100
     20 CAV        -6.1170    0.2180    0.2590 ca        1 B95     -0.071200
     21 CAW        -5.9410   -0.7920   -0.7730 ca        1 B95      0.064400
     22 HAC         7.1960    1.0620   -0.5770 ha        1 B95      0.143000
     23 HAD         6.2670    2.8380    0.9160 ha        1 B95      0.141000
     24 HAF        -9.0830   -2.0760   -0.7040 ha        1 B95      0.132000
     25 HAG         5.6730   -0.3780   -1.9030 ha        1 B95      0.151000
     26 HAH         3.8030    3.1730    1.0690 ha        1 B95      0.145000
     27 HAI        -7.4720    1.1450    1.6960 ha        1 B95      0.136000
     28 HAJ        -6.9070   -2.3870   -1.8930 ha        1 B95      0.147000
     29 HAL        -2.5590    1.8230   -0.7100 hc        1 B95      0.076200
     30 HALA       -2.2130    0.3560   -1.7200 hc        1 B95      0.076200
     31 HAM         2.0030    1.7970    1.7960 h1        1 B95      0.078700
     32 HAMA        1.4510    3.3320    0.9390 h1        1 B95      0.078700
     33 HNAO        0.2210    0.1880   -0.2730 hn        1 B95      0.327500
     34 HNAN       -4.6580    1.6040    0.9800 hn        1 B95      0.310700
     35 BRAB        2.7700   -0.5720   -2.1820 br        1 B95     -0.069100
     36 CAK        -1.7540    0.1190    0.4110 c3        1 B95      0.086000
     37 HAE        -9.3580   -0.3560    1.0440 ha        1 B95      0.131000
     38 HAK        -2.2230    0.3990    1.3990 h1        1 B95      0.071200
     39 HAKA       -1.7500   -1.0050    0.3230 h1        1 B95      0.071200
@<TRIPOS>BOND
     1    1   16 2   
     2    2    3 ar  
     3    2    6 ar  
     4    2   22 1   
     5    3    7 ar  
     6    3   23 1   
     7    4    5 ar  
     8    4    8 ar  
     9    4   37 1   
    10    5    9 ar  
    11    5   24 1   
    12    6   17 ar  
    13    6   25 1   
    14    7   19 ar  
    15    7   26 1   
    16    8   20 ar  
    17    8   27 1   
    18    9   21 ar  
    19    9   28 1   
    20   10   18 1   
    21   10   29 1   
    22   10   30 1   
    23   10   36 1   
    24   11   15 1   
    25   11   16 1   
    26   11   31 1   
    27   11   32 1   
    28   12   18 1   
    29   12   20 1   
    30   12   34 1   
    31   13   16 1   
    32   13   33 1   
    33   13   36 1   
    34   14   18 2   
    35   14   21 1   
    36   15   19 1   
    37   17   19 ar  
    38   17   35 1   
    39   20   21 ar  
    40   36   38 1   
    41   36   39 1   
@<TRIPOS>SUBSTRUCTURE
     1 B95         1 TEMP              0 ****  ****    0 ROOT
