@<TRIPOS>MOLECULE
B95
   40    39     1     0     0
SMALL
bcc


@<TRIPOS>ATOM
      1 OAA        -0.6980    1.8470   -0.2910 o         1 B95     -0.156000
      2 CAC         4.4430    0.4120    6.1870 c1        1 B95     -0.222500
      3 CAD         4.6250    1.4580    5.6360 c1        1 B95     -0.222500
      4 CAE         0.6780    0.2160   -9.2740 c1        1 B95      0.207000
      5 CAF        -0.1680    0.9710   -8.5950 c2        1 B95     -0.450000
      6 CAG         3.4710   -1.8330    2.3630 c1        1 B95      0.413000
      7 CAH         1.6090    0.3340    3.9380 c2        1 B95     -0.147000
      8 CAI         1.1210   -1.9420   -7.4350 c1        1 B95     -0.040000
      9 CAJ        -0.4430    0.9250   -7.1830 c2        1 B95     -0.021000
     10 CAL         1.2300   -0.8480   -2.9130 c3        1 B95     -0.126000
     11 CAM        -0.3850    0.4640    1.6960 c3        1 B95     -0.039000
     12 NAN         2.0080   -1.0870   -5.3090 n3        1 B95     -0.252000
     13 NAO         0.5960   -0.0780   -0.6190 n4        1 B95     -0.120000
     14 NAP         0.0700    0.1580   -4.8950 n2        1 B95     -0.155000
     15 OAQ         0.4560   -0.6130    2.0590 os        1 B95     -0.228000
     16 CAR        -0.2180    0.8570    0.2360 c2        1 B95      0.217000
     17 CAS         2.8380   -0.7050    2.0420 c2        1 B95     -0.535000
     18 CAT         1.0430   -0.5810   -4.3770 c2        1 B95      0.013000
     19 CAU         1.6360   -0.2510    2.7340 c2        1 B95      0.009000
     20 CAV         1.4490   -0.7560   -6.6500 c3        1 B95     -0.107000
     21 CAW         0.2540    0.1650   -6.3120 c2        1 B95     -0.119000
     22 HAC         2.5350    0.5390    4.5050 ha        1 B95      0.164000
     23 HAD         0.6690    0.6370    4.4220 ha        1 B95      0.164000
     24 HAG         4.2980   -0.5100    6.6930 ha        1 B95      0.224500
     25 HAH         4.8060    2.3910    5.1630 ha        1 B95      0.224500
     26 HAI         2.2480   -0.1650   -7.2080 h1        1 B95      0.179000
     27 HAJ        -1.2620    1.5750   -6.8240 ha        1 B95      0.163000
     28 HAL         2.3210   -0.7340   -2.6620 hc        1 B95      0.123500
     29 HALA        0.9340   -1.9140   -2.7110 hc        1 B95      0.123500
     30 HAM        -1.4400    0.0810    1.8250 h1        1 B95      0.170000
     31 HAMA       -0.2240    1.3820    2.3240 h1        1 B95      0.170000
     32 HNAO        0.3580   -1.0410   -0.3500 hn        1 B95      0.263500
     33 HNAN        2.2400   -2.0550   -5.2020 hn        1 B95      0.217000
     34 CAK         0.3860    0.1130   -2.0820 c3        1 B95     -0.126000
     35 HAE         0.5990   -1.8120   -8.3930 ha        1 B95      0.099000
     36 HAK        -0.7130   -0.0370   -2.2980 hx        1 B95      0.168000
     37 HAKA        0.6440    1.1840   -2.3350 hx        1 B95      0.168000
     38 HAO2        1.6040    0.0730   -0.3740 hn        1 B95      0.263500
     39 BRAB        3.5540    0.3820    0.6880 br        1 B95      0.111000
     40 HAF        -0.7320    1.7440   -9.1660 ha        1 B95      0.211000
@<TRIPOS>BOND
     1    1   16 1   
     2    2    3 1   
     3    2   24 1   
     4    3   25 1   
     5    4    5 1   
     6    5    9 1   
     7    5   40 1   
     8    6   17 1   
     9    7   19 1   
    10    7   22 1   
    11    7   23 1   
    12    8   20 1   
    13    8   35 1   
    14    9   21 1   
    15    9   27 1   
    16   10   18 1   
    17   10   28 1   
    18   10   29 1   
    19   10   34 1   
    20   11   15 1   
    21   11   16 1   
    22   11   30 1   
    23   11   31 1   
    24   12   18 1   
    25   12   20 1   
    26   12   33 1   
    27   13   16 1   
    28   13   32 1   
    29   13   34 1   
    30   13   38 1   
    31   14   18 1   
    32   14   21 1   
    33   15   19 1   
    34   17   19 1   
    35   17   39 1   
    36   20   21 1   
    37   20   26 1   
    38   34   36 1   
    39   34   37 1   
@<TRIPOS>SUBSTRUCTURE
     1 B95         1 TEMP              0 ****  ****    0 ROOT
