@<TRIPOS>MOLECULE
B95
   39    35     1     0     0
SMALL
bcc


@<TRIPOS>ATOM
      1 OAA        -1.3230   -0.2520    1.6200 o         1 B95     -0.377000
      2 BRAB        1.5400   -3.0510    5.8920 br        1 B95      0.073000
      3 CAC         0.6500    0.2050    7.9860 c1        1 B95     -0.126250
      4 CAD        -0.0020    1.1270    7.2000 c1        1 B95     -0.126250
      5 CAE        -1.2460    1.2270   -7.5610 c1        1 B95     -0.126250
      6 CAF        -1.9510    0.0330   -7.4330 c1        1 B95     -0.126250
      7 CAG         1.1610   -0.9650    7.4150 c1        1 B95     -0.081000
      8 CAH        -0.1520    0.8960    5.8370 c1        1 B95     -0.192000
      9 CAI        -0.4340    1.6720   -6.5280 c1        1 B95     -0.102000
     10 CAJ        -1.8440   -0.7210   -6.2650 c1        1 B95     -0.102000
     11 CAK        -0.0640   -0.3390   -0.9060 c3        1 B95     -0.023000
     12 CAL         0.9100   -0.3750   -2.0460 c3        1 B95     -0.125000
     13 CAM         0.6580   -0.5370    2.8900 c3        1 B95     -0.047000
     14 NAN         0.4140    1.0840   -4.1930 n2        1 B95     -0.188000
     15 NAO         0.6400   -0.5250    0.3260 n         1 B95     -0.368000
     16 NAP        -0.7050   -0.8140   -3.9880 n2        1 B95     -0.188000
     17 OAQ        -0.2540   -0.5300    3.9690 os        1 B95     -0.203000
     18 CAR        -0.0880   -0.4610    1.6100 c2        1 B95      0.269000
     19 CAS         1.0140   -1.1990    6.0580 c2        1 B95     -0.188000
     20 CAT         0.1770    0.0220   -3.3630 c2        1 B95      0.011000
     21 CAU         0.3620   -0.2780    5.2670 c2        1 B95      0.088000
     22 CAV        -0.3200    0.9030   -5.3270 c1        1 B95     -0.051000
     23 CAW        -1.0130   -0.2710   -5.2020 c1        1 B95     -0.051000
     24 HAC         0.7600    0.3730    8.9840 ha        1 B95      0.137250
     25 HAD        -0.3620    1.9500    7.6040 ha        1 B95      0.137250
     26 HAE        -1.3290    1.7800   -8.4230 ha        1 B95      0.137250
     27 HAF        -2.5220   -0.2770   -8.1640 ha        1 B95      0.137250
     28 HAG         1.6090   -1.5970    7.9560 ha        1 B95      0.150000
     29 HAH        -0.5970    1.5240    5.3010 ha        1 B95      0.155000
     30 HAI         0.0560    2.5030   -6.6200 ha        1 B95      0.141500
     31 HAJ        -2.3530   -1.5840   -6.1770 ha        1 B95      0.141500
     32 HAK        -0.7050   -1.0340   -1.0130 h1        1 B95      0.108000
     33 HAKA       -0.5290    0.5440   -0.8950 h1        1 B95      0.108000
     34 HAL         1.2740   -1.2750   -2.1360 hc        1 B95      0.114000
     35 HALA        1.6630    0.2760   -1.8670 hc        1 B95      0.114000
     36 HAM         1.1690   -1.3420    2.9130 h1        1 B95      0.133000
     37 HAMA        1.2580    0.2360    2.9640 h1        1 B95      0.133000
     38 HNAO        1.5430   -0.7340    0.3160 hn        1 B95      0.243000
     39 HNAN        0.9360    1.8070   -4.0020 DU        1 B95      0.261000
@<TRIPOS>BOND
     1    1   18 1   
     2    2   19 1   
     3    3    4 1   
     4    3   24 1   
     5    4   25 1   
     6    5    6 1   
     7    5   26 1   
     8    6   27 1   
     9    7   19 1   
    10    7   28 1   
    11    8   21 1   
    12    8   29 1   
    13    9   22 1   
    14    9   30 1   
    15   10   23 1   
    16   10   31 1   
    17   11   12 1   
    18   11   15 1   
    19   11   32 1   
    20   11   33 1   
    21   12   20 1   
    22   12   34 1   
    23   12   35 1   
    24   13   17 1   
    25   13   18 1   
    26   13   36 1   
    27   13   37 1   
    28   14   20 1   
    29   14   22 1   
    30   15   18 1   
    31   15   38 1   
    32   16   20 1   
    33   16   23 1   
    34   17   21 1   
    35   19   21 1   
@<TRIPOS>SUBSTRUCTURE
     1 B95         1 TEMP              0 ****  ****    0 ROOT
