@<TRIPOS>MOLECULE
B96
   76    80     1     0     0
SMALL
bcc


@<TRIPOS>ATOM
      1 C1          0.6040   -0.6180   -0.3610 c         1 B96      0.775100
      2 O1          1.8480   -0.5320   -0.4390 o         1 B96     -0.598100
      3 N2         -0.0720   -0.6350    0.8660 n         1 B96     -0.482100
      4 C3          0.5720   -0.6290    2.1200 ca        1 B96      0.034600
      5 C4         -0.1110   -0.0340    3.2470 ca        1 B96     -0.022000
      6 C5          0.4970   -0.0890    4.5270 ca        1 B96     -0.041000
      7 C6          1.7910   -0.6920    4.6640 ca        1 B96      0.132100
      8 C31        -1.3740    0.6110    3.1360 ca        1 B96     -0.138000
      9 C32        -2.0020    1.1420    4.2380 ca        1 B96     -0.114000
     10 C33        -1.4020    1.0600    5.5140 ca        1 B96     -0.143000
     11 C34        -0.1740    0.4600    5.6530 ca        1 B96     -0.088000
     12 C7          2.4390   -1.2250    3.5710 ca        1 B96     -0.202000
     13 C8          1.8230   -1.2010    2.3040 ca        1 B96     -0.102000
     14 N9         -0.1940   -0.7710   -1.5320 n         1 B96     -0.434100
     15 C10         0.3300   -0.3930   -2.7720 cc        1 B96      0.021300
     16 C14         1.6500   -0.4590   -3.2510 cd        1 B96     -0.274300
     17 C13         1.5880    0.0680   -4.6030 cd        1 B96      0.333600
     18 N12         0.3140    0.4200   -4.9170 nc        1 B96     -0.494800
     19 N11        -0.4460    0.1990   -3.8250 na        1 B96      0.120300
     20 C15        -1.8700    0.2200   -3.8640 ca        1 B96      0.006800
     21 C17         2.4020    0.7620   -6.8670 c3        1 B96     -0.084767
     22 C18         3.7890    1.1330   -4.8410 c3        1 B96     -0.084767
     23 C19         3.4050   -1.1780   -5.6880 c3        1 B96     -0.084767
     24 C16         2.7780    0.2000   -5.5030 c3        1 B96     -0.076300
     25 C20        -2.5370    1.3920   -4.2760 ca        1 B96     -0.128500
     26 C21        -3.9270    1.4290   -4.2850 ca        1 B96     -0.124000
     27 C22        -4.6800    0.3170   -3.8930 ca        1 B96     -0.074300
     28 C23        -4.0140   -0.8490   -3.5010 ca        1 B96     -0.124000
     29 C24        -2.6240   -0.9110   -3.4940 ca        1 B96     -0.128500
     30 C25        -6.1600    0.3670   -3.9170 c3        1 B96     -0.056800
     31 O41         2.3040   -0.6620    5.9460 os        1 B96     -0.323900
     32 C42         3.5380   -1.3630    6.1390 c3        1 B96      0.128400
     33 C43         3.8480   -1.2520    7.6380 c3        1 B96      0.170800
     34 N44         3.2050   -2.2820    8.4360 n3        1 B96     -0.729600
     35 C45         2.9110   -1.8420    9.7930 c3        1 B96      0.136300
     36 C46         2.2720   -2.9480   10.6410 c3        1 B96      0.126900
     37 O47         3.0430   -4.1430   10.6170 os        1 B96     -0.415600
     38 C48         3.2590   -4.6150    9.2920 c3        1 B96      0.126900
     39 C49         3.9250   -3.5480    8.4150 c3        1 B96      0.136300
     40 H2         -1.0610   -0.7290    0.8860 hn        1 B96      0.319500
     41 H31        -1.8610    0.7150    2.1560 ha        1 B96      0.123000
     42 H32        -2.9770    1.6410    4.1350 ha        1 B96      0.132000
     43 H33        -1.9230    1.4840    6.3840 ha        1 B96      0.135000
     44 H34         0.3170    0.3900    6.6370 ha        1 B96      0.153000
     45 H7          3.4360   -1.6790    3.6530 ha        1 B96      0.141000
     46 H8          2.3760   -1.6360    1.4530 ha        1 B96      0.166000
     47 H9         -1.1840   -0.6730   -1.4390 hn        1 B96      0.309500
     48 H14         2.5270   -0.8010   -2.7110 ha        1 B96      0.192000
     49 H171        1.6650    0.0960   -7.3760 hc        1 B96      0.039256
     50 H172        1.9530    1.7780   -6.7630 hc        1 B96      0.039256
     51 H173        3.3150    0.8390   -7.5050 hc        1 B96      0.039256
     52 H181        4.7050    1.2070   -5.4740 hc        1 B96      0.039256
     53 H182        3.3530    2.1530   -4.7200 hc        1 B96      0.039256
     54 H183        4.0750    0.7440   -3.8350 hc        1 B96      0.039256
     55 H191        3.6870   -1.6130   -4.6990 hc        1 B96      0.039256
     56 H192        2.6860   -1.8670   -6.1910 hc        1 B96      0.039256
     57 H193        4.3220   -1.0940   -6.3190 hc        1 B96      0.039256
     58 H20        -1.9610    2.2740   -4.5990 ha        1 B96      0.152500
     59 H21        -4.4400    2.3490   -4.6070 ha        1 B96      0.138500
     60 H23        -4.5960   -1.7370   -3.2070 ha        1 B96      0.138500
     61 H24        -2.1270   -1.8560   -3.2240 ha        1 B96      0.152500
     62 H251       -6.5330    0.0930   -4.9360 hc        1 B96      0.048033
     63 H252       -6.5990   -0.3490   -3.1800 hc        1 B96      0.048033
     64 H253       -6.5280    1.3950   -3.6750 hc        1 B96      0.048033
     65 H421        4.3460   -0.8480    5.5530 h1        1 B96      0.046700
     66 H422        3.4330   -2.4230    5.7930 h1        1 B96      0.046700
     67 H431        3.4900   -0.2410    7.9870 h1        1 B96      0.049700
     68 H432        4.9730   -1.2780    7.7470 h1        1 B96      0.049700
     69 H451        2.1880   -0.9820    9.7280 h1        1 B96      0.039950
     70 H452        3.8400   -1.4790   10.3220 h1        1 B96      0.039950
     71 H461        2.2570   -2.6460   11.7200 h1        1 B96      0.055200
     72 H462        1.2300   -3.1670   10.2850 h1        1 B96      0.055200
     73 H481        3.9420   -5.4950    9.4150 h1        1 B96      0.055200
     74 H482        2.2830   -4.9420    8.8460 h1        1 B96      0.055200
     75 H491        3.9430   -3.9180    7.3530 h1        1 B96      0.039950
     76 H492        4.9940   -3.4240    8.7580 h1        1 B96      0.039950
@<TRIPOS>BOND
     1    1    2 2   
     2    1    3 1   
     3    1   14 1   
     4    3    4 1   
     5    3   40 1   
     6    4    5 ar  
     7    4   13 ar  
     8    5    6 ar  
     9    5    8 ar  
    10    6    7 ar  
    11    6   11 ar  
    12    7   12 ar  
    13    7   31 1   
    14    8    9 ar  
    15    8   41 1   
    16    9   10 ar  
    17    9   42 1   
    18   10   11 ar  
    19   10   43 1   
    20   11   44 1   
    21   12   13 ar  
    22   12   45 1   
    23   13   46 1   
    24   14   15 1   
    25   14   47 1   
    26   15   16 2   
    27   15   19 1   
    28   16   17 1   
    29   16   48 1   
    30   17   18 2   
    31   17   24 1   
    32   18   19 1   
    33   19   20 1   
    34   20   25 ar  
    35   20   29 ar  
    36   21   24 1   
    37   21   49 1   
    38   21   50 1   
    39   21   51 1   
    40   22   24 1   
    41   22   52 1   
    42   22   53 1   
    43   22   54 1   
    44   23   24 1   
    45   23   55 1   
    46   23   56 1   
    47   23   57 1   
    48   25   26 ar  
    49   25   58 1   
    50   26   27 ar  
    51   26   59 1   
    52   27   28 ar  
    53   27   30 1   
    54   28   29 ar  
    55   28   60 1   
    56   29   61 1   
    57   30   62 1   
    58   30   63 1   
    59   30   64 1   
    60   31   32 1   
    61   32   33 1   
    62   32   65 1   
    63   32   66 1   
    64   33   34 1   
    65   33   67 1   
    66   33   68 1   
    67   34   35 1   
    68   34   39 1   
    69   35   36 1   
    70   35   69 1   
    71   35   70 1   
    72   36   37 1   
    73   36   71 1   
    74   36   72 1   
    75   37   38 1   
    76   38   39 1   
    77   38   73 1   
    78   38   74 1   
    79   39   75 1   
    80   39   76 1   
@<TRIPOS>SUBSTRUCTURE
     1 B96         1 TEMP              0 ****  ****    0 ROOT
