@<TRIPOS>MOLECULE
B96
   76    80     1     0     0
SMALL
bcc


@<TRIPOS>ATOM
      1 C1          0.6030   -0.6140   -0.3610 c         1 B96      0.775100
      2 O1          1.8460   -0.5140   -0.4360 o         1 B96     -0.598100
      3 N2         -0.0750   -0.6460    0.8640 ns        1 B96     -0.482100
      4 C3          0.5660   -0.6400    2.1190 ca        1 B96      0.034600
      5 C4         -0.1260   -0.0600    3.2480 ca        1 B96     -0.022000
      6 C5          0.4800   -0.1150    4.5290 ca        1 B96     -0.041000
      7 C6          1.7810   -0.7040    4.6650 ca        1 B96      0.132100
      8 C31        -1.3970    0.5710    3.1380 ca        1 B96     -0.138000
      9 C32        -2.0320    1.0880    4.2420 ca        1 B96     -0.114000
     10 C33        -1.4340    1.0060    5.5190 ca        1 B96     -0.143000
     11 C34        -0.2000    0.4190    5.6570 ca        1 B96     -0.088000
     12 C7          2.4370   -1.2230    3.5700 ca        1 B96     -0.202000
     13 C8          1.8240   -1.1990    2.3020 ca        1 B96     -0.102000
     14 N9         -0.1910   -0.7680   -1.5360 ns        1 B96     -0.434100
     15 C10         0.3320   -0.3770   -2.7720 cc        1 B96      0.021300
     16 C14         1.6540   -0.4250   -3.2480 cd        1 B96     -0.274300
     17 C13         1.5890    0.1100   -4.5960 cd        1 B96      0.333600
     18 N12         0.3120    0.4510   -4.9110 nc        1 B96     -0.494800
     19 N11        -0.4480    0.2140   -3.8220 na        1 B96      0.120300
     20 C15        -1.8720    0.2200   -3.8640 ca        1 B96      0.006800
     21 C17         2.4000    0.8280   -6.8540 c3        1 B96     -0.084767
     22 C18         3.7780    1.2000   -4.8230 c3        1 B96     -0.084767
     23 C19         3.4220   -1.1090   -5.6860 c3        1 B96     -0.084767
     24 C16         2.7800    0.2620   -5.4930 c3        1 B96     -0.076300
     25 C20        -2.5500    1.3880   -4.2700 ca        1 B96     -0.128500
     26 C21        -3.9410    1.4110   -4.2820 ca        1 B96     -0.124000
     27 C22        -4.6830    0.2880   -3.8990 ca        1 B96     -0.074300
     28 C23        -4.0060   -0.8740   -3.5140 ca        1 B96     -0.124000
     29 C24        -2.6150   -0.9210   -3.5040 ca        1 B96     -0.128500
     30 C25        -6.1630    0.3230   -3.9260 c3        1 B96     -0.056800
     31 O41         2.2900   -0.6750    5.9480 os        1 B96     -0.323900
     32 C42         3.5340   -1.3600    6.1390 c3        1 B96      0.128400
     33 C43         3.8410   -1.2520    7.6400 c3        1 B96      0.170800
     34 N44         3.2140   -2.2960    8.4320 n3        1 B96     -0.729600
     35 C45         2.9120   -1.8670    9.7910 c3        1 B96      0.136300
     36 C46         2.2900   -2.9870   10.6320 c3        1 B96      0.126900
     37 O47         3.0810   -4.1700   10.6030 os        1 B96     -0.415600
     38 C48         3.3050   -4.6310    9.2760 c3        1 B96      0.126900
     39 C49         3.9540   -3.5500    8.4050 c3        1 B96      0.136300
     40 H2         -1.0630   -0.7520    0.8810 hn        1 B96      0.319500
     41 H31        -1.8830    0.6740    2.1580 ha        1 B96      0.123000
     42 H32        -3.0130    1.5760    4.1400 ha        1 B96      0.132000
     43 H33        -1.9630    1.4180    6.3900 ha        1 B96      0.135000
     44 H34         0.2900    0.3490    6.6410 ha        1 B96      0.153000
     45 H7          3.4390   -1.6660    3.6520 ha        1 B96      0.141000
     46 H8          2.3820   -1.6230    1.4500 ha        1 B96      0.166000
     47 H9         -1.1820   -0.6820   -1.4440 hn        1 B96      0.309500
     48 H14         2.5330   -0.7610   -2.7080 ha        1 B96      0.192000
     49 H171        3.3140    0.9190   -7.4900 hc        1 B96      0.039256
     50 H172        1.6720    0.1570   -7.3690 hc        1 B96      0.039256
     51 H173        1.9400    1.8390   -6.7440 hc        1 B96      0.039256
     52 H181        4.0670    0.8080   -3.8180 hc        1 B96      0.039256
     53 H182        3.3310    2.2150   -4.6960 hc        1 B96      0.039256
     54 H183        4.6960    1.2880   -5.4530 hc        1 B96      0.039256
     55 H191        2.7110   -1.8020   -6.1950 hc        1 B96      0.039256
     56 H192        4.3400   -1.0110   -6.3140 hc        1 B96      0.039256
     57 H193        3.7070   -1.5470   -4.6990 hc        1 B96      0.039256
     58 H20        -1.9840    2.2780   -4.5860 ha        1 B96      0.152500
     59 H21        -4.4630    2.3260   -4.5990 ha        1 B96      0.138500
     60 H23        -4.5790   -1.7690   -3.2260 ha        1 B96      0.138500
     61 H24        -2.1080   -1.8630   -3.2390 ha        1 B96      0.152500
     62 H251       -6.5310    0.0510   -4.9480 hc        1 B96      0.048033
     63 H252       -6.5960   -0.4030   -3.1950 hc        1 B96      0.048033
     64 H253       -6.5430    1.3440   -3.6780 hc        1 B96      0.048033
     65 H421        4.3350   -0.8310    5.5570 h1        1 B96      0.046700
     66 H422        3.4440   -2.4200    5.7890 h1        1 B96      0.046700
     67 H431        3.4670   -0.2480    7.9930 h1        1 B96      0.049700
     68 H432        4.9660   -1.2600    7.7490 h1        1 B96      0.049700
     69 H451        3.8350   -1.4920   10.3230 h1        1 B96      0.039950
     70 H452        2.1760   -1.0180    9.7290 h1        1 B96      0.039950
     71 H461        1.2530   -3.2210   10.2750 h1        1 B96      0.055200
     72 H462        2.2700   -2.6910   11.7140 h1        1 B96      0.055200
     73 H481        2.3340   -4.9720    8.8280 h1        1 B96      0.055200
     74 H482        4.0020   -5.5010    9.3960 h1        1 B96      0.055200
     75 H491        5.0210   -3.4100    8.7490 h1        1 B96      0.039950
     76 H492        3.9790   -3.9150    7.3410 h1        1 B96      0.039950
@<TRIPOS>BOND
     1    1    2 2   
     2    1    3 1   
     3    1   14 1   
     4    3    4 1   
     5    3   40 1   
     6    4    5 ar  
     7    4   13 ar  
     8    5    6 ar  
     9    5    8 ar  
    10    6    7 ar  
    11    6   11 ar  
    12    7   12 ar  
    13    7   31 1   
    14    8    9 ar  
    15    8   41 1   
    16    9   10 ar  
    17    9   42 1   
    18   10   11 ar  
    19   10   43 1   
    20   11   44 1   
    21   12   13 ar  
    22   12   45 1   
    23   13   46 1   
    24   14   15 1   
    25   14   47 1   
    26   15   16 2   
    27   15   19 1   
    28   16   17 1   
    29   16   48 1   
    30   17   18 2   
    31   17   24 1   
    32   18   19 1   
    33   19   20 1   
    34   20   25 ar  
    35   20   29 ar  
    36   21   24 1   
    37   21   49 1   
    38   21   50 1   
    39   21   51 1   
    40   22   24 1   
    41   22   52 1   
    42   22   53 1   
    43   22   54 1   
    44   23   24 1   
    45   23   55 1   
    46   23   56 1   
    47   23   57 1   
    48   25   26 ar  
    49   25   58 1   
    50   26   27 ar  
    51   26   59 1   
    52   27   28 ar  
    53   27   30 1   
    54   28   29 ar  
    55   28   60 1   
    56   29   61 1   
    57   30   62 1   
    58   30   63 1   
    59   30   64 1   
    60   31   32 1   
    61   32   33 1   
    62   32   65 1   
    63   32   66 1   
    64   33   34 1   
    65   33   67 1   
    66   33   68 1   
    67   34   35 1   
    68   34   39 1   
    69   35   36 1   
    70   35   69 1   
    71   35   70 1   
    72   36   37 1   
    73   36   71 1   
    74   36   72 1   
    75   37   38 1   
    76   38   39 1   
    77   38   73 1   
    78   38   74 1   
    79   39   75 1   
    80   39   76 1   
@<TRIPOS>SUBSTRUCTURE
     1 B96         1 TEMP              0 ****  ****    0 ROOT
