@<TRIPOS>MOLECULE
B96
   76    70     1     0     0
SMALL
bcc


@<TRIPOS>ATOM
      1 C1         -1.5790    0.3200   -1.1120 c1        1 B96      0.402000
      2 O1         -0.5960    1.0320   -1.2090 o         1 B96     -0.359000
      3 N2         -2.1290    0.0290    0.1820 n2        1 B96     -0.336000
      4 C3         -1.5190    0.5780    1.3600 c2        1 B96      0.044000
      5 C4         -1.2340    1.6700    2.2140 c2        1 B96     -0.023000
      6 C5         -0.4460    1.4840    3.3300 c1        1 B96     -0.041000
      7 C6          0.0770    0.2020    3.6200 c1        1 B96      0.085000
      8 C31        -1.8120    2.9310    1.9630 c1        1 B96     -0.136000
      9 C32        -1.5870    3.9890    2.8420 c1        1 B96     -0.120750
     10 C33        -0.7890    3.8000    3.9710 c1        1 B96     -0.120750
     11 C34        -0.2180    2.5570    4.2200 c1        1 B96     -0.090000
     12 C7         -0.2050   -0.8730    2.7770 c1        1 B96     -0.197000
     13 C8         -1.0040   -0.6840    1.6470 c1        1 B96     -0.104000
     14 N9         -2.1160   -0.3220   -2.2790 n3        1 B96     -0.288000
     15 C10        -1.4880   -0.1200   -3.5670 c2        1 B96      0.052000
     16 C14        -0.2370    0.3960   -3.7810 c1        1 B96     -0.208000
     17 C13        -0.0030    0.3890   -5.1340 c1        1 B96     -0.089000
     18 N12        -1.0970   -0.1250   -5.7450 n2        1 B96     -0.062000
     19 N11        -2.0210   -0.4420   -4.7730 n3        1 B96     -0.119000
     20 C15        -3.2310   -1.0080   -4.9810 c1        1 B96      0.052000
     21 C17         1.2400    0.5040   -7.3110 c3        1 B96     -0.202667
     22 C18         1.3520    2.4270   -5.7210 c3        1 B96     -0.202667
     23 C19         2.5100    0.2750   -5.1730 c3        1 B96     -0.202667
     24 C16         1.2780    0.9000   -5.8380 c2        1 B96      0.018000
     25 C20        -4.2540   -0.2080   -5.4770 c1        1 B96     -0.120750
     26 C21        -5.5060   -0.7600   -5.7360 c1        1 B96     -0.120750
     27 C22        -5.7340   -2.1140   -5.4980 c1        1 B96     -0.067000
     28 C23        -4.7100   -2.9130   -5.0030 c1        1 B96     -0.124000
     29 C24        -3.4580   -2.3610   -4.7440 c1        1 B96     -0.153000
     30 C25        -7.1350   -2.7070   -5.7170 c3        1 B96     -0.182000
     31 O41         0.6010    0.0490    4.9320 os        1 B96     -0.219000
     32 C42         1.9520   -0.3910    4.9650 c3        1 B96     -0.023000
     33 C43         2.6240    0.1150    6.2530 c3        1 B96     -0.073000
     34 N44         3.6960   -0.7790    6.6190 n3        1 B96     -0.254000
     35 C45         3.6230   -1.0610    8.0100 c3        1 B96     -0.104500
     36 C46         4.8100   -1.8780    8.4980 c3        1 B96     -0.024000
     37 O47         6.0520   -1.3060    8.1220 os        1 B96     -0.271000
     38 C48         6.1260   -1.0230    6.7320 c3        1 B96     -0.024000
     39 C49         4.9410   -0.2050    6.2430 c3        1 B96     -0.104500
     40 H2         -2.8930   -0.4760    0.2530 hn        1 B96      0.233000
     41 H31        -2.3730    3.0640    1.1700 ha        1 B96      0.124000
     42 H32        -1.9890    4.8650    2.6660 ha        1 B96      0.141250
     43 H33        -0.6310    4.5460    4.5900 ha        1 B96      0.141250
     44 H34         0.3430    2.4250    5.0160 ha        1 B96      0.151000
     45 H7          0.1580   -1.7620    2.9790 ha        1 B96      0.145000
     46 H8         -1.2010   -1.4410    1.0540 ha        1 B96      0.167000
     47 H9         -2.8090   -0.9170   -2.1950 hn        1 B96      0.223000
     48 H14         0.3790    0.7140   -3.0920 DU        1 B96      0.192000
     49 H171        0.4630    0.9210   -7.7420 hc        1 B96      0.078556
     50 H172        2.0630    0.8100   -7.7540 hc        1 B96      0.078556
     51 H173        1.1710   -0.4740   -7.3860 hc        1 B96      0.078556
     52 H181        2.1130    2.7590   -6.2470 hc        1 B96      0.078556
     53 H182        1.4700    2.6780   -4.7790 hc        1 B96      0.078556
     54 H183        0.5200    2.8230   -6.0630 hc        1 B96      0.078556
     55 H191        2.4260   -0.7040   -5.1830 hc        1 B96      0.078556
     56 H192        3.3210    0.5410   -5.6680 hc        1 B96      0.078556
     57 H193        2.5750    0.5880   -4.2480 hc        1 B96      0.078556
     58 H20        -4.0940    0.7460   -5.6440 ha        1 B96      0.141250
     59 H21        -6.2290   -0.1950   -6.0860 ha        1 B96      0.141250
     60 H23        -4.8700   -3.8670   -4.8360 ha        1 B96      0.137000
     61 H24        -2.7350   -2.9260   -4.3940 ha        1 B96      0.148000
     62 H251       -7.8160   -2.0390   -5.4710 hc        1 B96      0.087333
     63 H252       -7.2430   -2.9530   -6.6630 hc        1 B96      0.087333
     64 H253       -7.2430   -3.5080   -5.1560 hc        1 B96      0.087333
     65 H421        1.9770   -1.3740    4.9470 h1        1 B96      0.089500
     66 H422        2.4300   -0.0380    4.1850 h1        1 B96      0.089500
     67 H431        2.9860    1.0150    6.1010 h1        1 B96      0.088500
     68 H432        1.9610    0.1460    6.9780 h1        1 B96      0.088500
     69 H451        3.5950   -0.2120    8.5070 h1        1 B96      0.081500
     70 H452        2.7960   -1.5630    8.1900 h1        1 B96      0.081500
     71 H461        4.7500   -2.7860    8.1200 h1        1 B96      0.094250
     72 H462        4.7720   -1.9390    9.4760 h1        1 B96      0.094250
     73 H481        6.1540   -1.8680    6.2370 h1        1 B96      0.094250
     74 H482        6.9530   -0.5220    6.5530 h1        1 B96      0.094250
     75 H491        5.0020    0.7010    6.6210 h1        1 B96      0.081500
     76 H492        4.9790   -0.1440    5.2640 h1        1 B96      0.081500
@<TRIPOS>BOND
     1    1    2 1   
     2    1   14 1   
     3    3    4 1   
     4    3   40 1   
     5    4    5 1   
     6    4   13 1   
     7    5    6 1   
     8    5    8 1   
     9    6   11 1   
    10    7   12 1   
    11    7   31 1   
    12    8   41 1   
    13    9   10 1   
    14    9   42 1   
    15   10   43 1   
    16   11   44 1   
    17   12   45 1   
    18   13   46 1   
    19   14   15 1   
    20   14   47 1   
    21   15   16 1   
    22   15   19 1   
    23   16   17 1   
    24   17   18 1   
    25   18   19 1   
    26   19   20 1   
    27   20   29 1   
    28   21   24 1   
    29   21   49 1   
    30   21   50 1   
    31   21   51 1   
    32   22   24 1   
    33   22   52 1   
    34   22   53 1   
    35   22   54 1   
    36   23   24 1   
    37   23   55 1   
    38   23   56 1   
    39   23   57 1   
    40   25   26 1   
    41   25   58 1   
    42   26   59 1   
    43   27   28 1   
    44   27   30 1   
    45   28   60 1   
    46   29   61 1   
    47   30   62 1   
    48   30   63 1   
    49   30   64 1   
    50   31   32 1   
    51   32   33 1   
    52   32   65 1   
    53   32   66 1   
    54   33   34 1   
    55   33   67 1   
    56   33   68 1   
    57   34   35 1   
    58   34   39 1   
    59   35   36 1   
    60   35   69 1   
    61   35   70 1   
    62   36   37 1   
    63   36   71 1   
    64   36   72 1   
    65   37   38 1   
    66   38   39 1   
    67   38   73 1   
    68   38   74 1   
    69   39   75 1   
    70   39   76 1   
@<TRIPOS>SUBSTRUCTURE
     1 B96         1 TEMP              0 ****  ****    0 ROOT
