@<TRIPOS>MOLECULE
B96
   76    80     1     0     0
SMALL
bcc


@<TRIPOS>ATOM
      1 C1         -0.4090    0.3150    1.5240 c         1 B96      0.758100
      2 O1         -1.6200    0.3660    1.2240 o         1 B96     -0.593100
      3 N2          0.5980    0.1060    0.5560 n         1 B96     -0.451100
      4 C3          0.3340    0.3050   -0.8200 ca        1 B96      0.008600
      5 C4          1.2600    1.0520   -1.6370 ca        1 B96     -0.021000
      6 C5          1.0390    1.1250   -3.0370 ca        1 B96     -0.044000
      7 C6         -0.1240    0.4990   -3.5960 ca        1 B96      0.138100
      8 C31         2.3950    1.7270   -1.1070 ca        1 B96     -0.144000
      9 C32         3.2670    2.4050   -1.9250 ca        1 B96     -0.109000
     10 C33         3.0550    2.4480   -3.3210 ca        1 B96     -0.144000
     11 C34         1.9590    1.8230   -3.8640 ca        1 B96     -0.085000
     12 C7         -1.0180   -0.1740   -2.7920 ca        1 B96     -0.208000
     13 C8         -0.7840   -0.2760   -1.4070 ca        1 B96     -0.079000
     14 N9          0.0160    0.4590    2.8730 n         1 B96     -0.440100
     15 C10        -0.9100    0.3380    3.9100 cc        1 B96      0.023300
     16 C14        -2.2380    0.7930    3.9840 cd        1 B96     -0.272300
     17 C13        -2.6810    0.4490    5.3230 cd        1 B96      0.334600
     18 N12        -1.6820   -0.1640    6.0100 nc        1 B96     -0.497800
     19 N11        -0.6380   -0.3040    5.1670 na        1 B96      0.124300
     20 C15         0.6700   -0.6590    5.6060 ca        1 B96      0.007800
     21 C17        -4.2170    0.2840    7.2930 c3        1 B96     -0.084767
     22 C18        -4.3080    2.2360    5.7630 c3        1 B96     -0.084767
     23 C19        -5.0700   -0.0010    4.9790 c3        1 B96     -0.084767
     24 C16        -4.0540    0.7340    5.8480 c3        1 B96     -0.076300
     25 C20         1.2060   -0.1390    6.8010 ca        1 B96     -0.130000
     26 C21         2.4830   -0.5100    7.2080 ca        1 B96     -0.122500
     27 C22         3.2530   -1.3960    6.4460 ca        1 B96     -0.074300
     28 C23         2.7140   -1.9190    5.2650 ca        1 B96     -0.122500
     29 C24         1.4350   -1.5670    4.8460 ca        1 B96     -0.130000
     30 C25         4.6070   -1.7920    6.8950 c3        1 B96     -0.055800
     31 O41        -0.2570    0.6570   -4.9610 os        1 B96     -0.323900
     32 C42        -1.3430   -0.0540   -5.5670 c3        1 B96      0.128400
     33 C43        -1.2270    0.2170   -7.0740 c3        1 B96      0.170800
     34 N44        -0.3230   -0.6960   -7.7540 n3        1 B96     -0.730600
     35 C45         0.3120   -0.0950   -8.9190 c3        1 B96      0.136300
     36 C46         1.2300   -1.0780   -9.6550 c3        1 B96      0.126900
     37 O47         0.5580   -2.2910   -9.9730 os        1 B96     -0.415600
     38 C48         0.0090   -2.9170   -8.8190 c3        1 B96      0.126900
     39 C49        -0.9410   -1.9780   -8.0670 c3        1 B96      0.136300
     40 H2          1.5420    0.2740    0.8270 hn        1 B96      0.306500
     41 H31         2.5850    1.7370   -0.0240 ha        1 B96      0.121000
     42 H32         4.1380    2.9260   -1.5000 ha        1 B96      0.132000
     43 H33         3.7700    2.9870   -3.9600 ha        1 B96      0.136000
     44 H34         1.7690    1.8480   -4.9490 ha        1 B96      0.153000
     45 H7         -1.9230   -0.6460   -3.2000 ha        1 B96      0.142000
     46 H8         -1.5230   -0.8150   -0.7910 ha        1 B96      0.164000
     47 H9          0.9590    0.2210    3.1020 hn        1 B96      0.314500
     48 H14        -2.8110    1.2690    3.1950 ha        1 B96      0.190000
     49 H171       -5.2520    0.5160    7.6440 hc        1 B96      0.039256
     50 H172       -4.0490   -0.8160    7.3830 hc        1 B96      0.039256
     51 H173       -3.4900    0.8130    7.9540 hc        1 B96      0.039256
     52 H181       -3.5850    2.7890    6.4100 hc        1 B96      0.039256
     53 H182       -4.1900    2.5910    4.7110 hc        1 B96      0.039256
     54 H183       -5.3450    2.4650    6.1070 hc        1 B96      0.039256
     55 H191       -4.9130   -1.1040    5.0490 hc        1 B96      0.039256
     56 H192       -6.1050    0.2370    5.3240 hc        1 B96      0.039256
     57 H193       -4.9650    0.3090    3.9120 hc        1 B96      0.039256
     58 H20         0.6160    0.5540    7.4230 ha        1 B96      0.150000
     59 H21         2.8920   -0.0990    8.1440 ha        1 B96      0.138500
     60 H23         3.3040   -2.6280    4.6640 ha        1 B96      0.138500
     61 H24         1.0220   -2.0260    3.9340 ha        1 B96      0.150000
     62 H251        4.5380   -2.6780    7.5760 hc        1 B96      0.048033
     63 H252        5.2530   -2.0680    6.0260 hc        1 B96      0.048033
     64 H253        5.1020   -0.9600    7.4540 hc        1 B96      0.048033
     65 H421       -1.2750   -1.1430   -5.3140 h1        1 B96      0.047200
     66 H422       -2.3120    0.3670   -5.1880 h1        1 B96      0.047200
     67 H431       -2.2720    0.1690   -7.5010 h1        1 B96      0.050200
     68 H432       -0.8490    1.2710   -7.2030 h1        1 B96      0.050200
     69 H451       -0.4520    0.2970   -9.6520 h1        1 B96      0.039950
     70 H452        0.9330    0.7730   -8.5630 h1        1 B96      0.039950
     71 H461        1.5290   -0.6550  -10.6490 h1        1 B96      0.055200
     72 H462        2.1410   -1.3040   -9.0400 h1        1 B96      0.055200
     73 H481       -0.5570   -3.7970   -9.2200 h1        1 B96      0.055200
     74 H482        0.8390   -3.2620   -8.1480 h1        1 B96      0.055200
     75 H491       -1.2340   -2.4660   -7.0960 h1        1 B96      0.039950
     76 H492       -1.8770   -1.8480   -8.6860 h1        1 B96      0.039950
@<TRIPOS>BOND
     1    1    2 2   
     2    1    3 1   
     3    1   14 1   
     4    3    4 1   
     5    3   40 1   
     6    4    5 ar  
     7    4   13 ar  
     8    5    6 ar  
     9    5    8 ar  
    10    6    7 ar  
    11    6   11 ar  
    12    7   12 ar  
    13    7   31 1   
    14    8    9 ar  
    15    8   41 1   
    16    9   10 ar  
    17    9   42 1   
    18   10   11 ar  
    19   10   43 1   
    20   11   44 1   
    21   12   13 ar  
    22   12   45 1   
    23   13   46 1   
    24   14   15 1   
    25   14   47 1   
    26   15   16 2   
    27   15   19 1   
    28   16   17 1   
    29   16   48 1   
    30   17   18 2   
    31   17   24 1   
    32   18   19 1   
    33   19   20 1   
    34   20   25 ar  
    35   20   29 ar  
    36   21   24 1   
    37   21   49 1   
    38   21   50 1   
    39   21   51 1   
    40   22   24 1   
    41   22   52 1   
    42   22   53 1   
    43   22   54 1   
    44   23   24 1   
    45   23   55 1   
    46   23   56 1   
    47   23   57 1   
    48   25   26 ar  
    49   25   58 1   
    50   26   27 ar  
    51   26   59 1   
    52   27   28 ar  
    53   27   30 1   
    54   28   29 ar  
    55   28   60 1   
    56   29   61 1   
    57   30   62 1   
    58   30   63 1   
    59   30   64 1   
    60   31   32 1   
    61   32   33 1   
    62   32   65 1   
    63   32   66 1   
    64   33   34 1   
    65   33   67 1   
    66   33   68 1   
    67   34   35 1   
    68   34   39 1   
    69   35   36 1   
    70   35   69 1   
    71   35   70 1   
    72   36   37 1   
    73   36   71 1   
    74   36   72 1   
    75   37   38 1   
    76   38   39 1   
    77   38   73 1   
    78   38   74 1   
    79   39   75 1   
    80   39   76 1   
@<TRIPOS>SUBSTRUCTURE
     1 B96         1 TEMP              0 ****  ****    0 ROOT
