@<TRIPOS>MOLECULE
B96
   78    82     1     0     0
SMALL
bcc


@<TRIPOS>ATOM
      1 C1          0.2200    1.7890   -0.1240 c         1 B96      0.431100
      2 O1          0.0570    2.7110    0.6540 o         1 B96     -0.304100
      3 N2          0.6540    0.3930    0.2740 n4        1 B96     -0.427200
      4 C3          0.9770    0.2700    1.6740 ca        1 B96     -0.200400
      5 C4         -0.0480   -0.0810    2.6240 ca        1 B96      0.055000
      6 C5          0.3370   -0.2650    3.9790 ca        1 B96     -0.101000
      7 C6          1.7060   -0.0530    4.3700 ca        1 B96      0.312100
      8 C31        -1.4030   -0.2780    2.2780 ca        1 B96     -0.211000
      9 C32        -2.3330   -0.6540    3.2320 ca        1 B96     -0.022000
     10 C33        -1.9470   -0.8510    4.5700 ca        1 B96     -0.131000
     11 C34        -0.6310   -0.6590    4.9380 ca        1 B96     -0.027000
     12 C7          2.6660    0.3380    3.4130 ca        1 B96     -0.257000
     13 C8          2.3000    0.5180    2.0950 ca        1 B96      0.022000
     14 N9         -0.0110    2.0580   -1.6010 n4        1 B96     -0.475200
     15 C10         0.3800    0.9610   -2.4410 cc        1 B96     -0.243700
     16 C14         1.6960    0.5600   -2.8070 cd        1 B96     -0.224300
     17 C13         1.4990   -0.5300   -3.7180 cd        1 B96      0.362600
     18 N12         0.1470   -0.7550   -3.8870 nc        1 B96     -0.389800
     19 N11        -0.5200    0.1060   -3.1390 na        1 B96      0.245300
     20 C15        -1.9410    0.3010   -3.1610 ca        1 B96     -0.091200
     21 C17         2.4010   -1.1940   -5.9180 c3        1 B96     -0.096100
     22 C18         3.9400   -0.8050   -4.0050 c3        1 B96     -0.096100
     23 C19         2.4450   -2.7950   -4.0100 c3        1 B96     -0.096100
     24 C16         2.5680   -1.3280   -4.4080 c3        1 B96     -0.086300
     25 C20        -2.6280    0.3380   -4.3880 ca        1 B96     -0.117500
     26 C21        -4.0090    0.5300   -4.3930 ca        1 B96     -0.106500
     27 C22        -4.7220    0.6790   -3.1980 ca        1 B96     -0.005300
     28 C23        -4.0270    0.6230   -1.9780 ca        1 B96     -0.106500
     29 C24        -2.6530    0.4280   -1.9490 ca        1 B96     -0.117500
     30 C25        -6.1890    0.8650   -3.2190 c3        1 B96     -0.083800
     31 O41         1.9640   -0.2340    5.6740 os        1 B96     -0.269900
     32 C42         3.3370   -0.1210    6.1330 c3        1 B96      0.118400
     33 C43         3.3090   -0.5910    7.5960 c3        1 B96      0.168800
     34 N44         3.2340   -2.0350    7.7100 n3        1 B96     -0.746600
     35 C45         2.4140   -2.4740    8.8340 c3        1 B96      0.132300
     36 C46         2.3830   -4.0020    8.9710 c3        1 B96      0.126400
     37 O47         3.6930   -4.5500    9.0100 os        1 B96     -0.395600
     38 C48         4.4580   -4.1950    7.8670 c3        1 B96      0.126400
     39 C49         4.5470   -2.6720    7.7040 c3        1 B96      0.132300
     40 H2         -0.1210   -0.2520    0.0430 hn        1 B96      0.491800
     41 H31        -1.7580   -0.1320    1.2480 ha        1 B96      0.101000
     42 H32        -3.3880   -0.8060    2.9470 ha        1 B96      0.165000
     43 H33        -2.6980   -1.1590    5.3160 ha        1 B96      0.180000
     44 H34        -0.3070   -0.8130    5.9840 ha        1 B96      0.185000
     45 H7          3.7140    0.5080    3.7130 ha        1 B96      0.184000
     46 H8          3.0740    0.8390    1.3750 ha        1 B96      0.148000
     47 H9          0.5410    2.8950   -1.8680 hn        1 B96      0.504300
     48 H14         2.6460    0.9960   -2.5060 ha        1 B96      0.198000
     49 H171        2.4470   -0.1220   -6.2260 hc        1 B96      0.054589
     50 H172        1.4280   -1.6280   -6.2500 hc        1 B96      0.054589
     51 H173        3.2260   -1.7460   -6.4310 hc        1 B96      0.054589
     52 H181        4.0620    0.2630   -4.3040 hc        1 B96      0.054589
     53 H182        4.7300   -1.4050   -4.5220 hc        1 B96      0.054589
     54 H183        4.0940   -0.8990   -2.9040 hc        1 B96      0.054589
     55 H191        1.4650   -3.2160   -4.3390 hc        1 B96      0.054589
     56 H192        3.2610   -3.3800   -4.5010 hc        1 B96      0.054589
     57 H193        2.5410   -2.9130   -2.9050 hc        1 B96      0.054589
     58 H20        -2.0940    0.2090   -5.3460 ha        1 B96      0.136500
     59 H21        -4.5460    0.5560   -5.3580 ha        1 B96      0.172000
     60 H23        -4.5860    0.7190   -1.0330 ha        1 B96      0.172000
     61 H24        -2.1500    0.3160   -0.9770 ha        1 B96      0.136500
     62 H251       -6.5540    1.3450   -2.2770 hc        1 B96      0.077367
     63 H252       -6.5000    1.5010   -4.0860 hc        1 B96      0.077367
     64 H253       -6.6940   -0.1310   -3.3220 hc        1 B96      0.077367
     65 H421        3.6320    0.9590    6.0740 h1        1 B96      0.069700
     66 H422        3.9970   -0.7580    5.4910 h1        1 B96      0.069700
     67 H431        4.2400   -0.1640    8.0750 h1        1 B96      0.070200
     68 H432        2.4150   -0.1180    8.0940 h1        1 B96      0.070200
     69 H451        1.3630   -2.1100    8.6600 h1        1 B96      0.044450
     70 H452        2.7810   -2.0370    9.8080 h1        1 B96      0.044450
     71 H461        1.8040   -4.4640    8.1290 h1        1 B96      0.062200
     72 H462        1.9290   -4.2900    9.9570 h1        1 B96      0.062200
     73 H481        4.0140   -4.6670    6.9510 h1        1 B96      0.062200
     74 H482        5.4770   -4.6200    8.0670 h1        1 B96      0.062200
     75 H491        5.2080   -2.2650    8.5240 h1        1 B96      0.044450
     76 H492        5.0370   -2.4440    6.7170 h1        1 B96      0.044450
     77 H22         1.4800    0.1450   -0.2990 hn        1 B96      0.491800
     78 H92        -1.0210    2.2780   -1.7350 hn        1 B96      0.504300
@<TRIPOS>BOND
     1    1    2 2   
     2    1    3 1   
     3    1   14 1   
     4    3    4 1   
     5    3   40 1   
     6    3   77 1   
     7    4    5 ar  
     8    4   13 ar  
     9    5    6 ar  
    10    5    8 ar  
    11    6    7 ar  
    12    6   11 ar  
    13    7   12 ar  
    14    7   31 1   
    15    8    9 ar  
    16    8   41 1   
    17    9   10 ar  
    18    9   42 1   
    19   10   11 ar  
    20   10   43 1   
    21   11   44 1   
    22   12   13 ar  
    23   12   45 1   
    24   13   46 1   
    25   14   15 1   
    26   14   47 1   
    27   14   78 1   
    28   15   16 2   
    29   15   19 1   
    30   16   17 1   
    31   16   48 1   
    32   17   18 2   
    33   17   24 1   
    34   18   19 1   
    35   19   20 1   
    36   20   25 ar  
    37   20   29 ar  
    38   21   24 1   
    39   21   49 1   
    40   21   50 1   
    41   21   51 1   
    42   22   24 1   
    43   22   52 1   
    44   22   53 1   
    45   22   54 1   
    46   23   24 1   
    47   23   55 1   
    48   23   56 1   
    49   23   57 1   
    50   25   26 ar  
    51   25   58 1   
    52   26   27 ar  
    53   26   59 1   
    54   27   28 ar  
    55   27   30 1   
    56   28   29 ar  
    57   28   60 1   
    58   29   61 1   
    59   30   62 1   
    60   30   63 1   
    61   30   64 1   
    62   31   32 1   
    63   32   33 1   
    64   32   65 1   
    65   32   66 1   
    66   33   34 1   
    67   33   67 1   
    68   33   68 1   
    69   34   35 1   
    70   34   39 1   
    71   35   36 1   
    72   35   69 1   
    73   35   70 1   
    74   36   37 1   
    75   36   71 1   
    76   36   72 1   
    77   37   38 1   
    78   38   39 1   
    79   38   73 1   
    80   38   74 1   
    81   39   75 1   
    82   39   76 1   
@<TRIPOS>SUBSTRUCTURE
     1 B96         1 TEMP              0 ****  ****    0 ROOT
