@<TRIPOS>MOLECULE
B97
   45    49     1     0     0
SMALL
bcc


@<TRIPOS>ATOM
      1 C15         0.1260   -0.7460    0.0730 ca        1 B97     -0.097000
      2 C19         4.3560   -0.2500    2.4430 ca        1 B97     -0.052000
      3 C10        -0.6470    0.5760    3.4990 ca        1 B97     -0.148300
      4 C9         -2.0040    0.4990    3.5440 ca        1 B97     -0.097000
      5 C14         1.5010   -0.6840    0.1200 ca        1 B97     -0.235300
      6 C20         5.7460   -0.1550    2.3770 ca        1 B97     -0.255300
      7 C24         4.3060    0.2870    0.0960 ca        1 B97      0.416200
      8 C16        -0.6470   -0.2400    1.1480 ca        1 B97     -0.090300
      9 C17        -2.0730   -0.1890    1.1810 ca        1 B97     -0.101800
     10 C18         3.6050   -0.0340    1.2820 cp        1 B97     -0.272800
     11 C11         0.0770    0.2080    2.3020 ca        1 B97      0.395600
     12 C5         -3.0480   -0.4090    0.1160 cc        1 B97      0.184800
     13 C8         -2.7350    0.1200    2.3890 ca        1 B97     -0.103100
     14 C13         2.1390   -0.1290    1.2720 cp        1 B97      0.474800
     15 C6         -4.3500   -0.3300    0.6180 cd        1 B97     -0.262600
     16 C21         6.3620    0.1620    1.1470 ca        1 B97      0.420600
     17 C25        -5.6380   -0.5090   -0.0580 c         1 B97      0.737700
     18 C3         -3.6260   -0.8750   -2.2260 c3        1 B97      0.158800
     19 C2         -4.7650    0.1820   -2.2930 c3        1 B97      0.074700
     20 C22         7.8520    0.2620    1.0840 c3        1 B97     -0.150400
     21 C1         -5.2600    0.2670   -3.7370 c3        1 B97     -0.108100
     22 N23         5.6410    0.3840    0.0170 nb        1 B97     -0.672000
     23 N12         1.4450    0.2810    2.3410 nb        1 B97     -0.654000
     24 N4         -2.6520   -0.6770   -1.1890 nh        1 B97     -0.709000
     25 N27        -5.8300   -0.1020   -1.3670 n         1 B97     -0.551900
     26 O26        -6.6360   -0.9570    0.5530 o         1 B97     -0.653500
     27 S7         -4.3830    0.0140    2.2650 ss        1 B97      0.207500
     28 H15        -0.3470   -1.2470   -0.7840 ha        1 B97      0.151000
     29 H10        -0.0700    0.9050    4.3790 ha        1 B97      0.155000
     30 H9         -2.5560    0.7420    4.4660 ha        1 B97      0.144000
     31 H14         2.1150   -1.0810   -0.7010 ha        1 B97      0.148000
     32 H20         6.3580   -0.3220    3.2740 ha        1 B97      0.145000
     33 H24         3.7600    0.4880   -0.8450 h4        1 B97      0.022100
     34 H3         -3.0750   -0.8700   -3.2090 h1        1 B97      0.066700
     35 H3A        -4.0740   -1.9010   -2.0890 h1        1 B97      0.066700
     36 H2         -4.3350    1.1940   -2.0160 h1        1 B97      0.058700
     37 H22         8.2610   -0.4600    0.3340 hc        1 B97      0.054367
     38 H22A        8.1590    1.2940    0.7790 hc        1 B97      0.054367
     39 H22B        8.2980    0.0350    2.0820 hc        1 B97      0.054367
     40 H1         -6.1020    0.9960   -3.8280 hc        1 B97      0.049033
     41 H1A        -4.4240    0.6130   -4.3900 hc        1 B97      0.049033
     42 H1B        -5.6090   -0.7300   -4.1000 hc        1 B97      0.049033
     43 HN4        -1.8910   -0.0870   -1.4710 hn        1 B97      0.404800
     44 HN27       -6.7200   -0.3180   -1.7620 hn        1 B97      0.316500
     45 H19         3.8590   -0.4900    3.3960 ha        1 B97      0.155000
@<TRIPOS>BOND
     1    1    5 ar  
     2    1    8 ar  
     3    1   28 1   
     4    2    6 ar  
     5    2   10 ar  
     6    2   45 1   
     7    3    4 ar  
     8    3   11 ar  
     9    3   29 1   
    10    4   13 ar  
    11    4   30 1   
    12    5   14 ar  
    13    5   31 1   
    14    6   16 ar  
    15    6   32 1   
    16    7   10 ar  
    17    7   22 ar  
    18    7   33 1   
    19    8    9 ar  
    20    8   11 ar  
    21    9   12 1   
    22    9   13 ar  
    23   10   14 1   
    24   11   23 ar  
    25   12   15 2   
    26   12   24 1   
    27   13   27 1   
    28   14   23 ar  
    29   15   17 1   
    30   15   27 1   
    31   16   20 1   
    32   16   22 ar  
    33   17   25 1   
    34   17   26 2   
    35   18   19 1   
    36   18   24 1   
    37   18   34 1   
    38   18   35 1   
    39   19   21 1   
    40   19   25 1   
    41   19   36 1   
    42   20   37 1   
    43   20   38 1   
    44   20   39 1   
    45   21   40 1   
    46   21   41 1   
    47   21   42 1   
    48   24   43 1   
    49   25   44 1   
@<TRIPOS>SUBSTRUCTURE
     1 B97         1 TEMP              0 ****  ****    0 ROOT
