@<TRIPOS>MOLECULE
B97
   45    49     1     0     0
SMALL
bcc


@<TRIPOS>ATOM
      1 C15         0.1240   -0.7490    0.0800 ca        1 B97     -0.097000
      2 C19         4.3550   -0.2360    2.4470 ca        1 B97     -0.052000
      3 C10        -0.6470    0.6080    3.4920 ca        1 B97     -0.148300
      4 C9         -2.0050    0.5340    3.5370 ca        1 B97     -0.097000
      5 C14         1.4990   -0.6900    0.1270 ca        1 B97     -0.235300
      6 C20         5.7450   -0.1440    2.3800 ca        1 B97     -0.255300
      7 C24         4.3060    0.2760    0.0940 ca        1 B97      0.416200
      8 C16        -0.6480   -0.2310    1.1490 ca        1 B97     -0.090300
      9 C17        -2.0740   -0.1770    1.1810 ca        1 B97     -0.101800
     10 C18         3.6050   -0.0310    1.2820 cp        1 B97     -0.272800
     11 C11         0.0760    0.2280    2.2990 ca        1 B97      0.395600
     12 C5         -3.0490   -0.4050    0.1180 cc        1 B97      0.184800
     13 C8         -2.7360    0.1450    2.3860 ca        1 B97     -0.103100
     14 C13         2.1380   -0.1240    1.2730 cp        1 B97      0.474800
     15 C6         -4.3510   -0.3200    0.6180 cd        1 B97     -0.262600
     16 C21         6.3620    0.1580    1.1470 ca        1 B97      0.420600
     17 C25        -5.6390   -0.5020   -0.0570 c         1 B97      0.737700
     18 C3         -3.6260   -0.8930   -2.2200 c3        1 B97      0.158800
     19 C2         -4.7630    0.1660   -2.2980 c3        1 B97      0.074700
     20 C22         7.8520    0.2550    1.0830 c3        1 B97     -0.150400
     21 C1         -5.2570    0.2370   -3.7430 c3        1 B97     -0.108100
     22 N23         5.6410    0.3690    0.0140 nb        1 B97     -0.672000
     23 N12         1.4450    0.2980    2.3370 nb        1 B97     -0.654000
     24 N4         -2.6530   -0.6870   -1.1840 nh        1 B97     -0.709000
     25 N27        -5.8290   -0.1080   -1.3700 n         1 B97     -0.551900
     26 O26        -6.6370   -0.9430    0.5580 o         1 B97     -0.653500
     27 S7         -4.3830    0.0410    2.2620 ss        1 B97      0.207500
     28 H15        -0.3490   -1.2580   -0.7720 ha        1 B97      0.151000
     29 H10        -0.0710    0.9450    4.3690 ha        1 B97      0.155000
     30 H9         -2.5560    0.7880    4.4560 ha        1 B97      0.144000
     31 H14         2.1130   -1.0960   -0.6900 ha        1 B97      0.148000
     32 H20         6.3560   -0.3030    3.2790 ha        1 B97      0.145000
     33 H24         3.7610    0.4670   -0.8490 h4        1 B97      0.022100
     34 H3         -3.0750   -0.8980   -3.2030 h1        1 B97      0.066700
     35 H3A        -4.0760   -1.9170   -2.0740 h1        1 B97      0.066700
     36 H2         -4.3320    1.1790   -2.0300 h1        1 B97      0.058700
     37 H22         8.2970    0.0440    2.0850 hc        1 B97      0.054367
     38 H22A        8.1620    1.2800    0.7600 hc        1 B97      0.054367
     39 H22B        8.2590   -0.4820    0.3470 hc        1 B97      0.054367
     40 H1         -5.6080   -0.7620   -4.0960 hc        1 B97      0.049033
     41 H1A        -6.0970    0.9680   -3.8410 hc        1 B97      0.049033
     42 H1B        -4.4200    0.5760   -4.3980 hc        1 B97      0.049033
     43 HN4        -1.8900   -0.1010   -1.4710 hn        1 B97      0.404800
     44 HN27       -6.7200   -0.3260   -1.7630 hn        1 B97      0.316500
     45 H19         3.8570   -0.4660    3.4010 ha        1 B97      0.155000
@<TRIPOS>BOND
     1    1    5 ar  
     2    1    8 ar  
     3    1   28 1   
     4    2    6 ar  
     5    2   10 ar  
     6    2   45 1   
     7    3    4 ar  
     8    3   11 ar  
     9    3   29 1   
    10    4   13 ar  
    11    4   30 1   
    12    5   14 ar  
    13    5   31 1   
    14    6   16 ar  
    15    6   32 1   
    16    7   10 ar  
    17    7   22 ar  
    18    7   33 1   
    19    8    9 ar  
    20    8   11 ar  
    21    9   12 1   
    22    9   13 ar  
    23   10   14 1   
    24   11   23 ar  
    25   12   15 2   
    26   12   24 1   
    27   13   27 1   
    28   14   23 ar  
    29   15   17 1   
    30   15   27 1   
    31   16   20 1   
    32   16   22 ar  
    33   17   25 1   
    34   17   26 2   
    35   18   19 1   
    36   18   24 1   
    37   18   34 1   
    38   18   35 1   
    39   19   21 1   
    40   19   25 1   
    41   19   36 1   
    42   20   37 1   
    43   20   38 1   
    44   20   39 1   
    45   21   40 1   
    46   21   41 1   
    47   21   42 1   
    48   24   43 1   
    49   25   44 1   
@<TRIPOS>SUBSTRUCTURE
     1 B97         1 TEMP              0 ****  ****    0 ROOT
