@<TRIPOS>MOLECULE
B97
   45    49     1     0     0
SMALL
bcc


@<TRIPOS>ATOM
      1 C15        -0.6700   -0.7870   -0.6710 ca        1 B97     -0.097000
      2 C19        -5.2330    0.8800   -0.2610 ca        1 B97     -0.052000
      3 C10        -0.4750    2.7410    0.5900 ca        1 B97     -0.148300
      4 C9          0.8590    3.0030    0.5250 ca        1 B97     -0.097000
      5 C14        -2.0350   -0.9610   -0.6240 ca        1 B97     -0.235300
      6 C20        -6.5950    0.5920   -0.1780 ca        1 B97     -0.255300
      7 C24        -4.8120   -1.4190    0.3210 ca        1 B97      0.416200
      8 C16        -0.0860    0.4070   -0.1790 ca        1 B97     -0.090300
      9 C17         1.3150    0.6700   -0.1150 ca        1 B97     -0.101800
     10 C18        -4.3070   -0.1420   -0.0160 cp        1 B97     -0.272800
     11 C11        -0.9920    1.4370    0.2390 ca        1 B97      0.395600
     12 C5          2.4510   -0.2280   -0.3040 cc        1 B97      0.184800
     13 C8          1.7700    1.9740    0.1760 ca        1 B97     -0.103100
     14 C13        -2.8570    0.0830   -0.0970 cp        1 B97      0.474800
     15 C6          3.6540    0.4780   -0.2230 cd        1 B97     -0.262600
     16 C21        -7.0090   -0.7150    0.1560 ca        1 B97      0.420600
     17 C25         5.0370    0.0150   -0.3750 c         1 B97      0.737700
     18 C3          3.4030   -2.4550   -0.7180 c3        1 B97      0.158800
     19 C2          4.5250   -2.3190    0.3520 c3        1 B97      0.074700
     20 C22        -8.4700   -1.0160    0.2420 c3        1 B97     -0.150400
     21 C1          5.2450   -3.6620    0.4700 c3        1 B97     -0.108100
     22 N23        -6.1180   -1.7110    0.4060 nb        1 B97     -0.672000
     23 N12        -2.3500    1.2560    0.2980 nb        1 B97     -0.654000
     24 N4          2.2730   -1.5850   -0.5500 nh        1 B97     -0.709000
     25 N27         5.4310   -1.2390    0.0590 n         1 B97     -0.551900
     26 O26         5.9280    0.7700   -0.8270 o         1 B97     -0.653500
     27 S7          3.4170    2.1150    0.0890 ss        1 B97      0.207500
     28 H15        -0.0590   -1.5650   -1.1510 ha        1 B97      0.151000
     29 H10        -1.1890    3.5230    0.8960 ha        1 B97      0.155000
     30 H9          1.2520    4.0060    0.7560 ha        1 B97      0.144000
     31 H14        -2.5040   -1.8770   -1.0110 ha        1 B97      0.148000
     32 H20        -7.3410    1.3760   -0.3690 ha        1 B97      0.145000
     33 H24        -4.1240   -2.2560    0.5440 h4        1 B97      0.022100
     34 H3          3.8370   -2.2670   -1.7420 h1        1 B97      0.066700
     35 H3A         3.0180   -3.5140   -0.6980 h1        1 B97      0.066700
     36 H2          4.0430   -2.0950    1.3540 h1        1 B97      0.058700
     37 H22        -8.7450   -1.8290   -0.4750 hc        1 B97      0.054367
     38 H22A       -8.7370   -1.3550    1.2740 hc        1 B97      0.054367
     39 H22B       -9.0680   -0.1050   -0.0020 hc        1 B97      0.054367
     40 H1          5.6590   -3.9820   -0.5160 hc        1 B97      0.049033
     41 H1A         6.0800   -3.6030    1.2090 hc        1 B97      0.049033
     42 H1B         4.5190   -4.4340    0.8210 hc        1 B97      0.049033
     43 HN4         1.5600   -1.9740    0.0380 hn        1 B97      0.404800
     44 HN27        6.3760   -1.4890   -0.1400 hn        1 B97      0.316500
     45 H19        -4.8920    1.8950   -0.5150 ha        1 B97      0.155000
@<TRIPOS>BOND
     1    1    5 ar  
     2    1    8 ar  
     3    1   28 1   
     4    2    6 ar  
     5    2   10 ar  
     6    2   45 1   
     7    3    4 ar  
     8    3   11 ar  
     9    3   29 1   
    10    4   13 ar  
    11    4   30 1   
    12    5   14 ar  
    13    5   31 1   
    14    6   16 ar  
    15    6   32 1   
    16    7   10 ar  
    17    7   22 ar  
    18    7   33 1   
    19    8    9 ar  
    20    8   11 ar  
    21    9   12 1   
    22    9   13 ar  
    23   10   14 1   
    24   11   23 ar  
    25   12   15 2   
    26   12   24 1   
    27   13   27 1   
    28   14   23 ar  
    29   15   17 1   
    30   15   27 1   
    31   16   20 1   
    32   16   22 ar  
    33   17   25 1   
    34   17   26 2   
    35   18   19 1   
    36   18   24 1   
    37   18   34 1   
    38   18   35 1   
    39   19   21 1   
    40   19   25 1   
    41   19   36 1   
    42   20   37 1   
    43   20   38 1   
    44   20   39 1   
    45   21   40 1   
    46   21   41 1   
    47   21   42 1   
    48   24   43 1   
    49   25   44 1   
@<TRIPOS>SUBSTRUCTURE
     1 B97         1 TEMP              0 ****  ****    0 ROOT
