@<TRIPOS>MOLECULE
B97
   45    36     1     0     0
SMALL
bcc


@<TRIPOS>ATOM
      1 C15         0.6340   -0.2720   -0.4670 c1        1 B97     -0.102000
      2 C19         4.7460    1.0800    0.8080 c1        1 B97     -0.105250
      3 C10        -0.1970   -0.0490    3.1810 c1        1 B97     -0.105250
      4 C9         -1.6180   -0.0770    3.1410 c1        1 B97     -0.105250
      5 C14         1.9960   -0.3330   -0.4090 c1        1 B97     -0.105500
      6 C20         6.1050    1.0490    1.0430 c1        1 B97     -0.105250
      7 C24         4.6800   -1.3030    0.8590 c1        1 B97     -0.105500
      8 C16        -0.1110   -0.1460    0.7180 c1        1 B97     -0.022000
      9 C17        -1.5340   -0.1740    0.6770 c1        1 B97     -0.211500
     10 C18         4.0360   -0.0950    0.7170 c1        1 B97     -0.031000
     11 C11         0.5550   -0.0840    1.9580 c1        1 B97      0.003000
     12 C5         -2.5820   -0.3710   -0.5660 c1        1 B97      0.110000
     13 C8         -2.2880   -0.1390    1.9010 c1        1 B97     -0.211500
     14 C13         2.6570   -0.2700    0.8500 c1        1 B97     -0.031000
     15 C6         -3.9370   -0.4450   -0.0170 c1        1 B97     -0.551000
     16 C21         6.7510   -0.1610    1.1860 c1        1 B97     -0.001000
     17 C25        -4.7510   -0.4180   -0.9090 c1        1 B97      0.355000
     18 C3         -3.9920    0.4150   -2.9800 c3        1 B97     -0.076000
     19 C2         -5.2420    0.9200   -2.1420 c3        1 B97     -0.016000
     20 C22         8.2740   -0.4340    1.4320 c3        1 B97     -0.175000
     21 C1         -6.6590   -0.0260   -2.5790 c3        1 B97     -0.214000
     22 N23         6.0330   -1.3390    1.0930 n1        1 B97     -0.145000
     23 N12         1.9310   -0.1470    2.0060 n1        1 B97     -0.123000
     24 N4         -2.5470    0.5880   -2.0770 n2        1 B97     -0.302000
     25 N27        -5.0590    0.8020   -1.1620 n3        1 B97     -0.299000
     26 O26        -4.7430   -1.2800   -1.8000 o         1 B97     -0.275000
     27 S7         -3.8320   -0.3060    1.5320 s         1 B97      0.676000
     28 H15         0.1750   -0.3160   -1.3350 ha        1 B97      0.130000
     29 H19         4.2860    1.9370    0.7060 ha        1 B97      0.150000
     30 H10         0.2750   -0.0790    4.0540 ha        1 B97      0.150000
     31 H9         -2.1140   -0.0490    3.9460 ha        1 B97      0.150000
     32 H14         2.5430   -0.4550   -1.2680 ha        1 B97      0.154000
     33 H20         6.6210    1.9050    1.1110 ha        1 B97      0.150000
     34 H24         4.1950   -2.1000    0.7970 ha        1 B97      0.154000
     35 H3         -4.1160   -0.5100   -3.2110 h1        1 B97      0.092500
     36 H3A        -3.9240    0.9190   -3.7610 h1        1 B97      0.092500
     37 H2         -5.4090    1.8790   -2.3400 h1        1 B97      0.102000
     38 H22         8.5200   -0.1120    2.2960 hc        1 B97      0.094667
     39 H22A        8.8310    0.0520    0.7160 hc        1 B97      0.094667
     40 H22B        8.4390   -1.3550    1.3850 hc        1 B97      0.094667
     41 H1         -6.4050   -0.7420   -3.0960 hc        1 B97      0.088333
     42 H1A        -7.2740    0.5300   -3.0780 hc        1 B97      0.088333
     43 H1B        -7.0720   -0.3330   -1.8110 hc        1 B97      0.088333
     44 HN4        -1.8310    0.3240   -2.5930 hn        1 B97      0.218000
     45 HN27       -5.0490    1.5200   -0.5130 hn        1 B97      0.183000
@<TRIPOS>BOND
     1    1    8 1   
     2    1   28 1   
     3    2    6 1   
     4    2   29 1   
     5    3    4 1   
     6    3   30 1   
     7    4   31 1   
     8    5   14 1   
     9    5   32 1   
    10    6   33 1   
    11    7   10 1   
    12    7   34 1   
    13    8   11 1   
    14    9   13 1   
    15   11   23 1   
    16   12   15 1   
    17   15   27 1   
    18   16   20 1   
    19   16   22 1   
    20   17   25 1   
    21   17   26 1   
    22   18   19 1   
    23   18   24 1   
    24   18   35 1   
    25   18   36 1   
    26   19   21 1   
    27   19   25 1   
    28   19   37 1   
    29   20   38 1   
    30   20   39 1   
    31   20   40 1   
    32   21   41 1   
    33   21   42 1   
    34   21   43 1   
    35   24   44 1   
    36   25   45 1   
@<TRIPOS>SUBSTRUCTURE
     1 B97         1 TEMP              0 ****  ****    0 ROOT
