@<TRIPOS>MOLECULE
B98
   35    37     1     0     0
SMALL
bcc


@<TRIPOS>ATOM
      1 C4          0.1300    0.5100    0.1270 ca        1 B98     -0.155000
      2 C5          1.5060    0.6070    0.1960 ca        1 B98     -0.066000
      3 C19         0.0400   -0.3480    2.4200 ca        1 B98     -0.127000
      4 C18         1.4340   -0.2470    2.4800 ca        1 B98     -0.093800
      5 C17         2.3150   -0.5790    3.5990 cc        1 B98      0.224800
      6 C3         -0.6030    0.0320    1.2400 ca        1 B98      0.129100
      7 C6          2.1770    0.2300    1.3690 ca        1 B98     -0.094100
      8 C8          3.6500   -0.3520    3.2560 cd        1 B98     -0.293600
      9 C9          4.8570   -0.6760    4.0000 c         1 B98      0.736700
     10 C15         2.5460   -1.2610    5.9700 c3        1 B98      0.205800
     11 C12         3.6900   -0.2200    6.1310 c3        1 B98      0.045700
     12 C1         -2.6670    0.2350    0.0610 c3        1 B98      0.109700
     13 C13         3.9620   -0.0360    7.6440 c3        1 B98      0.094800
     14 N16         1.7800   -1.0120    4.7920 nu        1 B98     -0.766000
     15 N11         4.8930   -0.5530    5.4170 ns        1 B98     -0.580900
     16 N14         5.0380    0.9670    7.8930 nz        1 B98     -0.832600
     17 O10         5.9230   -1.0360    3.4730 o         1 B98     -0.572500
     18 O2         -1.9760   -0.0920    1.2640 os        1 B98     -0.324900
     19 S7          3.8180    0.2530    1.6790 ss        1 B98      0.147500
     20 H4         -0.3930    0.8030   -0.7960 ha        1 B98      0.154000
     21 H5          2.0800    0.9760   -0.6690 ha        1 B98      0.153000
     22 H19        -0.5590   -0.7120    3.2670 ha        1 B98      0.148000
     23 H15         2.9900   -2.3010    5.9700 h1        1 B98      0.055200
     24 H15A        1.8440   -1.1920    6.8510 h1        1 B98      0.055200
     25 H12         3.3270    0.7760    5.7210 h1        1 B98      0.104700
     26 H1         -3.7380    0.0310    0.3190 h1        1 B98      0.053033
     27 H1A        -2.3320   -0.4220   -0.7770 h1        1 B98      0.053033
     28 H1B        -2.5220    1.3120   -0.1950 h1        1 B98      0.053033
     29 H13         4.2750   -1.0100    8.1180 hx        1 B98      0.115200
     30 H13A        3.0180    0.3300    8.1400 hx        1 B98      0.115200
     31 HN16        0.8770   -1.4320    4.7530 hn        1 B98      0.457800
     32 HN11        5.4550   -1.2620    5.8470 hn        1 B98      0.291500
     33 HN14        5.1290    1.1490    8.8960 hn        1 B98      0.467133
     34 HN1A        4.8160    1.8430    7.4060 hn        1 B98      0.467133
     35 H143        5.9370    0.6230    7.5300 hn        1 B98      0.467133
@<TRIPOS>BOND
     1    1    2 ar  
     2    1    6 ar  
     3    1   20 1   
     4    2    7 ar  
     5    2   21 1   
     6    3    4 ar  
     7    3    6 ar  
     8    3   22 1   
     9    4    5 1   
    10    4    7 ar  
    11    5    8 2   
    12    5   14 1   
    13    6   18 1   
    14    7   19 1   
    15    8    9 1   
    16    8   19 1   
    17    9   15 1   
    18    9   17 2   
    19   10   11 1   
    20   10   14 1   
    21   10   23 1   
    22   10   24 1   
    23   11   13 1   
    24   11   15 1   
    25   11   25 1   
    26   12   18 1   
    27   12   26 1   
    28   12   27 1   
    29   12   28 1   
    30   13   16 1   
    31   13   29 1   
    32   13   30 1   
    33   14   31 1   
    34   15   32 1   
    35   16   33 1   
    36   16   34 1   
    37   16   35 1   
@<TRIPOS>SUBSTRUCTURE
     1 B98         1 TEMP              0 ****  ****    0 ROOT
