@<TRIPOS>MOLECULE
B98
   34    29     1     0     0
SMALL
bcc


@<TRIPOS>ATOM
      1 C4         -2.4650   -0.0680   -3.4520 c1        1 B98     -0.171000
      2 C5         -1.0770   -0.1450   -3.4810 c1        1 B98     -0.095500
      3 C19        -2.4300   -0.1330   -1.0120 c1        1 B98     -0.095500
      4 C18        -1.0310   -0.2100   -1.0340 c1        1 B98     -0.199500
      5 C17         0.0480   -0.2470    0.1540 c1        1 B98      0.089000
      6 C3         -3.1490   -0.0620   -2.2110 c1        1 B98      0.070000
      7 C6         -0.3460   -0.2170   -2.2630 c1        1 B98     -0.199500
      8 C8          1.3310   -0.2750   -0.4110 c1        1 B98     -0.503000
      9 C9          2.1600   -0.1470    0.4530 c1        1 B98      0.361000
     10 C15         1.0050    0.1100    2.8380 c3        1 B98     -0.082000
     11 C12         2.2030    0.8630    2.0690 c3        1 B98     -0.020000
     12 C1         -5.5130   -0.0940   -2.6640 c3        1 B98     -0.076000
     13 C13         3.6400   -0.0090    2.2890 c3        1 B98     -0.070000
     14 N16         0.0650   -0.8950    1.7270 n2        1 B98     -0.272000
     15 N11         1.9800    0.9370    1.0160 n3        1 B98     -0.321000
     16 N14         4.4110    0.5970    3.4370 n3        1 B98     -0.348000
     17 O10         2.5650   -1.0980    1.0510 o         1 B98     -0.270000
     18 O2         -4.4750   -0.0350   -1.6700 os        1 B98     -0.212000
     19 S7          1.1670   -0.2580   -1.9580 s         1 B98      0.580000
     20 H4         -2.9650   -0.0220   -4.2780 ha        1 B98      0.142000
     21 H5         -0.5870   -0.1470   -4.3690 ha        1 B98      0.145000
     22 H19        -2.8780   -0.1260   -0.2040 ha        1 B98      0.145000
     23 H15         1.3840   -0.4590    3.5510 h1        1 B98      0.085000
     24 H15A        0.4310    0.7600    3.2290 h1        1 B98      0.085000
     25 H12         2.3120    1.7770    2.4460 h1        1 B98      0.125000
     26 H1         -5.3170   -0.8230   -3.3040 h1        1 B98      0.085000
     27 H1A        -5.5520    0.7310   -3.1270 h1        1 B98      0.085000
     28 H1B        -6.3900   -0.2670   -2.2220 h1        1 B98      0.085000
     29 H13         4.1970    0.0350    1.4450 h1        1 B98      0.075500
     30 H13A        3.4190   -0.9880    2.5020 h1        1 B98      0.075500
     31 HN16        0.4120   -1.7250    1.7060 hn        1 B98      0.205000
     32 HN11        1.6110    1.6690    0.6210 hn        1 B98      0.182000
     33 HN14        4.6950   -0.0780    4.0160 hn        1 B98      0.156500
     34 HN1A        5.1380    1.0490    3.1120 hn        1 B98      0.156500
@<TRIPOS>BOND
     1    1    6 1   
     2    1   20 1   
     3    2    7 1   
     4    2   21 1   
     5    3    4 1   
     6    3   22 1   
     7    5    8 1   
     8    6   18 1   
     9    8   19 1   
    10    9   15 1   
    11    9   17 1   
    12   10   11 1   
    13   10   14 1   
    14   10   23 1   
    15   10   24 1   
    16   11   13 1   
    17   11   15 1   
    18   11   25 1   
    19   12   18 1   
    20   12   26 1   
    21   12   27 1   
    22   12   28 1   
    23   13   16 1   
    24   13   29 1   
    25   13   30 1   
    26   14   31 1   
    27   15   32 1   
    28   16   33 1   
    29   16   34 1   
@<TRIPOS>SUBSTRUCTURE
     1 B98         1 TEMP              0 ****  ****    0 ROOT
