@<TRIPOS>MOLECULE
B98
   35    37     1     0     0
SMALL
bcc


@<TRIPOS>ATOM
      1 C4          0.2700   -0.2020   -0.0040 ca        1 B98     -0.152000
      2 C5          1.6370   -0.3280    0.1470 ca        1 B98     -0.065000
      3 C19        -0.0070    0.1420    2.4060 ca        1 B98     -0.129000
      4 C18         1.3790    0.0130    2.5510 ca        1 B98     -0.088800
      5 C17         2.1690    0.0940    3.7680 cc        1 B98      0.189800
      6 C3         -0.5520    0.0320    1.1250 ca        1 B98      0.136100
      7 C6          2.2120   -0.2250    1.4230 ca        1 B98     -0.094100
      8 C8          3.5330   -0.0770    3.4810 cd        1 B98     -0.309600
      9 C9          4.5530   -0.0040    4.5100 c         1 B98      0.737700
     10 C15         2.2040   -0.2740    6.1840 c3        1 B98      0.166800
     11 C12         3.5300    0.4120    6.6500 c3        1 B98      0.039700
     12 C1         -2.5190    0.0850   -0.2250 c3        1 B98      0.108700
     13 C13         4.3140   -0.6310    7.5000 c3        1 B98      0.098800
     14 N16         1.6210    0.3490    5.0210 nh        1 B98     -0.723000
     15 N11         4.3430    0.9530    5.5760 n         1 B98     -0.553900
     16 N14         5.7900   -0.4390    7.4810 n4        1 B98     -0.835600
     17 O10         5.5740   -0.7110    4.5830 o         1 B98     -0.611500
     18 O2         -1.9220    0.1670    1.0670 os        1 B98     -0.321900
     19 S7          3.8270   -0.3520    1.8480 ss        1 B98      0.171500
     20 H4         -0.1780   -0.2830   -1.0060 ha        1 B98      0.157000
     21 H5          2.2780   -0.5080   -0.7300 ha        1 B98      0.155000
     22 H19        -0.6680    0.3320    3.2630 ha        1 B98      0.151000
     23 H15         2.4110   -1.3680    5.9890 h1        1 B98      0.064200
     24 H15A        1.4670   -0.1990    7.0310 h1        1 B98      0.064200
     25 H12         3.2600    1.2770    7.3260 h1        1 B98      0.096700
     26 H1         -3.6090    0.2330   -0.0110 h1        1 B98      0.054700
     27 H1A        -2.1340    0.8960   -0.8890 h1        1 B98      0.054700
     28 H1B        -2.3390   -0.9200   -0.6780 h1        1 B98      0.054700
     29 H13         3.9580   -0.5590    8.5660 hx        1 B98      0.107700
     30 H13A        4.1180   -1.6750    7.1170 hx        1 B98      0.107700
     31 HN16        0.6210    0.3650    5.0310 hn        1 B98      0.437800
     32 HN11        3.9490    1.8090    5.2240 hn        1 B98      0.314500
     33 HN14        6.2340   -1.0690    8.1520 hn        1 B98      0.471467
     34 HN1A        6.0240    0.5310    7.7130 hn        1 B98      0.471467
     35 H143        6.1570   -0.6370    6.5270 hn        1 B98      0.471467
@<TRIPOS>BOND
     1    1    2 ar  
     2    1    6 ar  
     3    1   20 1   
     4    2    7 ar  
     5    2   21 1   
     6    3    4 ar  
     7    3    6 ar  
     8    3   22 1   
     9    4    5 1   
    10    4    7 ar  
    11    5    8 2   
    12    5   14 1   
    13    6   18 1   
    14    7   19 1   
    15    8    9 1   
    16    8   19 1   
    17    9   15 1   
    18    9   17 2   
    19   10   11 1   
    20   10   14 1   
    21   10   23 1   
    22   10   24 1   
    23   11   13 1   
    24   11   15 1   
    25   11   25 1   
    26   12   18 1   
    27   12   26 1   
    28   12   27 1   
    29   12   28 1   
    30   13   16 1   
    31   13   29 1   
    32   13   30 1   
    33   14   31 1   
    34   15   32 1   
    35   16   33 1   
    36   16   34 1   
    37   16   35 1   
@<TRIPOS>SUBSTRUCTURE
     1 B98         1 TEMP              0 ****  ****    0 ROOT
