@<TRIPOS>MOLECULE
B98
   34    36     1     0     0
SMALL
bcc


@<TRIPOS>ATOM
      1 C4          3.8030   -0.5740    0.4590 ca        1 B98     -0.170000
      2 C5          2.8350   -1.5620    0.4540 ca        1 B98     -0.071000
      3 C19         2.1500    1.0950   -0.2370 ca        1 B98     -0.118000
      4 C18         1.1770    0.0910   -0.2340 ca        1 B98     -0.086800
      5 C17        -0.2480    0.2100   -0.5540 cc        1 B98      0.191800
      6 C3          3.4580    0.7520    0.1140 ca        1 B98      0.110100
      7 C6          1.5140   -1.2460    0.1090 ca        1 B98     -0.098100
      8 C8         -0.8790   -1.0230   -0.4230 cd        1 B98     -0.238600
      9 C9         -2.2860   -1.3590   -0.6500 c         1 B98      0.742700
     10 C15        -2.1840    1.6490   -1.0730 c3        1 B98      0.169800
     11 C12        -3.0290    0.9230    0.0120 c3        1 B98      0.074700
     12 C1          5.7090    1.4830    0.3950 c3        1 B98      0.113700
     13 C13        -4.3410    1.7300    0.2010 c3        1 B98      0.159800
     14 N16        -0.7690    1.4070   -1.0120 nh        1 B98     -0.714000
     15 N11        -3.2830   -0.4530   -0.3200 n         1 B98     -0.559900
     16 N14        -5.1010    1.3280    1.3550 n3        1 B98     -0.922800
     17 O10        -2.6470   -2.4760   -1.0830 o         1 B98     -0.648500
     18 O2          4.3560    1.8040    0.0950 os        1 B98     -0.329900
     19 S7          0.1880   -2.2620    0.0260 ss        1 B98      0.118500
     20 H4          4.8380   -0.8260    0.7320 ha        1 B98      0.141000
     21 H5          3.0980   -2.5970    0.7200 ha        1 B98      0.142000
     22 H19         1.9180    2.1330   -0.5110 ha        1 B98      0.147000
     23 H15        -2.5420    1.3350   -2.0960 h1        1 B98      0.059700
     24 H15A       -2.3520    2.7600   -0.9820 h1        1 B98      0.059700
     25 H12        -2.4570    0.9430    0.9900 h1        1 B98      0.081700
     26 H1          5.8000    1.0950    1.4390 h1        1 B98      0.045033
     27 H1A         6.1130    0.7420   -0.3360 h1        1 B98      0.045033
     28 H1B         6.2370    2.4650    0.2930 h1        1 B98      0.045033
     29 H13        -4.0560    2.8100    0.3580 h1        1 B98      0.032700
     30 H13A       -4.9330    1.6780   -0.7620 h1        1 B98      0.032700
     31 HN16       -0.2290    2.2020   -0.7380 hn        1 B98      0.412800
     32 HN11       -4.2030   -0.6890   -0.6170 hn        1 B98      0.310500
     33 HN14       -6.0050    1.7560    1.3460 hn        1 B98      0.360300
     34 HN1A       -5.2000    0.3360    1.4200 hn        1 B98      0.360300
@<TRIPOS>BOND
     1    1    2 ar  
     2    1    6 ar  
     3    1   20 1   
     4    2    7 ar  
     5    2   21 1   
     6    3    4 ar  
     7    3    6 ar  
     8    3   22 1   
     9    4    5 1   
    10    4    7 ar  
    11    5    8 2   
    12    5   14 1   
    13    6   18 1   
    14    7   19 1   
    15    8    9 1   
    16    8   19 1   
    17    9   15 1   
    18    9   17 2   
    19   10   11 1   
    20   10   14 1   
    21   10   23 1   
    22   10   24 1   
    23   11   13 1   
    24   11   15 1   
    25   11   25 1   
    26   12   18 1   
    27   12   26 1   
    28   12   27 1   
    29   12   28 1   
    30   13   16 1   
    31   13   29 1   
    32   13   30 1   
    33   14   31 1   
    34   15   32 1   
    35   16   33 1   
    36   16   34 1   
@<TRIPOS>SUBSTRUCTURE
     1 B98         1 TEMP              0 ****  ****    0 ROOT
