@<TRIPOS>MOLECULE
B98
   35    37     1     0     0
SMALL
bcc


@<TRIPOS>ATOM
      1 C4          0.2740   -0.1510   -0.0070 ca        1 B98     -0.152000
      2 C5          1.6440   -0.2440    0.1420 ca        1 B98     -0.065000
      3 C19        -0.0120    0.1220    2.4110 ca        1 B98     -0.129000
      4 C18         1.3770    0.0270    2.5530 ca        1 B98     -0.088800
      5 C17         2.1640    0.0970    3.7730 cc        1 B98      0.189800
      6 C3         -0.5540    0.0310    1.1270 ca        1 B98      0.136100
      7 C6          2.2160   -0.1590    1.4200 ca        1 B98     -0.094100
      8 C8          3.5320   -0.0300    3.4820 cd        1 B98     -0.310600
      9 C9          4.5500    0.0430    4.5130 c         1 B98      0.737700
     10 C15         2.2100   -0.3330    6.1780 c3        1 B98      0.166800
     11 C12         3.5160    0.3760    6.6630 c3        1 B98      0.039700
     12 C1         -2.5220    0.0660   -0.2230 c3        1 B98      0.108700
     13 C13         4.3280   -0.6670    7.4870 c3        1 B98      0.098800
     14 N16         1.6100    0.3040    5.0310 nh        1 B98     -0.723000
     15 N11         4.3140    0.9670    5.6040 n         1 B98     -0.553900
     16 N14         5.7980   -0.4350    7.4740 n4        1 B98     -0.835600
     17 O10         5.5900   -0.6370    4.5700 o         1 B98     -0.611500
     18 O2         -1.9270    0.1300    1.0720 os        1 B98     -0.321900
     19 S7          3.8340   -0.2540    1.8430 ss        1 B98      0.171500
     20 H4         -0.1720   -0.2180   -1.0120 ha        1 B98      0.157000
     21 H5          2.2900   -0.3840   -0.7400 ha        1 B98      0.155000
     22 H19        -0.6780    0.2720    3.2720 ha        1 B98      0.151000
     23 H15         2.4460   -1.4150    5.9550 h1        1 B98      0.064200
     24 H15A        1.4700   -0.3010    7.0270 h1        1 B98      0.064200
     25 H12         3.2220    1.2160    7.3610 h1        1 B98      0.096700
     26 H1         -2.1580    0.9040   -0.8650 h1        1 B98      0.054700
     27 H1A        -2.3140   -0.9220   -0.7010 h1        1 B98      0.054700
     28 H1B        -3.6150    0.1790   -0.0050 h1        1 B98      0.054700
     29 H13         4.1600   -1.7060    7.0780 hx        1 B98      0.107700
     30 H13A        3.9700   -0.6310    8.5540 hx        1 B98      0.107700
     31 HN16        0.6090    0.2930    5.0420 hn        1 B98      0.437800
     32 HN11        3.8970    1.8200    5.2740 hn        1 B98      0.314500
     33 HN14        6.0060    0.5350    7.7310 hn        1 B98      0.471467
     34 HN1A        6.2590   -1.0700    8.1290 hn        1 B98      0.471467
     35 H143        6.1700   -0.5990    6.5150 hn        1 B98      0.471467
@<TRIPOS>BOND
     1    1    2 ar  
     2    1    6 ar  
     3    1   20 1   
     4    2    7 ar  
     5    2   21 1   
     6    3    4 ar  
     7    3    6 ar  
     8    3   22 1   
     9    4    5 1   
    10    4    7 ar  
    11    5    8 2   
    12    5   14 1   
    13    6   18 1   
    14    7   19 1   
    15    8    9 1   
    16    8   19 1   
    17    9   15 1   
    18    9   17 2   
    19   10   11 1   
    20   10   14 1   
    21   10   23 1   
    22   10   24 1   
    23   11   13 1   
    24   11   15 1   
    25   11   25 1   
    26   12   18 1   
    27   12   26 1   
    28   12   27 1   
    29   12   28 1   
    30   13   16 1   
    31   13   29 1   
    32   13   30 1   
    33   14   31 1   
    34   15   32 1   
    35   16   33 1   
    36   16   34 1   
    37   16   35 1   
@<TRIPOS>SUBSTRUCTURE
     1 B98         1 TEMP              0 ****  ****    0 ROOT
