@<TRIPOS>MOLECULE
B99
   61    66     1     0     0
SMALL
bcc


@<TRIPOS>ATOM
      1 C1          0.3780    0.8920   -0.0250 c3        1 B99     -0.043900
      2 C2          1.1600   -0.2390   -0.5450 cc        1 B99     -0.085300
      3 N1          1.5360   -1.3570    0.1980 na        1 B99      0.061800
      4 N2          2.2490   -2.2500   -0.4770 nc        1 B99     -0.257400
      5 C3          2.3830   -1.7460   -1.7490 ca        1 B99     -0.079000
      6 C4          3.0550   -2.2620   -2.8940 ca        1 B99     -0.080000
      7 C5          3.0330   -1.5300   -4.0480 ca        1 B99     -0.125000
      8 C6          2.3520   -0.2720   -4.1410 cp        1 B99     -0.094000
      9 C7          1.6890    0.2590   -3.0560 ca        1 B99     -0.051000
     10 C8          1.6960   -0.4540   -1.8420 ca        1 B99     -0.152000
     11 C9          2.3330    0.4140   -5.4340 cp        1 B99     -0.124300
     12 C10         1.1870    0.2660   -6.2280 ca        1 B99     -0.097000
     13 C11         1.1450    0.8880   -7.4780 ca        1 B99     -0.097200
     14 O1         -0.0330    0.8270   -8.2170 os        1 B99     -0.341900
     15 C12         0.1030    0.2280   -9.5010 c3        1 B99      0.101400
     16 C13        -0.0570   -1.3000   -9.3920 c3        1 B99      0.084500
     17 N3         -1.2650   -1.6500   -8.5700 n4        1 B99     -0.831600
     18 C14        -0.1330   -1.9290  -10.7910 c3        1 B99     -0.011200
     19 C15        -0.4830   -3.3500  -10.7260 cc        1 B99     -0.248400
     20 C16         0.3950   -4.4380  -10.8170 cd        1 B99     -0.042100
     21 N4         -0.3100   -5.6290  -10.7150 na        1 B99     -0.167400
     22 C17        -1.6730   -5.3320  -10.5890 ca        1 B99     -0.047200
     23 C18        -2.7890   -6.1770  -10.4700 ca        1 B99     -0.112000
     24 C19        -4.0370   -5.5840  -10.3770 ca        1 B99     -0.105000
     25 C20        -4.1940   -4.1840  -10.4130 ca        1 B99     -0.118000
     26 C21        -3.1020   -3.3390  -10.5250 ca        1 B99     -0.150000
     27 C22        -1.8200   -3.8940  -10.5980 ca        1 B99     -0.118800
     28 C23         2.2510    1.6590   -7.8990 ca        1 B99      0.405200
     29 N5          3.3490    1.8070   -7.1540 nb        1 B99     -0.645000
     30 C24         3.4130    1.2040   -5.9290 ca        1 B99      0.548800
     31 C25         4.6290    1.4100   -5.1670 cc        1 B99     -0.325800
     32 C26         5.8710    1.9440   -5.7110 cc        1 B99     -0.220300
     33 C27         6.7650    2.0010   -4.6660 cd        1 B99      0.233600
     34 O2          6.1590    1.5390   -3.4910 os        1 B99     -0.347800
     35 C28         4.8610    1.1860   -3.8160 cd        1 B99      0.305600
     36 H1          0.9220    1.4040    0.8090 hc        1 B99      0.062700
     37 H1A        -0.6170    0.5520    0.3580 hc        1 B99      0.062700
     38 H1B         0.2100    1.6330   -0.8460 hc        1 B99      0.062700
     39 H4          3.5810   -3.2260   -2.8260 ha        1 B99      0.155000
     40 H5          3.5580   -1.8980   -4.9430 ha        1 B99      0.135000
     41 H7          1.1650    1.2250   -3.1170 ha        1 B99      0.141000
     42 H10         0.3290   -0.3120   -5.8560 ha        1 B99      0.134000
     43 H12         1.0960    0.4480   -9.9710 h1        1 B99      0.095200
     44 H12A       -0.7220    0.6850  -10.1120 h1        1 B99      0.095200
     45 H13         0.8300   -1.7250   -8.8330 hx        1 B99      0.111700
     46 HN3        -1.3410   -2.6730   -8.4940 hn        1 B99      0.463133
     47 HN3A       -2.1100   -1.2970   -9.0290 hn        1 B99      0.463133
     48 H14        -0.8880   -1.3750  -11.4150 hc        1 B99      0.086200
     49 H14A        0.8730   -1.7870  -11.2710 hc        1 B99      0.086200
     50 H16         1.4810   -4.4370  -10.9500 h4        1 B99      0.184000
     51 H18        -2.6750   -7.2700  -10.4630 ha        1 B99      0.155000
     52 H19        -4.9340   -6.2180  -10.2870 ha        1 B99      0.155000
     53 H20        -5.2110   -3.7630  -10.3670 ha        1 B99      0.148000
     54 H21        -3.2470   -2.2540  -10.6210 ha        1 B99      0.117000
     55 H23         2.2460    2.1850   -8.8710 h4        1 B99      0.035100
     56 H26         6.0320    2.2380   -6.7450 ha        1 B99      0.179000
     57 H27         7.7980    2.3130   -4.5420 h4        1 B99      0.066100
     58 H28         4.2680    0.8080   -2.9840 h4        1 B99      0.073100
     59 HN1         1.3270   -1.5170    1.1600 hn        1 B99      0.332700
     60 HN4         0.0680   -6.5370  -10.8110 hn        1 B99      0.321700
     61 H33        -1.1750   -1.2150   -7.6450 hn        1 B99      0.463133
@<TRIPOS>BOND
     1    1    2 1   
     2    1   36 1   
     3    1   37 1   
     4    1   38 1   
     5    2    3 1   
     6    2   10 2   
     7    3    4 1   
     8    3   59 1   
     9    4    5 2   
    10    5    6 ar  
    11    5   10 ar  
    12    6    7 ar  
    13    6   39 1   
    14    7    8 ar  
    15    7   40 1   
    16    8    9 ar  
    17    8   11 1   
    18    9   10 ar  
    19    9   41 1   
    20   11   12 ar  
    21   11   30 ar  
    22   12   13 ar  
    23   12   42 1   
    24   13   14 1   
    25   13   28 ar  
    26   14   15 1   
    27   15   16 1   
    28   15   43 1   
    29   15   44 1   
    30   16   17 1   
    31   16   18 1   
    32   16   45 1   
    33   17   46 1   
    34   17   47 1   
    35   17   61 1   
    36   18   19 1   
    37   18   48 1   
    38   18   49 1   
    39   19   20 2   
    40   19   27 1   
    41   20   21 1   
    42   20   50 1   
    43   21   22 1   
    44   21   60 1   
    45   22   23 ar  
    46   22   27 ar  
    47   23   24 ar  
    48   23   51 1   
    49   24   25 ar  
    50   24   52 1   
    51   25   26 ar  
    52   25   53 1   
    53   26   27 ar  
    54   26   54 1   
    55   28   29 ar  
    56   28   55 1   
    57   29   30 ar  
    58   30   31 1   
    59   31   32 1   
    60   31   35 2   
    61   32   33 2   
    62   32   56 1   
    63   33   34 1   
    64   33   57 1   
    65   34   35 1   
    66   35   58 1   
@<TRIPOS>SUBSTRUCTURE
     1 B99         1 TEMP              0 ****  ****    0 ROOT
