@<TRIPOS>MOLECULE
B99
   61    66     1     0     0
SMALL
bcc


@<TRIPOS>ATOM
      1 C1          0.3630    0.8800   -0.0210 c3        1 B99     -0.043900
      2 C2          1.1460   -0.2490   -0.5410 cc        1 B99     -0.085300
      3 N1          1.5220   -1.3690    0.2000 na        1 B99      0.061800
      4 N2          2.2360   -2.2600   -0.4760 nc        1 B99     -0.257400
      5 C3          2.3730   -1.7530   -1.7470 ca        1 B99     -0.079000
      6 C4          3.0470   -2.2670   -2.8910 ca        1 B99     -0.080000
      7 C5          3.0270   -1.5320   -4.0440 ca        1 B99     -0.125000
      8 C6          2.3460   -0.2740   -4.1350 cp        1 B99     -0.094000
      9 C7          1.6800    0.2540   -3.0510 ca        1 B99     -0.052000
     10 C8          1.6850   -0.4620   -1.8390 ca        1 B99     -0.152000
     11 C9          2.3280    0.4150   -5.4280 cp        1 B99     -0.124300
     12 C10         1.1840    0.2680   -6.2230 ca        1 B99     -0.097000
     13 C11         1.1440    0.8930   -7.4720 ca        1 B99     -0.097200
     14 O1         -0.0330    0.8330   -8.2130 os        1 B99     -0.341900
     15 C12         0.1060    0.2360   -9.4980 c3        1 B99      0.101400
     16 C13        -0.0570   -1.2920   -9.3920 c3        1 B99      0.084500
     17 N3         -1.2670   -1.6410   -8.5740 nz        1 B99     -0.831600
     18 C14        -0.1310   -1.9180  -10.7930 c3        1 B99     -0.011200
     19 C15        -0.4830   -3.3390  -10.7310 cc        1 B99     -0.248400
     20 C16         0.3940   -4.4280  -10.8210 cd        1 B99     -0.042100
     21 N4         -0.3120   -5.6180  -10.7230 na        1 B99     -0.167400
     22 C17        -1.6750   -5.3190  -10.6000 ca        1 B99     -0.047200
     23 C18        -2.7930   -6.1630  -10.4860 ca        1 B99     -0.112000
     24 C19        -4.0410   -5.5680  -10.3950 ca        1 B99     -0.105000
     25 C20        -4.1960   -4.1680  -10.4290 ca        1 B99     -0.118000
     26 C21        -3.1020   -3.3250  -10.5370 ca        1 B99     -0.150000
     27 C22        -1.8210   -3.8820  -10.6070 ca        1 B99     -0.118800
     28 C23         2.2510    1.6640   -7.8900 ca        1 B99      0.405200
     29 N5          3.3470    1.8110   -7.1430 nb        1 B99     -0.645000
     30 C24         3.4090    1.2050   -5.9190 ca        1 B99      0.548800
     31 C25         4.6230    1.4100   -5.1540 cc        1 B99     -0.325800
     32 C26         5.8670    1.9450   -5.6940 cc        1 B99     -0.220300
     33 C27         6.7590    2.0000   -4.6480 cd        1 B99      0.233600
     34 O2          6.1510    1.5360   -3.4750 os        1 B99     -0.347800
     35 C28         4.8540    1.1840   -3.8030 cd        1 B99      0.305600
     36 H1         -0.6330    0.5380    0.3590 hc        1 B99      0.062700
     37 H1A         0.1960    1.6230   -0.8410 hc        1 B99      0.062700
     38 H1B         0.9050    1.3910    0.8160 hc        1 B99      0.062700
     39 H4          3.5730   -3.2300   -2.8250 ha        1 B99      0.155000
     40 H5          3.5540   -1.8980   -4.9390 ha        1 B99      0.135000
     41 H7          1.1560    1.2200   -3.1110 ha        1 B99      0.141000
     42 H10         0.3250   -0.3110   -5.8540 ha        1 B99      0.134000
     43 H12         1.1000    0.4560   -9.9650 h1        1 B99      0.095200
     44 H12A       -0.7180    0.6960  -10.1100 h1        1 B99      0.095200
     45 H13         0.8280   -1.7190   -8.8320 hx        1 B99      0.111700
     46 HN3        -2.1110   -1.2860   -9.0350 hn        1 B99      0.463133
     47 HN3A       -1.1800   -1.2080   -7.6480 hn        1 B99      0.463133
     48 H14        -0.8830   -1.3620  -11.4170 hc        1 B99      0.086200
     49 H14A        0.8780   -1.7770  -11.2700 hc        1 B99      0.086200
     50 H16         1.4810   -4.4280  -10.9510 h4        1 B99      0.184000
     51 H18        -2.6800   -7.2560  -10.4800 ha        1 B99      0.155000
     52 H19        -4.9390   -6.2020  -10.3090 ha        1 B99      0.155000
     53 H20        -5.2120   -3.7460  -10.3850 ha        1 B99      0.148000
     54 H21        -3.2450   -2.2390  -10.6320 ha        1 B99      0.117000
     55 H23         2.2470    2.1930   -8.8610 h4        1 B99      0.035100
     56 H26         6.0290    2.2420   -6.7280 ha        1 B99      0.179000
     57 H27         7.7920    2.3120   -4.5220 h4        1 B99      0.066100
     58 H28         4.2590    0.8030   -2.9730 h4        1 B99      0.073100
     59 HN1         1.3120   -1.5310    1.1610 hn        1 B99      0.331700
     60 HN4         0.0640   -6.5260  -10.8190 hn        1 B99      0.321700
     61 H33        -1.3460   -2.6640   -8.5000 hn        1 B99      0.463133
@<TRIPOS>BOND
     1    1    2 1   
     2    1   36 1   
     3    1   37 1   
     4    1   38 1   
     5    2    3 1   
     6    2   10 2   
     7    3    4 1   
     8    3   59 1   
     9    4    5 2   
    10    5    6 ar  
    11    5   10 ar  
    12    6    7 ar  
    13    6   39 1   
    14    7    8 ar  
    15    7   40 1   
    16    8    9 ar  
    17    8   11 1   
    18    9   10 ar  
    19    9   41 1   
    20   11   12 ar  
    21   11   30 ar  
    22   12   13 ar  
    23   12   42 1   
    24   13   14 1   
    25   13   28 ar  
    26   14   15 1   
    27   15   16 1   
    28   15   43 1   
    29   15   44 1   
    30   16   17 1   
    31   16   18 1   
    32   16   45 1   
    33   17   46 1   
    34   17   47 1   
    35   17   61 1   
    36   18   19 1   
    37   18   48 1   
    38   18   49 1   
    39   19   20 2   
    40   19   27 1   
    41   20   21 1   
    42   20   50 1   
    43   21   22 1   
    44   21   60 1   
    45   22   23 ar  
    46   22   27 ar  
    47   23   24 ar  
    48   23   51 1   
    49   24   25 ar  
    50   24   52 1   
    51   25   26 ar  
    52   25   53 1   
    53   26   27 ar  
    54   26   54 1   
    55   28   29 ar  
    56   28   55 1   
    57   29   30 ar  
    58   30   31 1   
    59   31   32 1   
    60   31   35 2   
    61   32   33 2   
    62   32   56 1   
    63   33   34 1   
    64   33   57 1   
    65   34   35 1   
    66   35   58 1   
@<TRIPOS>SUBSTRUCTURE
     1 B99         1 TEMP              0 ****  ****    0 ROOT
