@<TRIPOS>MOLECULE
B99
   60    48     1     0     0
SMALL
bcc


@<TRIPOS>ATOM
      1 C1          3.6500    0.7040    5.3960 c3        1 B99     -0.160000
      2 C2          2.3630    1.4650    5.3770 c2        1 B99     -0.067000
      3 N1          1.9300    1.7140    6.6350 n2        1 B99     -0.104000
      4 N2          0.7370    2.3910    6.5480 n2        1 B99     -0.093000
      5 C3          0.4390    2.5570    5.2250 c1        1 B99     -0.077000
      6 C4         -0.6360    3.1900    4.5750 c1        1 B99     -0.094000
      7 C5         -0.6790    3.2350    3.1910 c1        1 B99     -0.120000
      8 C6          0.3350    2.6560    2.4470 c1        1 B99     -0.070000
      9 C7          1.3940    2.0330    3.0880 c1        1 B99     -0.050000
     10 C8          1.4370    1.9880    4.4950 c1        1 B99     -0.136000
     11 C9          0.2530    2.6700    1.0570 c1        1 B99     -0.001500
     12 C10        -0.4130    1.6680    0.4000 c1        1 B99     -0.160000
     13 C11        -0.4450    1.6530   -0.9680 c1        1 B99      0.023000
     14 O1         -1.1960    0.6410   -1.6580 o         1 B99     -0.212000
     15 C12        -0.4080   -0.1640   -2.5450 c3        1 B99     -0.070000
     16 C13        -1.2670   -1.3070   -3.0950 c3        1 B99     -0.031000
     17 N3         -1.5830   -1.0510   -4.4540 n3        1 B99     -0.334000
     18 C14        -0.5060   -2.6030   -2.9940 c3        1 B99     -0.078000
     19 C15        -1.4790   -3.7450   -2.8050 c2        1 B99     -0.160000
     20 C16        -2.3820   -3.6600   -1.7680 c1        1 B99     -0.047000
     21 N4         -3.1420   -4.7970   -1.7750 n2        1 B99     -0.219000
     22 C17        -2.7130   -5.5940   -2.8210 c1        1 B99     -0.004000
     23 C18        -3.1620   -6.8360   -3.3030 c1        1 B99     -0.126500
     24 C19        -2.5670   -7.4030   -4.4210 c1        1 B99     -0.126500
     25 C20        -1.5290   -6.7440   -5.0640 c1        1 B99     -0.126500
     26 C21        -1.0850   -5.5200   -4.5890 c1        1 B99     -0.126500
     27 C22        -1.6880   -4.9440   -3.4550 c1        1 B99     -0.076000
     28 C23         0.1960    2.6500   -1.6860 c2        1 B99     -0.080000
     29 N5          0.8570    3.6450   -1.0310 n1        1 B99     -0.113000
     30 C24         0.8910    3.6620    0.3370 c1        1 B99     -0.001500
     31 C25         1.6220    4.6320    0.9970 c1        1 B99     -0.136000
     32 C26         2.9850    4.7510    0.9920 c1        1 B99     -0.136000
     33 C27         3.3130    5.9210    1.6490 c1        1 B99     -0.086000
     34 O2          2.1480    6.5190    2.0570 os        1 B99     -0.103000
     35 C28         1.1010    5.7280    1.6570 c1        1 B99     -0.086000
     36 H1          4.3700    1.2890    5.7120 hc        1 B99      0.096667
     37 H1A         3.5660   -0.0640    5.9960 hc        1 B99      0.096667
     38 H1B         3.8570    0.3910    4.4920 hc        1 B99      0.096667
     39 H4         -1.3500    3.5970    5.0970 ha        1 B99      0.148000
     40 H5         -1.4240    3.6730    2.7400 ha        1 B99      0.139000
     41 H7          2.1100    1.6240    2.5630 ha        1 B99      0.141000
     42 H10        -0.9230    1.0130    0.9040 ha        1 B99      0.149000
     43 H12         0.3600   -0.5360   -2.0550 h1        1 B99      0.084500
     44 H12A       -0.0840    0.3920   -3.2920 h1        1 B99      0.084500
     45 H13        -2.0930   -1.3740   -2.5750 h1        1 B99      0.122000
     46 HN3        -0.9040   -0.5720   -4.8400 hn        1 B99      0.148500
     47 HN3A       -2.3600   -0.5700   -4.5000 hn        1 B99      0.148500
     48 H14         0.1000   -2.5640   -2.2340 hc        1 B99      0.087000
     49 H14A        0.0060   -2.7440   -3.8110 hc        1 B99      0.087000
     50 H16        -2.4680   -2.9180   -1.1440 DU        1 B99      0.212167
     51 H18        -3.8930   -7.3000   -2.8510 ha        1 B99      0.129000
     52 H19        -2.8790   -8.2650   -4.7560 ha        1 B99      0.129000
     53 H20        -1.1090   -7.1440   -5.8530 ha        1 B99      0.129000
     54 H21        -0.3540   -5.0560   -5.0420 ha        1 B99      0.129000
     55 H23         0.1730    2.6390   -2.6610 h4        1 B99      0.174000
     56 H26         3.6160    4.1190    0.5940 DU        1 B99      0.212167
     57 H27         4.2170    6.2640    1.7970 DU        1 B99      0.212167
     58 H28         0.1480    5.9100    1.8140 DU        1 B99      0.212167
     59 HN1         2.3600    1.4830    7.4060 DU        1 B99      0.212167
     60 HN4        -3.8140   -4.9940   -1.1930 DU        1 B99      0.212167
@<TRIPOS>BOND
     1    1    2 1   
     2    1   36 1   
     3    1   37 1   
     4    1   38 1   
     5    2    3 1   
     6    2   10 1   
     7    3    4 1   
     8    4    5 1   
     9    5    6 1   
    10    6   39 1   
    11    7    8 1   
    12    7   40 1   
    13    9   10 1   
    14    9   41 1   
    15   11   30 1   
    16   12   13 1   
    17   12   42 1   
    18   13   28 1   
    19   14   15 1   
    20   15   16 1   
    21   15   43 1   
    22   15   44 1   
    23   16   17 1   
    24   16   18 1   
    25   16   45 1   
    26   17   46 1   
    27   17   47 1   
    28   18   19 1   
    29   18   48 1   
    30   18   49 1   
    31   19   20 1   
    32   19   27 1   
    33   20   21 1   
    34   21   22 1   
    35   22   27 1   
    36   23   24 1   
    37   23   51 1   
    38   24   52 1   
    39   25   26 1   
    40   25   53 1   
    41   26   54 1   
    42   28   29 1   
    43   28   55 1   
    44   31   32 1   
    45   31   35 1   
    46   32   33 1   
    47   33   34 1   
    48   34   35 1   
@<TRIPOS>SUBSTRUCTURE
     1 B99         1 TEMP              0 ****  ****    0 ROOT
