@<TRIPOS>MOLECULE
B99
   60    65     1     0     0
SMALL
bcc


@<TRIPOS>ATOM
      1 C1          4.9000    4.3990   -1.2800 c3        1 B99     -0.037900
      2 C2          5.3780    3.4910   -0.2280 cc        1 B99     -0.102300
      3 N1          6.4920    3.7210    0.5800 na        1 B99      0.051800
      4 N2          6.7340    2.7620    1.4650 nc        1 B99     -0.273400
      5 C3          5.7540    1.8150    1.2760 ca        1 B99     -0.074000
      6 C4          5.5090    0.5760    1.9340 ca        1 B99     -0.094000
      7 C5          4.4430   -0.1790    1.5290 ca        1 B99     -0.106000
      8 C6          3.5670    0.2390    0.4740 cp        1 B99     -0.062000
      9 C7          3.7660    1.4350   -0.1790 ca        1 B99     -0.067000
     10 C8          4.8590    2.2410    0.1970 ca        1 B99     -0.137000
     11 C9          2.4140   -0.6020    0.1410 cp        1 B99     -0.112300
     12 C10         1.1360   -0.1000    0.4110 ca        1 B99     -0.114000
     13 C11         0.0180   -0.9020    0.1360 ca        1 B99      0.007800
     14 O1         -1.2080   -0.3610    0.4460 os        1 B99     -0.307900
     15 C12        -2.3440   -1.1060   -0.0100 c3        1 B99      0.130400
     16 C13        -3.5700   -0.2180    0.2900 c3        1 B99      0.164500
     17 N3         -3.7830    0.7780   -0.7390 n3        1 B99     -0.890800
     18 C14        -4.7660   -1.1590    0.5540 c3        1 B99     -0.046200
     19 C15        -5.9960   -0.4190    0.8570 cc        1 B99     -0.152400
     20 C16        -6.4790   -0.0920    2.1260 cd        1 B99     -0.093100
     21 N4         -7.6840    0.6050    2.0180 na        1 B99     -0.190400
     22 C17        -7.9980    0.7360    0.6630 ca        1 B99     -0.045200
     23 C18        -9.0920    1.3460    0.0280 ca        1 B99     -0.141000
     24 C19        -9.1330    1.3120   -1.3570 ca        1 B99     -0.112000
     25 C20        -8.1210    0.6900   -2.1110 ca        1 B99     -0.152000
     26 C21        -7.0350    0.0850   -1.4970 ca        1 B99     -0.092000
     27 C22        -6.9500    0.0980   -0.1040 ca        1 B99     -0.095800
     28 C23         0.2290   -2.1910   -0.4040 ca        1 B99      0.332200
     29 N5          1.4460   -2.6750   -0.6800 nb        1 B99     -0.638000
     30 C24         2.5360   -1.9010   -0.4270 ca        1 B99      0.473800
     31 C25         3.8320   -2.4590   -0.7770 cc        1 B99     -0.284800
     32 C26         4.1430   -3.8780   -0.8480 cc        1 B99     -0.224300
     33 C27         5.4580   -3.9730   -1.2440 cd        1 B99      0.217600
     34 O2          5.9980   -2.6970   -1.4340 os        1 B99     -0.362800
     35 C28         4.9870   -1.7880   -1.1460 cd        1 B99      0.272600
     36 H1          5.6790    4.5420   -2.0720 hc        1 B99      0.056700
     37 H1A         3.9860    3.9620   -1.7560 hc        1 B99      0.056700
     38 H1B         4.6370    5.4010   -0.8580 hc        1 B99      0.056700
     39 H4          6.1730    0.2520    2.7470 ha        1 B99      0.147000
     40 H5          4.2310   -1.1440    2.0170 ha        1 B99      0.143000
     41 H7          3.0910    1.7700   -0.9810 ha        1 B99      0.139000
     42 H10         1.0010    0.9040    0.8400 ha        1 B99      0.161000
     43 H12        -2.2430   -1.3350   -1.1020 h1        1 B99      0.042700
     44 H12A       -2.4050   -2.0630    0.5730 h1        1 B99      0.042700
     45 H13        -3.3530    0.3490    1.2460 h1        1 B99      0.081700
     46 HN3        -3.9730    0.3400   -1.6200 hn        1 B99      0.351300
     47 HN3A       -4.5670    1.3540   -0.4940 hn        1 B99      0.351300
     48 H14        -4.9320   -1.8100   -0.3470 hc        1 B99      0.051200
     49 H14A       -4.5060   -1.8310    1.4150 hc        1 B99      0.051200
     50 H16        -6.0480   -0.3100    3.1050 h4        1 B99      0.168000
     51 H18        -9.8860    1.8320    0.6090 ha        1 B99      0.134000
     52 H19        -9.9780    1.7820   -1.8840 ha        1 B99      0.131000
     53 H20        -8.2000    0.6870   -3.2080 ha        1 B99      0.131000
     54 H21        -6.2490   -0.4040   -2.0910 ha        1 B99      0.130000
     55 H23        -0.6120   -2.8690   -0.6290 h4        1 B99      0.023100
     56 H26         3.4460   -4.6830   -0.6310 ha        1 B99      0.173000
     57 H27         6.1520   -4.7850   -1.4380 h4        1 B99      0.052100
     58 H28         5.2670   -0.7420   -1.2460 h4        1 B99      0.065100
     59 HN1         7.0870    4.5170    0.5390 hn        1 B99      0.321700
     60 HN4        -8.2230    0.9470    2.7660 hn        1 B99      0.300700
@<TRIPOS>BOND
     1    1    2 1   
     2    1   36 1   
     3    1   37 1   
     4    1   38 1   
     5    2    3 1   
     6    2   10 2   
     7    3    4 1   
     8    3   59 1   
     9    4    5 2   
    10    5    6 ar  
    11    5   10 ar  
    12    6    7 ar  
    13    6   39 1   
    14    7    8 ar  
    15    7   40 1   
    16    8    9 ar  
    17    8   11 1   
    18    9   10 ar  
    19    9   41 1   
    20   11   12 ar  
    21   11   30 ar  
    22   12   13 ar  
    23   12   42 1   
    24   13   14 1   
    25   13   28 ar  
    26   14   15 1   
    27   15   16 1   
    28   15   43 1   
    29   15   44 1   
    30   16   17 1   
    31   16   18 1   
    32   16   45 1   
    33   17   46 1   
    34   17   47 1   
    35   18   19 1   
    36   18   48 1   
    37   18   49 1   
    38   19   20 2   
    39   19   27 1   
    40   20   21 1   
    41   20   50 1   
    42   21   22 1   
    43   21   60 1   
    44   22   23 ar  
    45   22   27 ar  
    46   23   24 ar  
    47   23   51 1   
    48   24   25 ar  
    49   24   52 1   
    50   25   26 ar  
    51   25   53 1   
    52   26   27 ar  
    53   26   54 1   
    54   28   29 ar  
    55   28   55 1   
    56   29   30 ar  
    57   30   31 1   
    58   31   32 1   
    59   31   35 2   
    60   32   33 2   
    61   32   56 1   
    62   33   34 1   
    63   33   57 1   
    64   34   35 1   
    65   35   58 1   
@<TRIPOS>SUBSTRUCTURE
     1 B99         1 TEMP              0 ****  ****    0 ROOT
