@<TRIPOS>MOLECULE
B9A
  120   126     1     0     0
SMALL
bcc


@<TRIPOS>ATOM
      1 C1A        -1.3310    0.6470    0.6240 ca        1 B9A     -0.085000
      2 C2A        -0.2610    1.4750    0.7980 ca        1 B9A     -0.134000
      3 C3A         0.4270    1.5030    2.0390 ca        1 B9A     -0.089000
      4 C4A         0.0210    0.7280    3.0950 ca        1 B9A     -0.147600
      5 C5A        -2.9840   -2.5360    5.0010 ca        1 B9A     -0.190300
      6 C6A        -4.0320   -3.4010    4.9020 ca        1 B9A     -0.074000
      7 C7A        -4.7660   -3.5150    3.6850 ca        1 B9A     -0.074000
      8 C8A        -4.4180   -2.7710    2.5940 ca        1 B9A     -0.145000
      9 C9A        -2.8940   -1.0900    1.5210 ca        1 B9A      0.141600
     10 N9A        -3.4980   -1.2510    0.2330 nu        1 B9A     -0.748600
     11 NAA        -1.5370   -0.8790    4.0150 nb        1 B9A     -0.700000
     12 CBA        -2.5820   -1.7260    3.8720 ca        1 B9A      0.451600
     13 CCA        -3.3120   -1.8630    2.6340 ca        1 B9A     -0.150300
     14 CDA        -1.8050   -0.1910    1.6770 ca        1 B9A     -0.145300
     15 CEA        -1.1400   -0.1390    2.9560 ca        1 B9A      0.440600
     16 C15        -4.5390   -0.2780   -0.0640 c3        1 B9A      0.136800
     17 C16        -5.3340   -0.5880   -1.3310 c3        1 B9A     -0.125400
     18 C17        -4.5550   -1.1750   -2.4980 c3        1 B9A      0.110800
     19 N18        -3.2010   -0.5640   -2.6950 ny        1 B9A     -0.764000
     20 C19        -2.6870   -0.7260   -4.0910 c3        1 B9A      0.101800
     21 C20        -3.0170    0.4320   -5.0280 c3        1 B9A     -0.111400
     22 C21        -1.9480    1.5080   -5.0050 c3        1 B9A     -0.113400
     23 C22        -2.3010    2.6160   -5.9970 c3        1 B9A      0.102800
     24 N23        -1.2190    3.6300   -6.1320 ny        1 B9A     -0.774000
     25 C24        -1.6620    4.8550   -6.8750 c3        1 B9A      0.116800
     26 C25        -0.5490    5.8840   -7.0120 c3        1 B9A     -0.120400
     27 C26        -0.1040    6.4950   -5.6850 c3        1 B9A      0.131800
     28 C28         0.8240    0.7140    4.3350 c3        1 B9A      0.117000
     29 S29         0.2280    1.8910    5.5750 ss        1 B9A     -0.484200
     30 C30        -0.3530    0.9050    6.9290 c3        1 B9A     -0.018300
     31 C31         0.7100    0.6440    7.9780 c3        1 B9A      0.105800
     32 N32         1.0040    1.8030    8.8820 ny        1 B9A     -0.677800
     33 C33         1.8550    2.8830    8.2420 c         1 B9A      0.539100
     34 O34         2.8760    2.5170    7.6850 o         1 B9A     -0.371100
     35 C35         1.3810    4.3020    8.4150 c3        1 B9A     -0.163400
     36 C36         0.3650    4.7170    7.3690 c3        1 B9A     -0.129400
     37 C37         1.0600    5.0040    6.0280 c3        1 B9A      0.339300
     38 O38         1.8130    6.1790    6.0220 oh        1 B9A     -0.536800
     39 N39         0.0820    5.0180    4.8590 ny        1 B9A     -0.817000
     40 C40        -0.8780    6.1580    4.8630 c3        1 B9A      0.104800
     41 C41        -1.8460    6.0960    3.6920 c3        1 B9A     -0.056300
     42 S42        -1.0610    5.5600    2.2010 ss        1 B9A     -0.359200
     43 C43        -1.0440    7.0040    1.1270 c3        1 B9A      0.085000
     44 C1B         3.1620    6.2790   -3.8070 ca        1 B9A     -0.148000
     45 C2B         4.4000    6.5400   -3.2920 ca        1 B9A     -0.076000
     46 C3B         4.5710    6.7690   -1.8960 ca        1 B9A     -0.085000
     47 C4B         3.4990    6.7540   -1.0550 ca        1 B9A     -0.182300
     48 C5B        -1.2560    6.5400   -0.2640 ca        1 B9A     -0.126600
     49 C6B        -2.5340    6.3340   -0.7170 ca        1 B9A     -0.086000
     50 C7B        -2.7850    5.9440   -2.0590 ca        1 B9A     -0.131000
     51 C8B        -1.7520    5.7920   -2.9380 ca        1 B9A     -0.115000
     52 C9B         0.6980    5.9430   -3.4450 ca        1 B9A      0.131600
     53 NAB         1.1240    6.5590   -0.7020 nb        1 B9A     -0.677000
     54 CBB        -0.1290    6.3710   -1.1700 ca        1 B9A      0.435600
     55 CCB        -0.3990    6.0230   -2.5450 ca        1 B9A     -0.158300
     56 CDB         2.0030    6.2310   -2.9680 ca        1 B9A     -0.152300
     57 CEB         2.1660    6.5050   -1.5610 ca        1 B9A      0.444600
     58 N9B         0.4880    5.5050   -4.7880 nu        1 B9A     -0.762600
     59 H1A        -1.8390    0.6200   -0.3520 ha        1 B9A      0.098000
     60 H2A         0.1020    2.1220   -0.0150 ha        1 B9A      0.144000
     61 H3A         1.3210    2.1440    2.1210 ha        1 B9A      0.143000
     62 H5A        -2.4130   -2.4490    5.9390 ha        1 B9A      0.151000
     63 H6A        -4.3320   -4.0290    5.7600 ha        1 B9A      0.174000
     64 H7A        -5.6170   -4.2160    3.6460 ha        1 B9A      0.173000
     65 H8A        -5.0140   -2.8740    1.6750 ha        1 B9A      0.131000
     66 H9A        -3.8610   -2.1880    0.1480 hn        1 B9A      0.391800
     67 H151       -5.2860   -0.1790    0.7800 h1        1 B9A      0.063700
     68 H152       -4.0360    0.7270   -0.1670 h1        1 B9A      0.063700
     69 H161       -6.1480   -1.3300   -1.0930 hc        1 B9A      0.101200
     70 H162       -5.8440    0.3620   -1.6490 hc        1 B9A      0.101200
     71 H171       -4.3990   -2.2840   -2.3500 hx        1 B9A      0.114700
     72 H172       -5.1510   -1.0260   -3.4460 hx        1 B9A      0.114700
     73 H18        -2.5440   -1.0140   -2.0380 hn        1 B9A      0.458300
     74 H191       -1.5670   -0.8610   -4.0270 hx        1 B9A      0.122200
     75 H192       -3.1250   -1.6810   -4.5110 hx        1 B9A      0.122200
     76 H201       -4.0230    0.8740   -4.7980 hc        1 B9A      0.098200
     77 H202       -3.0850   -0.0000   -6.0680 hc        1 B9A      0.098200
     78 H211       -1.8560    1.9380   -3.9730 hc        1 B9A      0.067200
     79 H212       -0.9570    1.0500   -5.2740 hc        1 B9A      0.067200
     80 H221       -3.2380    3.1470   -5.6600 hx        1 B9A      0.114700
     81 H222       -2.4980    2.1750   -7.0190 hx        1 B9A      0.114700
     82 H23        -0.4200    3.2160   -6.6250 hn        1 B9A      0.465300
     83 H241       -2.0160    4.5350   -7.8970 hx        1 B9A      0.110200
     84 H242       -2.5310    5.3010   -6.3100 hx        1 B9A      0.110200
     85 H251        0.3270    5.4500   -7.5640 hc        1 B9A      0.105700
     86 H252       -0.9570    6.7190   -7.6520 hc        1 B9A      0.105700
     87 H261        0.6250    7.3280   -5.9220 h1        1 B9A      0.085700
     88 H262       -0.9870    6.9720   -5.1710 h1        1 B9A      0.085700
     89 H281        0.8630   -0.3040    4.7940 h1        1 B9A      0.104700
     90 H282        1.8750    1.0490    4.1330 h1        1 B9A      0.104700
     91 H301       -0.7020   -0.0950    6.5460 h1        1 B9A      0.127700
     92 H302       -1.2500    1.4230    7.3530 h1        1 B9A      0.127700
     93 H311        0.3670   -0.2080    8.6430 hx        1 B9A      0.134700
     94 H312        1.6840    0.3430    7.4860 hx        1 B9A      0.134700
     95 H32         1.5240    1.4380    9.6970 hn        1 B9A      0.472300
     96 H351        2.2980    4.9620    8.3450 hc        1 B9A      0.139200
     97 H352        0.9470    4.4550    9.4440 hc        1 B9A      0.139200
     98 H361       -0.1580    5.6440    7.7360 hc        1 B9A      0.092200
     99 H362       -0.4110    3.9140    7.2410 hc        1 B9A      0.092200
    100 HC37        1.8060    4.1740    5.7830 hx        1 B9A      0.145700
    101 HO38        1.3670    6.8740    6.5350 ho        1 B9A      0.448000
    102 H39         0.6170    5.0820    3.9700 hn        1 B9A      0.474800
    103 H401       -1.4540    6.1380    5.8320 hx        1 B9A      0.107700
    104 H402       -0.2730    7.1110    4.8190 hx        1 B9A      0.107700
    105 H411       -2.3230    7.1040    3.5820 h1        1 B9A      0.116700
    106 H412       -2.6660    5.3620    3.9070 h1        1 B9A      0.116700
    107 H431       -0.0710    7.5380    1.2590 h1        1 B9A      0.101700
    108 H432       -1.8670    7.6970    1.4370 h1        1 B9A      0.101700
    109 H3B         5.5860    6.9740   -1.5150 ha        1 B9A      0.170000
    110 H4B         3.6220    6.9540    0.0220 ha        1 B9A      0.159000
    111 H6B        -3.3980    6.4870   -0.0480 ha        1 B9A      0.152000
    112 H7B        -3.8300    5.8000   -2.3750 ha        1 B9A      0.146000
    113 H8B        -1.9740    5.5150   -3.9790 ha        1 B9A      0.103000
    114 H9B         1.3580    5.1810   -5.1790 hn        1 B9A      0.384800
    115 H1B         3.0660    6.1410   -4.8950 ha        1 B9A      0.132000
    116 H182       -3.2470    0.4310   -2.4530 hn        1 B9A      0.458300
    117 H232       -0.8860    3.9270   -5.1930 hn        1 B9A      0.465300
    118 H322        0.1250    2.2100    9.2170 hn        1 B9A      0.472300
    119 H392       -0.4300    4.1200    4.8610 hn        1 B9A      0.474800
    120 H2B         5.2860    6.5910   -3.9480 ha        1 B9A      0.170000
@<TRIPOS>BOND
     1    1    2 ar  
     2    1   14 ar  
     3    1   59 1   
     4    2    3 ar  
     5    2   60 1   
     6    3    4 ar  
     7    3   61 1   
     8    4   15 ar  
     9    4   28 1   
    10    5    6 ar  
    11    5   12 ar  
    12    5   62 1   
    13    6    7 ar  
    14    6   63 1   
    15    7    8 ar  
    16    7   64 1   
    17    8   13 ar  
    18    8   65 1   
    19    9   10 1   
    20    9   13 ar  
    21    9   14 ar  
    22   10   16 1   
    23   10   66 1   
    24   11   12 ar  
    25   11   15 ar  
    26   12   13 ar  
    27   14   15 ar  
    28   16   17 1   
    29   16   67 1   
    30   16   68 1   
    31   17   18 1   
    32   17   69 1   
    33   17   70 1   
    34   18   19 1   
    35   18   71 1   
    36   18   72 1   
    37   19   20 1   
    38   19   73 1   
    39   19  116 1   
    40   20   21 1   
    41   20   74 1   
    42   20   75 1   
    43   21   22 1   
    44   21   76 1   
    45   21   77 1   
    46   22   23 1   
    47   22   78 1   
    48   22   79 1   
    49   23   24 1   
    50   23   80 1   
    51   23   81 1   
    52   24   25 1   
    53   24   82 1   
    54   24  117 1   
    55   25   26 1   
    56   25   83 1   
    57   25   84 1   
    58   26   27 1   
    59   26   85 1   
    60   26   86 1   
    61   27   58 1   
    62   27   87 1   
    63   27   88 1   
    64   28   29 1   
    65   28   89 1   
    66   28   90 1   
    67   29   30 1   
    68   30   31 1   
    69   30   91 1   
    70   30   92 1   
    71   31   32 1   
    72   31   93 1   
    73   31   94 1   
    74   32   33 1   
    75   32   95 1   
    76   32  118 1   
    77   33   34 2   
    78   33   35 1   
    79   35   36 1   
    80   35   96 1   
    81   35   97 1   
    82   36   37 1   
    83   36   98 1   
    84   36   99 1   
    85   37   38 1   
    86   37   39 1   
    87   37  100 1   
    88   38  101 1   
    89   39   40 1   
    90   39  102 1   
    91   39  119 1   
    92   40   41 1   
    93   40  103 1   
    94   40  104 1   
    95   41   42 1   
    96   41  105 1   
    97   41  106 1   
    98   42   43 1   
    99   43   48 1   
   100   43  107 1   
   101   43  108 1   
   102   44   45 ar  
   103   44   56 ar  
   104   44  115 1   
   105   45   46 ar  
   106   45  120 1   
   107   46   47 ar  
   108   46  109 1   
   109   47   57 ar  
   110   47  110 1   
   111   48   49 ar  
   112   48   54 ar  
   113   49   50 ar  
   114   49  111 1   
   115   50   51 ar  
   116   50  112 1   
   117   51   55 ar  
   118   51  113 1   
   119   52   55 ar  
   120   52   56 ar  
   121   52   58 1   
   122   53   54 ar  
   123   53   57 ar  
   124   54   55 ar  
   125   56   57 ar  
   126   58  114 1   
@<TRIPOS>SUBSTRUCTURE
     1 B9A         1 TEMP              0 ****  ****    0 ROOT
