@<TRIPOS>MOLECULE
B9A
  122   128     1     0     0
SMALL
bcc


@<TRIPOS>ATOM
      1 C1A        -1.3230   -3.4420    1.6780 ca        1 B9A     -0.202000
      2 C2A        -0.3140   -3.0020    2.4920 ca        1 B9A     -0.034000
      3 C3A        -0.6030   -2.3100    3.6970 ca        1 B9A     -0.127000
      4 C4A        -1.8970   -2.0790    4.0920 ca        1 B9A     -0.066600
      5 C5A        -6.6350   -2.8340    3.5540 ca        1 B9A     -0.127300
      6 C6A        -7.7010   -3.3420    2.8730 ca        1 B9A     -0.105000
      7 C7A        -7.5190   -3.9640    1.6050 ca        1 B9A      0.006000
      8 C8A        -6.2710   -4.0690    1.0460 ca        1 B9A     -0.225000
      9 C9A        -3.7850   -3.7220    1.2690 ca        1 B9A     -0.076400
     10 N9A        -3.5260   -4.4120   -0.0050 n4        1 B9A     -0.619400
     11 NAA        -4.2660   -2.4360    3.7230 nb        1 B9A     -0.584000
     12 CBA        -5.2940   -2.9360    3.0120 ca        1 B9A      0.413600
     13 CCA        -5.1160   -3.5920    1.7280 ca        1 B9A     -0.062300
     14 CDA        -2.6880   -3.2550    2.0400 ca        1 B9A     -0.084300
     15 CEA        -2.9960   -2.5800    3.2800 ca        1 B9A      0.405600
     16 C15        -3.2560   -3.4310   -1.1040 c3        1 B9A      0.096800
     17 C16        -3.0710   -4.0640   -2.4830 c3        1 B9A     -0.146400
     18 C17        -2.1280   -3.2670   -3.3800 c3        1 B9A      0.110800
     19 N18        -2.7760   -2.1850   -4.1970 n4        1 B9A     -0.769000
     20 C19        -1.7570   -1.2230   -4.7320 c3        1 B9A      0.105800
     21 C20        -2.3540   -0.0510   -5.5150 c3        1 B9A     -0.106400
     22 C21        -1.2780    1.0020   -5.7490 c3        1 B9A     -0.102400
     23 C22        -1.8200    2.1190   -6.6430 c3        1 B9A      0.104800
     24 N23        -0.8720    3.2690   -6.8370 n4        1 B9A     -0.764000
     25 C24        -0.9800    4.2990   -5.7570 c3        1 B9A      0.106800
     26 C25         0.0750    5.4060   -5.8430 c3        1 B9A     -0.137400
     27 C26        -0.1740    6.3850   -4.6920 c3        1 B9A      0.103800
     28 C28        -2.1610   -1.3640    5.3680 c3        1 B9A      0.039000
     29 S29        -0.9270   -0.0720    5.5000 ss        1 B9A     -0.273200
     30 C30        -1.4550    0.9520    6.8450 c3        1 B9A     -0.058300
     31 C31        -0.2250    1.1980    7.7030 c3        1 B9A      0.127800
     32 N32        -0.3240    2.4070    8.5970 n4        1 B9A     -0.676800
     33 C33         0.0210    3.7090    7.9160 c         1 B9A      0.545100
     34 O34        -0.1000    3.7560    6.6990 o         1 B9A     -0.435100
     35 C35         0.4970    4.8320    8.8010 c3        1 B9A     -0.162400
     36 C36         0.4360    6.1810    8.1010 c3        1 B9A     -0.136400
     37 C37         1.6260    6.3670    7.1430 c3        1 B9A      0.338300
     38 O38         2.8620    6.3590    7.7920 oh        1 B9A     -0.546800
     39 N39         1.4910    7.6430    6.3070 n4        1 B9A     -0.814000
     40 C40         2.7260    7.9070    5.4950 c3        1 B9A      0.126800
     41 C41         2.4520    8.6830    4.2230 c3        1 B9A     -0.044300
     42 S42         1.5150    7.6330    3.1370 ss        1 B9A     -0.377200
     43 C43         1.2780    8.6140    1.6520 c3        1 B9A      0.064000
     44 C1B        -0.4110   10.0930   -4.4560 ca        1 B9A     -0.226000
     45 C2B        -0.9300   11.3620   -4.3930 ca        1 B9A      0.012000
     46 C3B        -0.9990   12.0620   -3.1550 ca        1 B9A     -0.102000
     47 C4B        -0.5560   11.4810   -2.0040 ca        1 B9A     -0.127300
     48 C5B         1.4860    7.8280    0.4080 ca        1 B9A     -0.067600
     49 C6B         2.1350    6.6210    0.4130 ca        1 B9A     -0.135000
     50 C7B         2.3340    5.8880   -0.7840 ca        1 B9A     -0.043000
     51 C8B         1.8620    6.3530   -1.9810 ca        1 B9A     -0.198000
     52 C9B         0.7030    8.1730   -3.2690 ca        1 B9A     -0.074400
     53 NAB         0.4380    9.6070   -0.8640 nb        1 B9A     -0.584000
     54 CBB         1.0110    8.3800   -0.8550 ca        1 B9A      0.401600
     55 CCB         1.1910    7.6080   -2.0610 ca        1 B9A     -0.087300
     56 CDB         0.0970    9.4480   -3.2930 ca        1 B9A     -0.056300
     57 CEB         0.0090   10.1450   -2.0200 ca        1 B9A      0.419600
     58 N9B         0.8830    7.4310   -4.5280 n4        1 B9A     -0.618400
     59 H1A        -1.0500   -3.9870    0.7630 ha        1 B9A      0.113000
     60 H2A         0.7430   -3.1910    2.2340 ha        1 B9A      0.171000
     61 H3A         0.2440   -1.9770    4.3250 ha        1 B9A      0.178000
     62 H5A        -6.7670   -2.3530    4.5400 ha        1 B9A      0.189000
     63 H6A        -8.7210   -3.2880    3.2970 ha        1 B9A      0.198000
     64 H7A        -8.4070   -4.3680    1.0820 ha        1 B9A      0.186000
     65 H8A        -6.1920   -4.5560    0.0630 ha        1 B9A      0.119000
     66 H9A        -2.7140   -5.0360    0.1180 hn        1 B9A      0.472800
     67 H151       -4.1270   -2.7140   -1.1210 hx        1 B9A      0.104700
     68 H152       -2.3310   -2.8590   -0.7980 hx        1 B9A      0.104700
     69 H161       -2.6040   -5.0910   -2.3930 hc        1 B9A      0.120700
     70 H162       -4.0720   -4.2230   -2.9700 hc        1 B9A      0.120700
     71 H171       -1.6390   -3.9800   -4.1150 hx        1 B9A      0.127700
     72 H172       -1.3120   -2.7920   -2.7610 hx        1 B9A      0.127700
     73 H18        -3.2850   -2.6160   -4.9850 hn        1 B9A      0.462800
     74 H191       -1.1690   -0.8310   -3.8530 hx        1 B9A      0.117200
     75 H192       -1.0570   -1.8090   -5.4010 hx        1 B9A      0.117200
     76 H201       -2.7510   -0.4140   -6.5030 hc        1 B9A      0.091700
     77 H202       -3.2110    0.4100   -4.9530 hc        1 B9A      0.091700
     78 H211       -0.9440    1.4190   -4.7620 hc        1 B9A      0.077200
     79 H212       -0.3870    0.5220   -6.2390 hc        1 B9A      0.077200
     80 H221       -2.7820    2.5290   -6.2190 hx        1 B9A      0.130200
     81 H222       -2.0380    1.6970   -7.6720 hx        1 B9A      0.130200
     82 H23        -1.0880    3.7150   -7.7440 hn        1 B9A      0.475300
     83 H241       -0.8870    3.7630   -4.7690 hx        1 B9A      0.112200
     84 H242       -2.0120    4.7560   -5.8250 hx        1 B9A      0.112200
     85 H251        1.1070    4.9670   -5.7710 hc        1 B9A      0.098700
     86 H252        0.0000    5.9440   -6.8280 hc        1 B9A      0.098700
     87 H261       -1.1550    6.9240   -4.8490 hx        1 B9A      0.118700
     88 H262       -0.2310    5.8220   -3.7140 hx        1 B9A      0.118700
     89 H281       -2.0640   -2.0810    6.2250 h1        1 B9A      0.112200
     90 H282       -3.1830   -0.9140    5.4120 h1        1 B9A      0.112200
     91 H301       -2.2740    0.4690    7.4340 h1        1 B9A      0.100200
     92 H302       -1.8500    1.9090    6.4180 h1        1 B9A      0.100200
     93 H311       -0.0460    0.3070    8.3800 hx        1 B9A      0.128700
     94 H312        0.6820    1.3390    7.0440 hx        1 B9A      0.128700
     95 H32        -1.2860    2.4770    8.9590 hn        1 B9A      0.480300
     96 H351       -0.1330    4.8880    9.7360 hc        1 B9A      0.139200
     97 H352        1.5580    4.6080    9.1200 hc        1 B9A      0.139200
     98 H361        0.4540    6.9800    8.8960 hc        1 B9A      0.109700
     99 H362       -0.5310    6.2770    7.5390 hc        1 B9A      0.109700
    100 HC37        1.6810    5.5100    6.3960 hx        1 B9A      0.135700
    101 HO38        2.8260    6.8750    8.6170 ho        1 B9A      0.459000
    102 H39         1.3100    8.4470    6.9160 hn        1 B9A      0.461800
    103 H401        3.4520    8.4810    6.1460 hx        1 B9A      0.132200
    104 H402        3.2010    6.9120    5.2470 hx        1 B9A      0.132200
    105 H411        1.9130    9.6440    4.4150 h1        1 B9A      0.121200
    106 H412        3.4440    8.9480    3.7660 h1        1 B9A      0.121200
    107 H431        0.2290    9.0090    1.6970 h1        1 B9A      0.117700
    108 H432        1.9760    9.4920    1.6640 h1        1 B9A      0.117700
    109 H3B        -1.4150   13.0880   -3.1470 ha        1 B9A      0.200000
    110 H4B        -0.6090   12.0180   -1.0390 ha        1 B9A      0.191000
    111 H6B         2.5290    6.2040    1.3580 ha        1 B9A      0.175000
    112 H7B         2.8910    4.9370   -0.7300 ha        1 B9A      0.158000
    113 H8B         2.0440    5.7530   -2.8830 ha        1 B9A      0.105000
    114 H9B         1.8160    6.9950   -4.5200 hn        1 B9A      0.470300
    115 H1B        -0.3930    9.5950   -5.4360 ha        1 B9A      0.120000
    116 H9A2       -4.3390   -4.9990   -0.2460 hn        1 B9A      0.472800
    117 H182       -3.4610   -1.6790   -3.6260 hn        1 B9A      0.462800
    118 H232        0.0930    2.9160   -6.8860 hn        1 B9A      0.475300
    119 H322        0.3090    2.2760    9.3990 hn        1 B9A      0.480300
    120 H392        0.6900    7.5310    5.6690 hn        1 B9A      0.461800
    121 H9B2        0.8500    8.0940   -5.3180 hn        1 B9A      0.470300
    122 H2B        -1.3030   11.8650   -5.3060 ha        1 B9A      0.188000
@<TRIPOS>BOND
     1    1    2 ar  
     2    1   14 ar  
     3    1   59 1   
     4    2    3 ar  
     5    2   60 1   
     6    3    4 ar  
     7    3   61 1   
     8    4   15 ar  
     9    4   28 1   
    10    5    6 ar  
    11    5   12 ar  
    12    5   62 1   
    13    6    7 ar  
    14    6   63 1   
    15    7    8 ar  
    16    7   64 1   
    17    8   13 ar  
    18    8   65 1   
    19    9   10 1   
    20    9   13 ar  
    21    9   14 ar  
    22   10   16 1   
    23   10   66 1   
    24   10  116 1   
    25   11   12 ar  
    26   11   15 ar  
    27   12   13 ar  
    28   14   15 ar  
    29   16   17 1   
    30   16   67 1   
    31   16   68 1   
    32   17   18 1   
    33   17   69 1   
    34   17   70 1   
    35   18   19 1   
    36   18   71 1   
    37   18   72 1   
    38   19   20 1   
    39   19   73 1   
    40   19  117 1   
    41   20   21 1   
    42   20   74 1   
    43   20   75 1   
    44   21   22 1   
    45   21   76 1   
    46   21   77 1   
    47   22   23 1   
    48   22   78 1   
    49   22   79 1   
    50   23   24 1   
    51   23   80 1   
    52   23   81 1   
    53   24   25 1   
    54   24   82 1   
    55   24  118 1   
    56   25   26 1   
    57   25   83 1   
    58   25   84 1   
    59   26   27 1   
    60   26   85 1   
    61   26   86 1   
    62   27   58 1   
    63   27   87 1   
    64   27   88 1   
    65   28   29 1   
    66   28   89 1   
    67   28   90 1   
    68   29   30 1   
    69   30   31 1   
    70   30   91 1   
    71   30   92 1   
    72   31   32 1   
    73   31   93 1   
    74   31   94 1   
    75   32   33 1   
    76   32   95 1   
    77   32  119 1   
    78   33   34 2   
    79   33   35 1   
    80   35   36 1   
    81   35   96 1   
    82   35   97 1   
    83   36   37 1   
    84   36   98 1   
    85   36   99 1   
    86   37   38 1   
    87   37   39 1   
    88   37  100 1   
    89   38  101 1   
    90   39   40 1   
    91   39  102 1   
    92   39  120 1   
    93   40   41 1   
    94   40  103 1   
    95   40  104 1   
    96   41   42 1   
    97   41  105 1   
    98   41  106 1   
    99   42   43 1   
   100   43   48 1   
   101   43  107 1   
   102   43  108 1   
   103   44   45 ar  
   104   44   56 ar  
   105   44  115 1   
   106   45   46 ar  
   107   45  122 1   
   108   46   47 ar  
   109   46  109 1   
   110   47   57 ar  
   111   47  110 1   
   112   48   49 ar  
   113   48   54 ar  
   114   49   50 ar  
   115   49  111 1   
   116   50   51 ar  
   117   50  112 1   
   118   51   55 ar  
   119   51  113 1   
   120   52   55 ar  
   121   52   56 ar  
   122   52   58 1   
   123   53   54 ar  
   124   53   57 ar  
   125   54   55 ar  
   126   56   57 ar  
   127   58  114 1   
   128   58  121 1   
@<TRIPOS>SUBSTRUCTURE
     1 B9A         1 TEMP              0 ****  ****    0 ROOT
