@<TRIPOS>MOLECULE
B9D
   24    24     1     0     0
SMALL
bcc


@<TRIPOS>ATOM
      1 O1         -1.6460   -1.7570   -0.4950 oh        1 B9D     -0.628800
      2 O          -0.0230   -0.4080   -1.3120 os        1 B9D     -0.467600
      3 C1         -1.3970   -0.4640   -0.9910 c3        1 B9D      0.306900
      4 F1          0.8490   -1.7040    0.2440 f         1 B9D     -0.238300
      5 C2         -1.8620    0.5410    0.0800 c3        1 B9D      0.078100
      6 O2         -1.8620    1.8540   -0.4530 oh        1 B9D     -0.595800
      7 C3         -0.9220    0.5540    1.2980 c3        1 B9D      0.127100
      8 O3         -1.1700   -0.5580    2.1250 oh        1 B9D     -0.580800
      9 C4          0.5540    0.6190    0.8790 c3        1 B9D      0.075100
     10 O4          0.9180    1.9150    0.4600 oh        1 B9D     -0.593800
     11 C5          0.9050   -0.4100   -0.2320 c3        1 B9D      0.298100
     12 C6          2.2810   -0.0850   -0.8870 c3        1 B9D      0.138400
     13 O6          3.2260    0.3060    0.0740 oh        1 B9D     -0.587800
     14 HO1        -1.1130   -2.3810   -1.0090 ho        1 B9D      0.439000
     15 H1         -1.9130   -0.2890   -1.9800 h2        1 B9D      0.076700
     16 H2         -2.8940    0.2460    0.4190 h1        1 B9D      0.083700
     17 HO2        -2.5340    1.8810   -1.1440 ho        1 B9D      0.416000
     18 H3         -1.1560    1.4540    1.9370 h1        1 B9D      0.110700
     19 HO3        -1.0350   -1.3600    1.5950 ho        1 B9D      0.429000
     20 H4          1.2080    0.4040    1.7730 h1        1 B9D      0.117700
     21 HO4         0.2830    2.1970   -0.2170 ho        1 B9D      0.431000
     22 H6          2.6950   -1.0170   -1.3560 h1        1 B9D      0.071700
     23 H6A         2.1180    0.7110   -1.6580 h1        1 B9D      0.071700
     24 HO6         3.0050    1.2060    0.3570 ho        1 B9D      0.423000
@<TRIPOS>BOND
     1    1    3 1   
     2    1   14 1   
     3    2    3 1   
     4    2   11 1   
     5    3    5 1   
     6    3   15 1   
     7    4   11 1   
     8    5    6 1   
     9    5    7 1   
    10    5   16 1   
    11    6   17 1   
    12    7    8 1   
    13    7    9 1   
    14    7   18 1   
    15    8   19 1   
    16    9   10 1   
    17    9   11 1   
    18    9   20 1   
    19   10   21 1   
    20   11   12 1   
    21   12   13 1   
    22   12   22 1   
    23   12   23 1   
    24   13   24 1   
@<TRIPOS>SUBSTRUCTURE
     1 B9D         1 TEMP              0 ****  ****    0 ROOT
