@<TRIPOS>MOLECULE
B9D
   24    24     1     0     0
SMALL
bcc


@<TRIPOS>ATOM
      1 O1         -1.8330    1.5510   -0.6350 oh        1 B9D     -0.628800
      2 O           0.0620    0.4420   -1.3890 os        1 B9D     -0.477600
      3 C1         -0.4410    1.5850   -0.6310 c3        1 B9D      0.308900
      4 F1         -1.4890   -1.1020   -0.7190 f         1 B9D     -0.236300
      5 C2          0.0490    1.5910    0.8120 c3        1 B9D      0.078100
      6 O2          1.4790    1.8650    0.8240 oh        1 B9D     -0.594800
      7 C3         -0.2000    0.2970    1.4980 c3        1 B9D      0.124100
      8 O3         -1.6440    0.1340    1.6980 oh        1 B9D     -0.581800
      9 C4          0.3130   -0.8560    0.7210 c3        1 B9D      0.083100
     10 O4          1.7480   -0.8120    0.7220 oh        1 B9D     -0.579800
     11 C5         -0.1800   -0.8490   -0.7150 c3        1 B9D      0.294100
     12 C6          0.5190   -1.9150   -1.4680 c3        1 B9D      0.134400
     13 O6         -0.0030   -1.9690   -2.8380 oh        1 B9D     -0.582800
     14 HO1        -2.1410    2.2720   -1.0260 ho        1 B9D      0.440000
     15 H1         -0.1420    2.4150   -1.0720 h2        1 B9D      0.076700
     16 H2         -0.4140    2.3030    1.3000 h1        1 B9D      0.083700
     17 HO2         1.6300    2.7200    1.1850 ho        1 B9D      0.415000
     18 H3          0.2440    0.3120    2.3770 h1        1 B9D      0.110700
     19 HO3        -1.8340    0.1760    2.5910 ho        1 B9D      0.429000
     20 H4          0.0270   -1.6680    1.1430 h1        1 B9D      0.110700
     21 HO4         2.0630   -1.3280    1.3880 ho        1 B9D      0.427000
     22 H6          1.4690   -1.7220   -1.4920 h1        1 B9D      0.075700
     23 H6A         0.3680   -2.7970   -1.0180 h1        1 B9D      0.075700
     24 HO6         0.3500   -2.6430   -3.2560 ho        1 B9D      0.414000
@<TRIPOS>BOND
     1    1    3 1   
     2    1   14 1   
     3    2    3 1   
     4    2   11 1   
     5    3    5 1   
     6    3   15 1   
     7    4   11 1   
     8    5    6 1   
     9    5    7 1   
    10    5   16 1   
    11    6   17 1   
    12    7    8 1   
    13    7    9 1   
    14    7   18 1   
    15    8   19 1   
    16    9   10 1   
    17    9   11 1   
    18    9   20 1   
    19   10   21 1   
    20   11   12 1   
    21   12   13 1   
    22   12   22 1   
    23   12   23 1   
    24   13   24 1   
@<TRIPOS>SUBSTRUCTURE
     1 B9D         1 TEMP              0 ****  ****    0 ROOT
