@<TRIPOS>MOLECULE
B9M
   45    44     1     0     0
SMALL
bcc


@<TRIPOS>ATOM
      1 C16        -0.1250   -0.0910    0.0380 c3        1 B9M     -0.095100
      2 C15         1.3770    0.0070   -0.0190 c3        1 B9M     -0.077400
      3 C14         1.9810   -0.0720    1.3740 c3        1 B9M      0.000700
      4 C13         3.4090    0.0180    1.3550 c1        1 B9M     -0.126100
      5 C12         4.6060    0.0920    1.3510 cg        1 B9M     -0.165300
      6 C11         6.0050    0.1800    1.3120 ce        1 B9M     -0.036700
      7 C10         6.8110    0.1900    2.3840 c2        1 B9M     -0.138200
      8 C9          6.3550    0.1310    3.7910 c3        1 B9M     -0.055200
      9 C8          7.2700   -0.7290    4.6410 c3        1 B9M     -0.076400
     10 C7          6.7980   -0.7690    6.0790 c3        1 B9M     -0.079400
     11 C6          7.7100   -1.6240    6.9320 c3        1 B9M     -0.079400
     12 C5          7.2390   -1.6650    8.3700 c3        1 B9M     -0.079400
     13 C4          8.1520   -2.5190    9.2230 c3        1 B9M     -0.078400
     14 C3          7.6800   -2.5610   10.6600 c3        1 B9M     -0.078400
     15 C2          8.5960   -3.4130   11.5100 c3        1 B9M     -0.084400
     16 C1          8.1110   -3.4470   12.9490 c3        1 B9M      0.131400
     17 O           9.0190   -4.2620   13.6750 oh        1 B9M     -0.601800
     18 H161       -0.5530    0.7410    0.6470 hc        1 B9M      0.034700
     19 H162       -0.5540   -0.0320   -0.9920 hc        1 B9M      0.034700
     20 H163       -0.4420   -1.0590    0.4960 hc        1 B9M      0.034700
     21 H151        1.6770    0.9730   -0.5020 hc        1 B9M      0.047700
     22 H152        1.7890   -0.8230   -0.6520 hc        1 B9M      0.047700
     23 H141        1.5640    0.7600    2.0090 hc        1 B9M      0.058700
     24 H142        1.6760   -1.0420    1.8590 hc        1 B9M      0.058700
     25 H11         6.4340    0.2440    0.2930 ha        1 B9M      0.135000
     26 H10         7.9030    0.2570    2.2430 ha        1 B9M      0.124000
     27 H91C        6.3360    1.1770    4.2070 hc        1 B9M      0.054700
     28 H92C        5.3050   -0.2650    3.8490 hc        1 B9M      0.054700
     29 H81C        7.2990   -1.7710    4.2260 hc        1 B9M      0.041700
     30 H82C        8.3160   -0.3260    4.5990 hc        1 B9M      0.041700
     31 H71C        6.7640    0.2730    6.4930 hc        1 B9M      0.040700
     32 H72C        5.7530   -1.1760    6.1210 hc        1 B9M      0.040700
     33 H61C        8.7550   -1.2180    6.8900 hc        1 B9M      0.040200
     34 H62C        7.7450   -2.6670    6.5180 hc        1 B9M      0.040200
     35 H51C        6.1940   -2.0730    8.4110 hc        1 B9M      0.039700
     36 H52C        7.2030   -0.6230    8.7840 hc        1 B9M      0.039700
     37 H41C        8.1880   -3.5610    8.8090 hc        1 B9M      0.041700
     38 H42C        9.1960   -2.1110    9.1810 hc        1 B9M      0.041700
     39 H31C        7.6430   -1.5180   11.0740 hc        1 B9M      0.039700
     40 H32C        6.6360   -2.9700   10.7010 hc        1 B9M      0.039700
     41 H21C        8.6350   -4.4600   11.1090 hc        1 B9M      0.055700
     42 H22C        9.6410   -3.0090   11.4810 hc        1 B9M      0.055700
     43 H11C        8.0940   -2.4120   13.3850 h1        1 B9M      0.019700
     44 H12C        7.0770   -3.8820   13.0080 h1        1 B9M      0.019700
     45 H           8.7050   -4.2790   14.5860 ho        1 B9M      0.398000
@<TRIPOS>BOND
     1    1    2 1   
     2    1   18 1   
     3    1   19 1   
     4    1   20 1   
     5    2    3 1   
     6    2   21 1   
     7    2   22 1   
     8    3    4 1   
     9    3   23 1   
    10    3   24 1   
    11    4    5 3   
    12    5    6 1   
    13    6    7 2   
    14    6   25 1   
    15    7    8 1   
    16    7   26 1   
    17    8    9 1   
    18    8   27 1   
    19    8   28 1   
    20    9   10 1   
    21    9   29 1   
    22    9   30 1   
    23   10   11 1   
    24   10   31 1   
    25   10   32 1   
    26   11   12 1   
    27   11   33 1   
    28   11   34 1   
    29   12   13 1   
    30   12   35 1   
    31   12   36 1   
    32   13   14 1   
    33   13   37 1   
    34   13   38 1   
    35   14   15 1   
    36   14   39 1   
    37   14   40 1   
    38   15   16 1   
    39   15   41 1   
    40   15   42 1   
    41   16   17 1   
    42   16   43 1   
    43   16   44 1   
    44   17   45 1   
@<TRIPOS>SUBSTRUCTURE
     1 B9M         1 TEMP              0 ****  ****    0 ROOT
