@<TRIPOS>MOLECULE
B9M
   45    42     1     0     0
SMALL
bcc


@<TRIPOS>ATOM
      1 C16        -4.6810    6.5640   -1.8900 c3        1 B9M     -0.213000
      2 C15        -3.6420    5.7900   -2.6710 c3        1 B9M     -0.156000
      3 C14        -3.3970    4.4570   -2.0000 c3        1 B9M     -0.051000
      4 C13        -2.4240    3.6470   -2.8280 c1        1 B9M     -0.153000
      5 C12        -1.6570    3.0090   -3.4800 c1        1 B9M     -0.132000
      6 C11        -0.6840    2.1990   -4.3080 c1        1 B9M     -0.102000
      7 C10        -0.0640    1.1320   -3.7670 c1        1 B9M     -0.102000
      8 C9         -0.3420    0.7430   -2.3310 c2        1 B9M     -0.138000
      9 C8          0.5030   -0.4560   -1.9610 c3        1 B9M     -0.155000
     10 C7          0.2710   -0.8060   -0.5070 c3        1 B9M     -0.158000
     11 C6          1.2210   -1.9100   -0.0970 c3        1 B9M     -0.158000
     12 C5          0.9710   -2.2780    1.3490 c3        1 B9M     -0.158000
     13 C4          2.0370   -3.2470    1.8140 c3        1 B9M     -0.157000
     14 C3          1.9210   -3.4440    3.3090 c3        1 B9M     -0.157000
     15 C2          3.0450   -4.3360    3.7880 c3        1 B9M     -0.163000
     16 C1          3.0170   -4.4150    5.2990 c3        1 B9M     -0.019000
     17 O           4.0030   -5.3220    5.7410 oh        1 B9M     -0.329000
     18 H161       -4.4140    6.6110   -0.9480 hc        1 B9M      0.074000
     19 H162       -4.7550    7.4710   -2.2540 hc        1 B9M      0.074000
     20 H163       -5.5480    6.1120   -1.9620 hc        1 B9M      0.074000
     21 H151       -2.8070    6.3000   -2.6970 hc        1 B9M      0.087000
     22 H152       -3.9630    5.6430   -3.5830 hc        1 B9M      0.087000
     23 H141       -4.2420    3.9710   -1.9220 hc        1 B9M      0.098000
     24 H142       -3.0230    4.6040   -1.1080 hc        1 B9M      0.098000
     25 H11        -0.5040    2.4500   -5.2340 ha        1 B9M      0.129500
     26 H10         0.5640    0.6100   -4.3010 ha        1 B9M      0.129500
     27 H91C       -0.1210    1.4920   -1.7420 ha        1 B9M      0.094000
     28 H92C       -1.2890    0.5190   -2.2320 ha        1 B9M      0.094000
     29 H81C        0.2540   -1.2160   -2.5230 hc        1 B9M      0.081000
     30 H82C        1.4480   -0.2440   -2.0980 hc        1 B9M      0.081000
     31 H71C        0.4290   -0.0170    0.0480 hc        1 B9M      0.080000
     32 H72C       -0.6520   -1.1090   -0.3880 hc        1 B9M      0.080000
     33 H61C        2.1430   -1.6020   -0.2010 hc        1 B9M      0.079500
     34 H62C        1.0740   -2.6940   -0.6630 hc        1 B9M      0.079500
     35 H51C        1.0010   -1.4710    1.9010 hc        1 B9M      0.079000
     36 H52C        0.0910   -2.6980    1.4310 hc        1 B9M      0.079000
     37 H41C        1.9170   -4.1050    1.3610 hc        1 B9M      0.081000
     38 H42C        2.9210   -2.8860    1.6000 hc        1 B9M      0.081000
     39 H31C        1.9790   -2.5770    3.7580 hc        1 B9M      0.079000
     40 H32C        1.0620   -3.8630    3.5170 hc        1 B9M      0.079000
     41 H21C        2.9330   -5.2320    3.4130 hc        1 B9M      0.095000
     42 H22C        3.9020   -3.9660    3.4970 hc        1 B9M      0.095000
     43 H11C        3.1960   -3.5290    5.6760 h1        1 B9M      0.059000
     44 H12C        2.1350   -4.7230    5.5930 h1        1 B9M      0.059000
     45 H           4.1720   -5.1800    6.6020 ho        1 B9M      0.197000
@<TRIPOS>BOND
     1    1    2 1   
     2    1   18 1   
     3    1   19 1   
     4    1   20 1   
     5    2    3 1   
     6    2   21 1   
     7    2   22 1   
     8    3    4 1   
     9    3   23 1   
    10    3   24 1   
    11    4    5 1   
    12    6    7 1   
    13    6   25 1   
    14    7   26 1   
    15    8    9 1   
    16    8   27 1   
    17    8   28 1   
    18    9   10 1   
    19    9   29 1   
    20    9   30 1   
    21   10   11 1   
    22   10   31 1   
    23   10   32 1   
    24   11   12 1   
    25   11   33 1   
    26   11   34 1   
    27   12   13 1   
    28   12   35 1   
    29   12   36 1   
    30   13   14 1   
    31   13   37 1   
    32   13   38 1   
    33   14   15 1   
    34   14   39 1   
    35   14   40 1   
    36   15   16 1   
    37   15   41 1   
    38   15   42 1   
    39   16   17 1   
    40   16   43 1   
    41   16   44 1   
    42   17   45 1   
@<TRIPOS>SUBSTRUCTURE
     1 B9M         1 TEMP              0 ****  ****    0 ROOT
