@<TRIPOS>MOLECULE
B9M
   45    44     1     0     0
SMALL
bcc


@<TRIPOS>ATOM
      1 C16         9.8510   -1.0990   -0.1240 c3        1 B9M     -0.095100
      2 C15         8.5150   -0.5390   -0.5390 c3        1 B9M     -0.077400
      3 C14         7.4780   -0.7380    0.5540 c3        1 B9M      0.000700
      4 C13         6.1960   -0.2160    0.1910 c1        1 B9M     -0.124100
      5 C12         5.1170    0.2170   -0.1030 cg        1 B9M     -0.168300
      6 C11         3.8650    0.7310   -0.4690 ce        1 B9M     -0.033700
      7 C10         2.7780    0.6800    0.3170 c2        1 B9M     -0.141200
      8 C9          1.4680    1.2490   -0.0770 c3        1 B9M     -0.052200
      9 C8          0.3280    0.3130    0.2730 c3        1 B9M     -0.076400
     10 C7         -1.0070    0.9120   -0.1160 c3        1 B9M     -0.079400
     11 C6         -2.1480   -0.0190    0.2340 c3        1 B9M     -0.079400
     12 C5         -3.4830    0.5780   -0.1550 c3        1 B9M     -0.079400
     13 C4         -4.6240   -0.3530    0.1960 c3        1 B9M     -0.078400
     14 C3         -5.9590    0.2440   -0.1940 c3        1 B9M     -0.078400
     15 C2         -7.0960   -0.6880    0.1590 c3        1 B9M     -0.084400
     16 C1         -8.4300   -0.0780   -0.2380 c3        1 B9M      0.132400
     17 O          -9.4380   -1.0090    0.1260 oh        1 B9M     -0.601800
     18 H161       10.2230   -0.5930    0.7990 hc        1 B9M      0.034700
     19 H162        9.7740   -2.1940    0.0840 hc        1 B9M      0.034700
     20 H163       10.6020   -0.9460   -0.9360 hc        1 B9M      0.034700
     21 H151        8.6150    0.5550   -0.7650 hc        1 B9M      0.046700
     22 H152        8.1680   -1.0420   -1.4800 hc        1 B9M      0.046700
     23 H141        7.3810   -1.8370    0.7820 hc        1 B9M      0.058700
     24 H142        7.8300   -0.2340    1.4990 hc        1 B9M      0.058700
     25 H11         3.8240    1.1950   -1.4730 ha        1 B9M      0.135000
     26 H10         2.8150    0.2150    1.3150 ha        1 B9M      0.129000
     27 H91C        1.3250    2.2270    0.4630 hc        1 B9M      0.049700
     28 H92C        1.4440    1.4740   -1.1770 hc        1 B9M      0.049700
     29 H81C        0.4700   -0.6660   -0.2550 hc        1 B9M      0.043700
     30 H82C        0.3390    0.1000    1.3750 hc        1 B9M      0.043700
     31 H71C       -1.1470    1.8930    0.4100 hc        1 B9M      0.040200
     32 H72C       -1.0180    1.1220   -1.2180 hc        1 B9M      0.040200
     33 H61C       -2.0070   -1.0010   -0.2900 hc        1 B9M      0.041200
     34 H62C       -2.1380   -0.2290    1.3370 hc        1 B9M      0.041200
     35 H51C       -3.6240    1.5600    0.3690 hc        1 B9M      0.039700
     36 H52C       -3.4940    0.7880   -1.2570 hc        1 B9M      0.039700
     37 H41C       -4.4840   -1.3350   -0.3280 hc        1 B9M      0.041700
     38 H42C       -4.6140   -0.5620    1.2980 hc        1 B9M      0.041700
     39 H31C       -6.0990    1.2270    0.3300 hc        1 B9M      0.039700
     40 H32C       -5.9700    0.4530   -1.2970 hc        1 B9M      0.039700
     41 H21C       -6.9700   -1.6710   -0.3650 hc        1 B9M      0.055700
     42 H22C       -7.1000   -0.8980    1.2600 hc        1 B9M      0.055700
     43 H11C       -8.5960    0.8940    0.3000 h1        1 B9M      0.019700
     44 H12C       -8.4650    0.1110   -1.3450 h1        1 B9M      0.019700
     45 H         -10.2800   -0.6150   -0.1290 ho        1 B9M      0.398000
@<TRIPOS>BOND
     1    1    2 1   
     2    1   18 1   
     3    1   19 1   
     4    1   20 1   
     5    2    3 1   
     6    2   21 1   
     7    2   22 1   
     8    3    4 1   
     9    3   23 1   
    10    3   24 1   
    11    4    5 3   
    12    5    6 1   
    13    6    7 2   
    14    6   25 1   
    15    7    8 1   
    16    7   26 1   
    17    8    9 1   
    18    8   27 1   
    19    8   28 1   
    20    9   10 1   
    21    9   29 1   
    22    9   30 1   
    23   10   11 1   
    24   10   31 1   
    25   10   32 1   
    26   11   12 1   
    27   11   33 1   
    28   11   34 1   
    29   12   13 1   
    30   12   35 1   
    31   12   36 1   
    32   13   14 1   
    33   13   37 1   
    34   13   38 1   
    35   14   15 1   
    36   14   39 1   
    37   14   40 1   
    38   15   16 1   
    39   15   41 1   
    40   15   42 1   
    41   16   17 1   
    42   16   43 1   
    43   16   44 1   
    44   17   45 1   
@<TRIPOS>SUBSTRUCTURE
     1 B9M         1 TEMP              0 ****  ****    0 ROOT
