@<TRIPOS>MOLECULE
B9M
   45    44     1     0     0
SMALL
bcc


@<TRIPOS>ATOM
      1 C16        -0.1150   -0.1230    0.0350 c3        1 B9M     -0.095100
      2 C15         1.3880   -0.0300   -0.0220 c3        1 B9M     -0.077400
      3 C14         1.9880   -0.0470    1.3760 c3        1 B9M      0.000700
      4 C13         3.4160    0.0400    1.3570 c1        1 B9M     -0.126100
      5 C12         4.6130    0.1120    1.3530 cg        1 B9M     -0.165300
      6 C11         6.0120    0.1970    1.3150 ce        1 B9M     -0.036700
      7 C10         6.8180    0.2050    2.3870 c2        1 B9M     -0.138200
      8 C9          6.3610    0.1460    3.7940 c3        1 B9M     -0.055200
      9 C8          7.2720   -0.7190    4.6430 c3        1 B9M     -0.076400
     10 C7          6.8000   -0.7590    6.0810 c3        1 B9M     -0.079400
     11 C6          7.7080   -1.6190    6.9330 c3        1 B9M     -0.079400
     12 C5          7.2360   -1.6610    8.3700 c3        1 B9M     -0.079400
     13 C4          8.1450   -2.5210    9.2220 c3        1 B9M     -0.078400
     14 C3          7.6730   -2.5620   10.6590 c3        1 B9M     -0.078400
     15 C2          8.5830   -3.4210   11.5070 c3        1 B9M     -0.084400
     16 C1          8.0990   -3.4560   12.9460 c3        1 B9M      0.131400
     17 O           9.0020   -4.2760   13.6710 oh        1 B9M     -0.601800
     18 H161       -0.5430    0.7370    0.6040 hc        1 B9M      0.034700
     19 H162       -0.5410   -0.1100   -0.9970 hc        1 B9M      0.034700
     20 H163       -0.4340   -1.0690    0.5360 hc        1 B9M      0.034700
     21 H151        1.6910    0.9130   -0.5470 hc        1 B9M      0.047700
     22 H152        1.8000   -0.8890   -0.6150 hc        1 B9M      0.047700
     23 H141        1.5700    0.8140    1.9710 hc        1 B9M      0.058700
     24 H142        1.6790   -0.9940    1.9030 hc        1 B9M      0.058700
     25 H11         6.4410    0.2620    0.2960 ha        1 B9M      0.135000
     26 H10         7.9100    0.2710    2.2470 ha        1 B9M      0.124000
     27 H91C        6.3460    1.1910    4.2110 hc        1 B9M      0.054700
     28 H92C        5.3090   -0.2450    3.8510 hc        1 B9M      0.054700
     29 H81C        7.2980   -1.7600    4.2260 hc        1 B9M      0.041700
     30 H82C        8.3200   -0.3190    4.6020 hc        1 B9M      0.041700
     31 H71C        6.7700    0.2830    6.4960 hc        1 B9M      0.040700
     32 H72C        5.7530   -1.1610    6.1220 hc        1 B9M      0.040700
     33 H61C        8.7550   -1.2170    6.8920 hc        1 B9M      0.040200
     34 H62C        7.7380   -2.6610    6.5170 hc        1 B9M      0.040200
     35 H51C        6.1900   -2.0640    8.4110 hc        1 B9M      0.039700
     36 H52C        7.2050   -0.6190    8.7860 hc        1 B9M      0.039700
     37 H41C        8.1760   -3.5620    8.8060 hc        1 B9M      0.041700
     38 H42C        9.1910   -2.1170    9.1820 hc        1 B9M      0.041700
     39 H31C        7.6410   -1.5200   11.0750 hc        1 B9M      0.039700
     40 H32C        6.6260   -2.9660   10.6990 hc        1 B9M      0.039700
     41 H21C        8.6170   -4.4670   11.1040 hc        1 B9M      0.055700
     42 H22C        9.6310   -3.0220   11.4800 hc        1 B9M      0.055700
     43 H11C        8.0860   -2.4210   13.3840 h1        1 B9M      0.019700
     44 H12C        7.0620   -3.8840   13.0040 h1        1 B9M      0.019700
     45 H           8.6870   -4.2930   14.5820 ho        1 B9M      0.398000
@<TRIPOS>BOND
     1    1    2 1   
     2    1   18 1   
     3    1   19 1   
     4    1   20 1   
     5    2    3 1   
     6    2   21 1   
     7    2   22 1   
     8    3    4 1   
     9    3   23 1   
    10    3   24 1   
    11    4    5 3   
    12    5    6 1   
    13    6    7 2   
    14    6   25 1   
    15    7    8 1   
    16    7   26 1   
    17    8    9 1   
    18    8   27 1   
    19    8   28 1   
    20    9   10 1   
    21    9   29 1   
    22    9   30 1   
    23   10   11 1   
    24   10   31 1   
    25   10   32 1   
    26   11   12 1   
    27   11   33 1   
    28   11   34 1   
    29   12   13 1   
    30   12   35 1   
    31   12   36 1   
    32   13   14 1   
    33   13   37 1   
    34   13   38 1   
    35   14   15 1   
    36   14   39 1   
    37   14   40 1   
    38   15   16 1   
    39   15   41 1   
    40   15   42 1   
    41   16   17 1   
    42   16   43 1   
    43   16   44 1   
    44   17   45 1   
@<TRIPOS>SUBSTRUCTURE
     1 B9M         1 TEMP              0 ****  ****    0 ROOT
