@<TRIPOS>MOLECULE
BA1
   66    69     1     0     0
SMALL
bcc


@<TRIPOS>ATOM
      1 C1'        -0.6900    1.0450   -0.0140 c         1 BA1      0.682700
      2 C2'         0.7960    1.1260    0.0620 ca        1 BA1     -0.176600
      3 C3'         1.3860    1.2080    1.3300 ca        1 BA1     -0.052000
      4 C4'         2.7620    1.3680    1.4570 ca        1 BA1     -0.194500
      5 C5'         3.5480    1.4630    0.3000 ca        1 BA1      0.138100
      6 O5'         4.9090    1.6670    0.3380 oh        1 BA1     -0.512100
      7 C6'         2.9700    1.3730   -0.9780 ca        1 BA1     -0.194500
      8 C7'         1.5950    1.1980   -1.0850 ca        1 BA1     -0.052000
      9 O1'        -1.4110    1.6190    0.8300 o         1 BA1     -0.614100
     10 N1'        -1.2440    0.3080   -1.0420 n         1 BA1     -0.570900
     11 N1         -4.6170   -1.2920   -1.5480 n3        1 BA1     -0.840200
     12 C2         -3.2630   -1.0920   -1.0870 c3        1 BA1      0.156800
     13 C3         -2.6580    0.3210   -1.3290 c3        1 BA1      0.087700
     14 C4         -3.0010    0.7940   -2.7720 c3        1 BA1      0.140100
     15 C5         -4.3030    1.5930   -2.7850 c3        1 BA1     -0.078400
     16 C6         -5.5250    0.7120   -2.6880 c3        1 BA1     -0.077400
     17 C7         -5.5320   -0.1770   -1.4440 c3        1 BA1      0.167800
     18 OAC        -2.0210    1.7330   -3.2730 os        1 BA1     -0.430900
     19 C1B        -0.8940    1.2240   -3.8530 c         1 BA1      0.643700
     20 OBC        -0.7910   -0.0010   -3.9790 o         1 BA1     -0.549000
     21 C2B         0.1120    2.2380   -4.2260 ca        1 BA1     -0.046600
     22 C3B        -0.1110    3.5990   -4.0030 ca        1 BA1     -0.194000
     23 C4B         0.9120    4.5160   -4.2820 ca        1 BA1      0.208100
     24 O4'         0.7250    5.8620   -4.0780 oh        1 BA1     -0.484600
     25 C5B         2.1640    4.0990   -4.7810 ca        1 BA1     -0.248600
     26 C6B         2.3420    2.7210   -5.0310 ca        1 BA1      0.208100
     27 O6'         3.4870    2.1780   -5.5340 oh        1 BA1     -0.484600
     28 C7B         1.3190    1.7890   -4.7530 ca        1 BA1     -0.194000
     29 C8'         3.2740    5.0360   -5.0580 c         1 BA1      0.629300
     30 O8'         3.9770    4.9170   -6.0680 o         1 BA1     -0.510100
     31 C9'         3.5640    6.0920   -4.0520 ca        1 BA1     -0.115600
     32 CXU         3.2240    7.4330   -4.3230 ca        1 BA1      0.161100
     33 OXU         2.6210    7.6880   -5.5300 oh        1 BA1     -0.476100
     34 CX4         3.4990    8.4500   -3.3950 ca        1 BA1     -0.187000
     35 CXE         4.1290    8.1330   -2.1970 ca        1 BA1     -0.094000
     36 CXO         4.4920    6.8160   -1.9200 ca        1 BA1     -0.112000
     37 CXY         4.2180    5.8000   -2.8440 ca        1 BA1     -0.073600
     38 CX8         4.6440    4.4220   -2.5460 c         1 BA1      0.658700
     39 OX8         5.0220    4.2000   -1.2580 oh        1 BA1     -0.600100
     40 OXI         4.7080    3.4500   -3.3120 o         1 BA1     -0.576000
     41 H3'         0.7450    1.1630    2.2260 ha        1 BA1      0.151500
     42 H4'         3.2250    1.4320    2.4510 ha        1 BA1      0.153000
     43 HO5'        5.1820    1.7090    1.2660 ho        1 BA1      0.429000
     44 H6'         3.6070    1.4580   -1.8730 ha        1 BA1      0.153000
     45 H7'         1.1470    1.1430   -2.0930 ha        1 BA1      0.151500
     46 HN1'        5.2400    3.2560   -1.1380 ho        1 BA1      0.467000
     47 HN1        -5.0000   -2.1010   -1.0970 hn        1 BA1      0.371800
     48 H21        -3.1660   -1.2980    0.0210 h1        1 BA1      0.040700
     49 H22        -2.6390   -1.8590   -1.6330 h1        1 BA1      0.040700
     50 H3         -3.1420    1.0410   -0.6000 h1        1 BA1      0.093700
     51 H4         -3.0520   -0.0880   -3.4670 h1        1 BA1      0.095700
     52 H51        -4.3470    2.1790   -3.7420 hc        1 BA1      0.055200
     53 H52        -4.2930    2.3360   -1.9440 hc        1 BA1      0.055200
     54 H61        -5.6090    0.0790   -3.6100 hc        1 BA1      0.051700
     55 H62        -6.4340    1.3690   -2.6440 hc        1 BA1      0.051700
     56 H71        -5.3270    0.4670   -0.5390 h1        1 BA1      0.032700
     57 H72        -6.5760   -0.5900   -1.3300 h1        1 BA1      0.032700
     58 H3B        -1.0750    3.9400   -3.5980 ha        1 BA1      0.171000
     59 HO4'       -0.1780    5.9930   -3.7490 ho        1 BA1      0.445000
     60 HO6'        4.2080    2.8320   -5.4890 ho        1 BA1      0.445000
     61 H7B         1.4910    0.7190   -4.9500 ha        1 BA1      0.171000
     62 H2OA        2.4090    8.6330   -5.5670 ho        1 BA1      0.425000
     63 H112        3.2190    9.4890   -3.6210 ha        1 BA1      0.142000
     64 H122        4.3470    8.9250   -1.4650 ha        1 BA1      0.144000
     65 H132        4.9980    6.5640   -0.9740 ha        1 BA1      0.162000
     66 H1'2       -0.6570   -0.1920   -1.6700 hn        1 BA1      0.327500
@<TRIPOS>BOND
     1    1    2 1   
     2    1    9 2   
     3    1   10 1   
     4    2    3 ar  
     5    2    8 ar  
     6    3    4 ar  
     7    3   41 1   
     8    4    5 ar  
     9    4   42 1   
    10    5    6 1   
    11    5    7 ar  
    12    6   43 1   
    13    7    8 ar  
    14    7   44 1   
    15    8   45 1   
    16   10   13 1   
    17   10   66 1   
    18   11   12 1   
    19   11   17 1   
    20   11   47 1   
    21   12   13 1   
    22   12   48 1   
    23   12   49 1   
    24   13   14 1   
    25   13   50 1   
    26   14   15 1   
    27   14   18 1   
    28   14   51 1   
    29   15   16 1   
    30   15   52 1   
    31   15   53 1   
    32   16   17 1   
    33   16   54 1   
    34   16   55 1   
    35   17   56 1   
    36   17   57 1   
    37   18   19 1   
    38   19   20 2   
    39   19   21 1   
    40   21   22 ar  
    41   21   28 ar  
    42   22   23 ar  
    43   22   58 1   
    44   23   24 1   
    45   23   25 ar  
    46   24   59 1   
    47   25   26 ar  
    48   25   29 1   
    49   26   27 1   
    50   26   28 ar  
    51   27   60 1   
    52   28   61 1   
    53   29   30 2   
    54   29   31 1   
    55   31   32 ar  
    56   31   37 ar  
    57   32   33 1   
    58   32   34 ar  
    59   33   62 1   
    60   34   35 ar  
    61   34   63 1   
    62   35   36 ar  
    63   35   64 1   
    64   36   37 ar  
    65   36   65 1   
    66   37   38 1   
    67   38   39 1   
    68   38   40 2   
    69   39   46 1   
@<TRIPOS>SUBSTRUCTURE
     1 BA1         1 TEMP              0 ****  ****    0 ROOT
