@<TRIPOS>MOLECULE
BA1
   65    68     1     0     0
SMALL
bcc


@<TRIPOS>ATOM
      1 C1'         1.6470   -0.3910   -4.2450 c         1 BA1      0.673700
      2 C2'         2.7560   -0.0520   -3.3100 ca        1 BA1     -0.182600
      3 C3'         4.0270    0.2000   -3.8430 ca        1 BA1     -0.055000
      4 C4'         5.0960    0.5020   -3.0070 ca        1 BA1     -0.194000
      5 C5'         4.8860    0.5390   -1.6170 ca        1 BA1      0.141100
      6 O5'         5.9770    0.8420   -0.8380 oh        1 BA1     -0.502100
      7 C6'         3.6210    0.2720   -1.0720 ca        1 BA1     -0.194000
      8 C7'         2.5610   -0.0200   -1.9260 ca        1 BA1     -0.055000
      9 O1'         1.8390   -1.0820   -5.2690 o         1 BA1     -0.623100
     10 N1'         0.4010    0.1430   -3.9700 n         1 BA1     -0.547900
     11 N1         -2.1810    0.0280   -6.7320 n3        1 BA1     -0.835200
     12 C2         -0.9830    0.3550   -5.9920 c3        1 BA1      0.152800
     13 C3         -0.7890   -0.3620   -4.6260 c3        1 BA1      0.100700
     14 C4         -2.0910   -0.2280   -3.7840 c3        1 BA1      0.147100
     15 C5         -3.0150   -1.4170   -4.0210 c3        1 BA1     -0.095400
     16 C6         -3.7180   -1.3560   -5.3540 c3        1 BA1     -0.076400
     17 C7         -2.7600   -1.2850   -6.5430 c3        1 BA1      0.167800
     18 OAC        -1.7200   -0.2270   -2.3920 os        1 BA1     -0.460900
     19 C1B        -2.4980    0.4900   -1.5130 c         1 BA1      0.656700
     20 OBC        -3.5660    0.9460   -1.9270 o         1 BA1     -0.539000
     21 C2B        -1.8880    0.6230   -0.1790 ca        1 BA1     -0.065600
     22 C3B        -2.5110    1.4290    0.7680 ca        1 BA1     -0.174500
     23 C4B        -1.8970    1.6200    2.0260 ca        1 BA1      0.218600
     24 O4'        -2.5580    2.4570    2.8690 oh        1 BA1     -0.509600
     25 C5B        -0.6510    1.0240    2.3310 ca        1 BA1     -0.250600
     26 C6B        -0.0700    0.1900    1.3570 ca        1 BA1      0.218600
     27 O6'         1.1640   -0.4050    1.4800 oh        1 BA1     -0.509600
     28 C7B        -0.6840   -0.0240    0.1140 ca        1 BA1     -0.174500
     29 C8'        -0.0080    1.3500    3.6270 c         1 BA1      0.641300
     30 O8'         0.0470    2.5300    4.0090 o         1 BA1     -0.564100
     31 C9'         0.6280    0.2710    4.4210 ca        1 BA1     -0.228600
     32 CXU         2.0270    0.2540    4.6000 ca        1 BA1      0.111100
     33 OXU         2.8560    1.1910    4.0140 oh        1 BA1     -0.530100
     34 CX4         2.6480   -0.7610    5.3370 ca        1 BA1     -0.181000
     35 CXE         1.8580   -1.7470    5.9280 ca        1 BA1     -0.110000
     36 CXO         0.4720   -1.7060    5.8080 ca        1 BA1     -0.136000
     37 CXY        -0.1530   -0.6920    5.0730 ca        1 BA1     -0.061600
     38 CX8        -1.6750   -0.6120    5.0480 c         1 BA1      0.919200
     39 OX8        -2.3320   -1.6250    5.3910 o         1 BA1     -0.818300
     40 OXI        -2.1830    0.4960    4.7000 o         1 BA1     -0.818300
     41 H3'         4.1730    0.1470   -4.9340 ha        1 BA1      0.152000
     42 H4'         6.0960    0.7070   -3.4110 ha        1 BA1      0.153000
     43 HO5'        5.6930    0.8340    0.0890 ho        1 BA1      0.427000
     44 H6'         3.4580    0.2880    0.0170 ha        1 BA1      0.153000
     45 H7'         1.5760   -0.2400   -1.4800 ha        1 BA1      0.152000
     46 HN1'        0.2610    0.5990   -3.0960 hn        1 BA1      0.323500
     47 HN1        -2.0070    0.1830   -7.7070 hn        1 BA1      0.361800
     48 H21        -0.0520    0.1380   -6.5980 h1        1 BA1      0.045200
     49 H22        -1.0260    1.4690   -5.8160 h1        1 BA1      0.045200
     50 H3         -0.6190   -1.4630   -4.8380 h1        1 BA1      0.067700
     51 H4         -2.6150    0.7370   -4.0310 h1        1 BA1      0.090700
     52 H51        -2.4320   -2.3700   -3.9300 hc        1 BA1      0.057200
     53 H52        -3.7850   -1.4170   -3.2010 hc        1 BA1      0.057200
     54 H61        -4.3380   -2.2840   -5.4730 hc        1 BA1      0.049700
     55 H62        -4.4160   -0.4780   -5.3720 hc        1 BA1      0.049700
     56 H71        -1.9780   -2.0920   -6.4280 h1        1 BA1      0.026700
     57 H72        -3.3550   -1.5310   -7.4710 h1        1 BA1      0.026700
     58 H3B        -3.4730    1.9190    0.5540 ha        1 BA1      0.160500
     59 HO4'       -2.2580    2.2990    3.7880 ho        1 BA1      0.467000
     60 HO6'        1.3810   -0.4870    2.4220 ho        1 BA1      0.467000
     61 H7B        -0.2190   -0.7030   -0.6140 ha        1 BA1      0.160500
     62 H2OA        2.3490    2.0140    3.9290 ho        1 BA1      0.432000
     63 H112        3.7400   -0.7630    5.4440 ha        1 BA1      0.134000
     64 H122        2.3390   -2.5510    6.5040 ha        1 BA1      0.120000
     65 H132       -0.1690   -2.4650    6.2870 ha        1 BA1      0.163000
@<TRIPOS>BOND
     1    1    2 1   
     2    1    9 2   
     3    1   10 1   
     4    2    3 ar  
     5    2    8 ar  
     6    3    4 ar  
     7    3   41 1   
     8    4    5 ar  
     9    4   42 1   
    10    5    6 1   
    11    5    7 ar  
    12    6   43 1   
    13    7    8 ar  
    14    7   44 1   
    15    8   45 1   
    16   10   13 1   
    17   10   46 1   
    18   11   12 1   
    19   11   17 1   
    20   11   47 1   
    21   12   13 1   
    22   12   48 1   
    23   12   49 1   
    24   13   14 1   
    25   13   50 1   
    26   14   15 1   
    27   14   18 1   
    28   14   51 1   
    29   15   16 1   
    30   15   52 1   
    31   15   53 1   
    32   16   17 1   
    33   16   54 1   
    34   16   55 1   
    35   17   56 1   
    36   17   57 1   
    37   18   19 1   
    38   19   20 2   
    39   19   21 1   
    40   21   22 ar  
    41   21   28 ar  
    42   22   23 ar  
    43   22   58 1   
    44   23   24 1   
    45   23   25 ar  
    46   24   59 1   
    47   25   26 ar  
    48   25   29 1   
    49   26   27 1   
    50   26   28 ar  
    51   27   60 1   
    52   28   61 1   
    53   29   30 2   
    54   29   31 1   
    55   31   32 ar  
    56   31   37 ar  
    57   32   33 1   
    58   32   34 ar  
    59   33   62 1   
    60   34   35 ar  
    61   34   63 1   
    62   35   36 ar  
    63   35   64 1   
    64   36   37 ar  
    65   36   65 1   
    66   37   38 1   
    67   38   39 1   
    68   38   40 1   
@<TRIPOS>SUBSTRUCTURE
     1 BA1         1 TEMP              0 ****  ****    0 ROOT
