@<TRIPOS>MOLECULE
BA1
   66    69     1     0     0
SMALL
bcc


@<TRIPOS>ATOM
      1 C1'        -0.7090    1.0880    0.0070 c         1 BA1      0.682700
      2 C2'         0.7760    1.1870    0.1030 ca        1 BA1     -0.176600
      3 C3'         1.3450    1.3040    1.3770 ca        1 BA1     -0.052000
      4 C4'         2.7180    1.4830    1.5210 ca        1 BA1     -0.194500
      5 C5'         3.5200    1.5600    0.3730 ca        1 BA1      0.138100
      6 O5'         4.8780    1.7800    0.4280 oh        1 BA1     -0.512100
      7 C6'         2.9630    1.4340   -0.9100 ca        1 BA1     -0.194500
      8 C7'         1.5910    1.2420   -1.0340 ca        1 BA1     -0.052000
      9 O1'        -1.4480    1.6730    0.8270 o         1 BA1     -0.614100
     10 N1'        -1.2380    0.3200   -1.0120 ns        1 BA1     -0.570900
     11 N1         -4.5860   -1.3280   -1.5300 n7        1 BA1     -0.840200
     12 C2         -3.2420   -1.1030   -1.0540 c3        1 BA1      0.156800
     13 C3         -2.6480    0.3110   -1.3210 c3        1 BA1      0.087700
     14 C4         -2.9740    0.7460   -2.7790 c3        1 BA1      0.140100
     15 C5         -4.2840    1.5300   -2.8300 c3        1 BA1     -0.078400
     16 C6         -5.4980    0.6390   -2.7310 c3        1 BA1     -0.077400
     17 C7         -5.5140   -0.2210   -1.4660 c3        1 BA1      0.167800
     18 OAC        -1.9960    1.6830   -3.2870 os        1 BA1     -0.430900
     19 C1B        -0.8560    1.1740   -3.8390 c         1 BA1      0.643700
     20 OBC        -0.7380   -0.0530   -3.9340 o         1 BA1     -0.549000
     21 C2B         0.1450    2.1890   -4.2210 ca        1 BA1     -0.046600
     22 C3B        -0.0950    3.5530   -4.0330 ca        1 BA1     -0.194000
     23 C4B         0.9210    4.4740   -4.3190 ca        1 BA1      0.208100
     24 O4'         0.7180    5.8220   -4.1510 oh        1 BA1     -0.484600
     25 C5B         2.1850    4.0590   -4.7900 ca        1 BA1     -0.248600
     26 C6B         2.3820    2.6770   -5.0030 ca        1 BA1      0.208100
     27 O6'         3.5400    2.1350   -5.4750 oh        1 BA1     -0.484600
     28 C7B         1.3650    1.7410   -4.7180 ca        1 BA1     -0.194000
     29 C8'         3.2900    5.0010   -5.0720 c         1 BA1      0.629300
     30 O8'         4.0090    4.8660   -6.0680 o         1 BA1     -0.510100
     31 C9'         3.5520    6.0840   -4.0870 ca        1 BA1     -0.115600
     32 CXU         3.2030    7.4140   -4.3960 ca        1 BA1      0.161100
     33 OXU         2.6160    7.6340   -5.6180 oh        1 BA1     -0.476100
     34 CX4         3.4530    8.4560   -3.4880 ca        1 BA1     -0.187000
     35 CXE         4.0680    8.1750   -2.2740 ca        1 BA1     -0.094000
     36 CXO         4.4410    6.8690   -1.9600 ca        1 BA1     -0.112000
     37 CXY         4.1920    5.8290   -2.8630 ca        1 BA1     -0.073600
     38 CX8         4.6270    4.4630   -2.5250 c         1 BA1      0.658700
     39 OX8         4.9870    4.2770   -1.2260 oh        1 BA1     -0.600100
     40 OXI         4.7130    3.4740   -3.2670 o         1 BA1     -0.576000
     41 H3'         0.6920    1.2730    2.2650 ha        1 BA1      0.151500
     42 H4'         3.1650    1.5750    2.5210 ha        1 BA1      0.153000
     43 HO5'        5.1370    1.8460    1.3580 ho        1 BA1      0.429000
     44 H6'         3.6120    1.5050   -1.7970 ha        1 BA1      0.153000
     45 H7'         1.1590    1.1580   -2.0460 ha        1 BA1      0.151500
     46 HN1'       -0.6370   -0.1870   -1.6190 hn        1 BA1      0.327500
     47 HN1        -4.9670   -2.1310   -1.0660 hn        1 BA1      0.371800
     48 H21        -3.1590   -1.2810    0.0600 h1        1 BA1      0.040700
     49 H22        -2.6010   -1.8750   -1.5720 h1        1 BA1      0.040700
     50 H3         -3.1510    1.0420   -0.6160 h1        1 BA1      0.093700
     51 H4         -3.0050   -0.1530   -3.4530 h1        1 BA1      0.095700
     52 H51        -4.2940    2.2930   -2.0070 hc        1 BA1      0.055200
     53 H52        -4.3200    2.0930   -3.8010 hc        1 BA1      0.055200
     54 H61        -5.5610   -0.0170   -3.6390 hc        1 BA1      0.051700
     55 H62        -6.4140    1.2860   -2.7160 hc        1 BA1      0.051700
     56 H71        -6.5550   -0.6430   -1.3580 h1        1 BA1      0.032700
     57 H72        -5.3300    0.4460   -0.5740 h1        1 BA1      0.032700
     58 H3B        -1.0700    3.8930   -3.6520 ha        1 BA1      0.171000
     59 HO4'       -0.1920    5.9510   -3.8380 ho        1 BA1      0.445000
     60 HO6'        4.2540    2.7980   -5.4350 ho        1 BA1      0.445000
     61 H7B         1.5510    0.6680   -4.8860 ha        1 BA1      0.171000
     62 H2OA        2.3940    8.5750   -5.6800 ho        1 BA1      0.425000
     63 H112        3.1660    9.4870   -3.7440 ha        1 BA1      0.142000
     64 H122        4.2660    8.9880   -1.5580 ha        1 BA1      0.144000
     65 H132        4.9340    6.6460   -1.0000 ha        1 BA1      0.162000
     66 H1'2        5.2140    3.3380   -1.0810 ho        1 BA1      0.467000
@<TRIPOS>BOND
     1    1    2 1   
     2    1    9 2   
     3    1   10 1   
     4    2    3 ar  
     5    2    8 ar  
     6    3    4 ar  
     7    3   41 1   
     8    4    5 ar  
     9    4   42 1   
    10    5    6 1   
    11    5    7 ar  
    12    6   43 1   
    13    7    8 ar  
    14    7   44 1   
    15    8   45 1   
    16   10   13 1   
    17   10   46 1   
    18   11   12 1   
    19   11   17 1   
    20   11   47 1   
    21   12   13 1   
    22   12   48 1   
    23   12   49 1   
    24   13   14 1   
    25   13   50 1   
    26   14   15 1   
    27   14   18 1   
    28   14   51 1   
    29   15   16 1   
    30   15   52 1   
    31   15   53 1   
    32   16   17 1   
    33   16   54 1   
    34   16   55 1   
    35   17   56 1   
    36   17   57 1   
    37   18   19 1   
    38   19   20 2   
    39   19   21 1   
    40   21   22 ar  
    41   21   28 ar  
    42   22   23 ar  
    43   22   58 1   
    44   23   24 1   
    45   23   25 ar  
    46   24   59 1   
    47   25   26 ar  
    48   25   29 1   
    49   26   27 1   
    50   26   28 ar  
    51   27   60 1   
    52   28   61 1   
    53   29   30 2   
    54   29   31 1   
    55   31   32 ar  
    56   31   37 ar  
    57   32   33 1   
    58   32   34 ar  
    59   33   62 1   
    60   34   35 ar  
    61   34   63 1   
    62   35   36 ar  
    63   35   64 1   
    64   36   37 ar  
    65   36   65 1   
    66   37   38 1   
    67   38   39 1   
    68   38   40 2   
    69   39   66 1   
@<TRIPOS>SUBSTRUCTURE
     1 BA1         1 TEMP              0 ****  ****    0 ROOT
