@<TRIPOS>MOLECULE
BA1
   66    69     1     0     0
SMALL
bcc


@<TRIPOS>ATOM
      1 C1'        -0.9540    2.9910   -0.0630 c         1 BA1      0.588700
      2 C2'         0.0180    2.6440    0.9800 ca        1 BA1     -0.229600
      3 C3'        -0.4890    2.3560    2.2620 ca        1 BA1     -0.028000
      4 C4'         0.3700    2.0420    3.3020 ca        1 BA1     -0.203000
      5 C5'         1.7590    2.0370    3.0630 ca        1 BA1      0.177100
      6 O5'         2.5570    1.7180    4.1290 oh        1 BA1     -0.484100
      7 C6'         2.2720    2.3490    1.7950 ca        1 BA1     -0.203000
      8 C7'         1.4000    2.6540    0.7550 ca        1 BA1     -0.028000
      9 O1'        -2.0050    3.6050    0.1060 o         1 BA1     -0.467100
     10 N1'        -0.6720    2.5220   -1.4590 n4        1 BA1     -0.683800
     11 N1         -0.9240   -1.1380   -2.4150 n3        1 BA1     -0.842200
     12 C2         -0.3960    0.0720   -1.8370 c3        1 BA1      0.148800
     13 C3         -1.4100    1.2470   -1.7580 c3        1 BA1      0.131500
     14 C4         -2.3000    1.2880   -3.0350 c3        1 BA1      0.167100
     15 C5         -3.5690    0.4670   -2.8220 c3        1 BA1     -0.096400
     16 C6         -3.3410   -1.0210   -2.9310 c3        1 BA1     -0.082400
     17 C7         -2.2470   -1.5480   -2.0010 c3        1 BA1      0.165800
     18 OAC        -2.6990    2.6470   -3.2660 os        1 BA1     -0.497900
     19 C1B        -2.5360    3.1040   -4.5820 c         1 BA1      0.662700
     20 OBC        -3.2600    2.5970   -5.4270 o         1 BA1     -0.456000
     21 C2B        -1.4680    4.1120   -4.6820 ca        1 BA1     -0.070600
     22 C3B        -1.2780    5.0010   -3.6240 ca        1 BA1     -0.192000
     23 C4B        -0.0540    5.6850   -3.5240 ca        1 BA1      0.233100
     24 O4'         0.0870    6.4910   -2.4330 oh        1 BA1     -0.483600
     25 C5B         0.9660    5.4820   -4.4820 ca        1 BA1     -0.285600
     26 C6B         0.6660    4.7160   -5.6240 ca        1 BA1      0.233100
     27 O6'         1.5060    4.5790   -6.6960 oh        1 BA1     -0.483600
     28 C7B        -0.5510    4.0140   -5.7270 ca        1 BA1     -0.192000
     29 C8'         2.3290    5.9700   -4.1830 c         1 BA1      0.616300
     30 O8'         2.5410    7.1440   -3.8460 o         1 BA1     -0.542100
     31 C9'         3.4280    4.9810   -4.2770 ca        1 BA1     -0.230600
     32 CXU         4.5670    5.2880   -5.0500 ca        1 BA1      0.140100
     33 OXU         4.6890    6.4540   -5.7690 oh        1 BA1     -0.512100
     34 CX4         5.6210    4.3690   -5.1840 ca        1 BA1     -0.156000
     35 CXE         5.5450    3.1510   -4.5190 ca        1 BA1     -0.091000
     36 CXO         4.4420    2.8510   -3.7190 ca        1 BA1     -0.132000
     37 CXY         3.3880    3.7600   -3.5830 ca        1 BA1     -0.048600
     38 CX8         2.2610    3.3800   -2.6750 c         1 BA1      0.905200
     39 OX8         1.9550    2.1500   -2.5150 o         1 BA1     -0.859300
     40 OXI         1.5880    4.2470   -2.0320 o         1 BA1     -0.859300
     41 H3'        -1.5780    2.3890    2.4360 ha        1 BA1      0.178000
     42 H4'        -0.0090    1.8080    4.3070 ha        1 BA1      0.159000
     43 HO5'        3.4830    1.7770    3.8470 ho        1 BA1      0.432000
     44 H6'         3.3590    2.3620    1.6210 ha        1 BA1      0.159000
     45 H7'         1.8190    2.9310   -0.2350 ha        1 BA1      0.178000
     46 HN1'        0.3710    2.3950   -1.6020 hn        1 BA1      0.501800
     47 HN1        -0.2580   -1.8780   -2.3050 hn        1 BA1      0.388800
     48 H21         0.4870    0.3740   -2.4820 h1        1 BA1      0.069700
     49 H22        -0.0130   -0.0910   -0.7840 h1        1 BA1      0.069700
     50 H3         -2.1040    1.0640   -0.8820 hx        1 BA1      0.084700
     51 H4         -1.7200    0.9010   -3.9180 h1        1 BA1      0.095700
     52 H51        -4.0230    0.7230   -1.8290 hc        1 BA1      0.066700
     53 H52        -4.3060    0.7860   -3.6110 hc        1 BA1      0.066700
     54 H61        -3.0920   -1.2850   -3.9930 hc        1 BA1      0.058700
     55 H62        -4.2970   -1.5480   -2.6670 hc        1 BA1      0.058700
     56 H71        -2.2950   -2.6740   -2.0260 h1        1 BA1      0.033200
     57 H72        -2.4820   -1.2270   -0.9440 h1        1 BA1      0.033200
     58 H3B        -2.0510    5.1500   -2.8560 ha        1 BA1      0.170000
     59 HO4'        1.0360    6.5670   -2.2210 ho        1 BA1      0.450500
     60 HO6'        2.3780    4.9420   -6.4650 ho        1 BA1      0.450500
     61 H7B        -0.7400    3.3740   -6.6010 ha        1 BA1      0.170000
     62 H2OA        4.1920    7.1520   -5.3110 ho        1 BA1      0.442000
     63 H112        6.4860    4.6310   -5.8100 ha        1 BA1      0.154000
     64 H122        6.3630    2.4220   -4.6200 ha        1 BA1      0.137000
     65 H132        4.3770    1.8870   -3.1900 ha        1 BA1      0.159000
     66 H1'2       -0.9730    3.2600   -2.1190 hn        1 BA1      0.501800
@<TRIPOS>BOND
     1    1    2 1   
     2    1    9 2   
     3    1   10 1   
     4    2    3 ar  
     5    2    8 ar  
     6    3    4 ar  
     7    3   41 1   
     8    4    5 ar  
     9    4   42 1   
    10    5    6 1   
    11    5    7 ar  
    12    6   43 1   
    13    7    8 ar  
    14    7   44 1   
    15    8   45 1   
    16   10   13 1   
    17   10   46 1   
    18   10   66 1   
    19   11   12 1   
    20   11   17 1   
    21   11   47 1   
    22   12   13 1   
    23   12   48 1   
    24   12   49 1   
    25   13   14 1   
    26   13   50 1   
    27   14   15 1   
    28   14   18 1   
    29   14   51 1   
    30   15   16 1   
    31   15   52 1   
    32   15   53 1   
    33   16   17 1   
    34   16   54 1   
    35   16   55 1   
    36   17   56 1   
    37   17   57 1   
    38   18   19 1   
    39   19   20 2   
    40   19   21 1   
    41   21   22 ar  
    42   21   28 ar  
    43   22   23 ar  
    44   22   58 1   
    45   23   24 1   
    46   23   25 ar  
    47   24   59 1   
    48   25   26 ar  
    49   25   29 1   
    50   26   27 1   
    51   26   28 ar  
    52   27   60 1   
    53   28   61 1   
    54   29   30 2   
    55   29   31 1   
    56   31   32 ar  
    57   31   37 ar  
    58   32   33 1   
    59   32   34 ar  
    60   33   62 1   
    61   34   35 ar  
    62   34   63 1   
    63   35   36 ar  
    64   35   64 1   
    65   36   37 ar  
    66   36   65 1   
    67   37   38 1   
    68   38   39 1   
    69   38   40 1   
@<TRIPOS>SUBSTRUCTURE
     1 BA1         1 TEMP              0 ****  ****    0 ROOT
