@<TRIPOS>MOLECULE
BA1
   65    61     1     0     0
SMALL
bcc


@<TRIPOS>ATOM
      1 C1'         0.7570   -3.6150    2.8940 c1        1 BA1      0.357000
      2 C2'         2.3250   -3.6360    2.8400 c1        1 BA1     -0.160000
      3 C3'         3.0650   -4.0490    3.9620 c2        1 BA1     -0.044000
      4 C4'         4.4530   -4.0280    3.9230 c1        1 BA1     -0.233000
      5 C5'         5.1100   -3.6010    2.7820 c1        1 BA1      0.098000
      6 O5'         6.5170   -3.5890    2.7450 oh        1 BA1     -0.243000
      7 C6'         4.3760   -3.1880    1.6600 c1        1 BA1     -0.157000
      8 C7'         2.9890   -3.2060    1.6910 c1        1 BA1     -0.060000
      9 O1'         0.1820   -3.9540    3.9030 o         1 BA1     -0.392000
     10 N1'        -0.0120   -3.2760    1.6940 n3        1 BA1     -0.375000
     11 N1         -3.1590   -4.8340    0.9020 n3        1 BA1     -0.315000
     12 C2         -1.8670   -4.8010    1.4380 c3        1 BA1     -0.087000
     13 C3         -1.4230   -3.3460    1.7140 c3        1 BA1      0.015000
     14 C4         -1.9970   -2.3900    0.6690 c3        1 BA1      0.034000
     15 C5         -3.3020   -1.7860    1.1550 c3        1 BA1     -0.159000
     16 C6         -4.4350   -2.7900    1.0500 c3        1 BA1     -0.155000
     17 C7         -4.0450   -4.1320    1.7030 c3        1 BA1     -0.068000
     18 OAC        -1.0530   -1.3410    0.4240 os        1 BA1     -0.274000
     19 C1B        -1.1820   -0.7210   -0.8710 c2        1 BA1      0.355000
     20 OBC        -1.4400   -1.3670   -1.8010 o         1 BA1     -0.382000
     21 C2B        -0.9480    0.7800   -1.0250 c2        1 BA1     -0.052000
     22 C3B         0.0520    1.2490   -1.8770 c2        1 BA1     -0.204000
     23 C4B         0.2370    2.5920   -2.0390 c1        1 BA1      0.160500
     24 O4'         1.2500    3.0630   -2.8910 o         1 BA1     -0.249500
     25 C5B        -0.5830    3.5080   -1.3440 c2        1 BA1     -0.194000
     26 C6B        -1.5770    3.0450   -0.4980 c1        1 BA1      0.160500
     27 O6'        -2.4640    3.9930    0.1790 o         1 BA1     -0.249500
     28 C7B        -1.7630    1.6860   -0.3340 c2        1 BA1     -0.204000
     29 C8'        -0.3780    5.0210   -1.5400 c2        1 BA1      0.356000
     30 O8'        -0.8090    5.8150   -0.7020 o         1 BA1     -0.244000
     31 C9'         0.4460    5.5180   -2.6830 c2        1 BA1     -0.149000
     32 CXU        -0.1730    5.8500   -3.9010 c2        1 BA1      0.090000
     33 OXU        -1.5970    5.7610   -4.0250 oh        1 BA1     -0.255000
     34 CX4         0.5670    6.4240   -4.9160 c1        1 BA1     -0.243000
     35 CXE         1.9080    6.6710   -4.7370 c1        1 BA1     -0.122500
     36 CXO         2.5310    6.3390   -3.5180 c1        1 BA1     -0.122500
     37 CXY         1.7980    5.7670   -2.5030 c1        1 BA1     -0.047000
     38 CX8         2.4320    5.5340   -1.1630 c2        1 BA1      0.364000
     39 OX8         3.4080    4.7630   -1.0660 o         1 BA1     -0.544000
     40 OXI         2.0920    6.2680   -0.1570 o         1 BA1     -0.544000
     41 H3'         2.6110   -4.4080    4.7360 ha        1 BA1      0.150000
     42 H4'         4.9570   -4.3090    4.6850 ha        1 BA1      0.132000
     43 HO5'        6.8120   -4.3960    2.5780 ho        1 BA1      0.215000
     44 H6'         4.8520   -2.8820    0.8390 ha        1 BA1      0.169000
     45 H7'         2.4640   -2.9510    0.8710 ha        1 BA1      0.152000
     46 HN1'        0.4040   -3.0010    0.9730 hn        1 BA1      0.247000
     47 HN1        -3.4460   -5.7290    0.8280 hn        1 BA1      0.158000
     48 H21        -1.8570   -5.3000    2.2770 h1        1 BA1      0.079000
     49 H22        -1.2290   -5.2280    0.7930 h1        1 BA1      0.079000
     50 H3         -1.7410   -3.0820    2.5850 h1        1 BA1      0.126000
     51 H4         -2.1620   -2.8900   -0.1850 h1        1 BA1      0.127000
     52 H51        -3.1940   -1.4990    2.1440 hc        1 BA1      0.095000
     53 H52        -3.5120   -1.0190    0.6250 hc        1 BA1      0.095000
     54 H61        -4.6530   -2.9460    0.0750 hc        1 BA1      0.087000
     55 H62        -5.2820   -2.4020    1.5380 hc        1 BA1      0.087000
     56 H71        -4.8370   -4.6610    1.8370 h1        1 BA1      0.067000
     57 H72        -3.6250   -3.9600    2.5630 h1        1 BA1      0.067000
     58 H3B         0.6630    0.6360   -2.2740 ha        1 BA1      0.154500
     59 HO4'        1.9640    2.4890   -2.8660 ho        1 BA1      0.255000
     60 HO6'       -3.1530    3.5450    0.5530 ho        1 BA1      0.255000
     61 H7B        -2.4640    1.3580    0.2620 ha        1 BA1      0.154500
     62 H2OA       -1.8990    6.4480   -4.5000 ho        1 BA1      0.203000
     63 H112        0.1220    6.6630   -5.7880 ha        1 BA1      0.114000
     64 H122        2.4460    7.0300   -5.4810 ha        1 BA1      0.134500
     65 H132        3.4700    6.4960   -3.4010 ha        1 BA1      0.134500
@<TRIPOS>BOND
     1    1    9 1   
     2    1   10 1   
     3    2    3 1   
     4    2    8 1   
     5    3    4 1   
     6    3   41 1   
     7    4   42 1   
     8    5    6 1   
     9    5    7 1   
    10    6   43 1   
    11    7   44 1   
    12    8   45 1   
    13   10   13 1   
    14   10   46 1   
    15   11   12 1   
    16   11   17 1   
    17   11   47 1   
    18   12   13 1   
    19   12   48 1   
    20   12   49 1   
    21   13   14 1   
    22   13   50 1   
    23   14   15 1   
    24   14   18 1   
    25   14   51 1   
    26   15   16 1   
    27   15   52 1   
    28   15   53 1   
    29   16   17 1   
    30   16   54 1   
    31   16   55 1   
    32   17   56 1   
    33   17   57 1   
    34   18   19 1   
    35   19   20 1   
    36   19   21 1   
    37   21   22 1   
    38   21   28 1   
    39   22   23 1   
    40   22   58 1   
    41   23   25 1   
    42   24   59 1   
    43   25   26 1   
    44   25   29 1   
    45   26   28 1   
    46   27   60 1   
    47   28   61 1   
    48   29   30 1   
    49   29   31 1   
    50   31   32 1   
    51   31   37 1   
    52   32   33 1   
    53   32   34 1   
    54   33   62 1   
    55   34   63 1   
    56   35   36 1   
    57   35   64 1   
    58   36   65 1   
    59   37   38 1   
    60   38   39 1   
    61   38   40 1   
@<TRIPOS>SUBSTRUCTURE
     1 BA1         1 TEMP              0 ****  ****    0 ROOT
