@<TRIPOS>MOLECULE
BA2
   88    92     1     0     0
SMALL
bcc


@<TRIPOS>ATOM
      1 O31        -0.6320    0.1300    1.3360 o         1 BA2     -0.541500
      2 C30         0.5600   -0.1760    1.2260 c         1 BA2      0.752500
      3 N32         1.4820   -0.2540    2.3250 n         1 BA2     -0.529900
      4 C33         2.7930   -0.6450    1.8250 c3        1 BA2      0.058700
      5 C28         2.6380   -0.6740    0.2390 c3        1 BA2      0.070700
      6 N29         1.2160   -0.4970    0.0020 n         1 BA2     -0.530900
      7 C27         3.5600    0.3480   -0.4110 c3        1 BA2      0.005700
      8 C26         3.9470    0.2780    2.2500 c3        1 BA2      0.070400
      9 S25         4.8440    0.7460    0.7530 ss        1 BA2     -0.468200
     10 C24         3.5350    1.4840    3.0590 c3        1 BA2     -0.067400
     11 C23         4.7040    2.3950    3.3800 c3        1 BA2     -0.089400
     12 C22         4.3350    3.3580    4.4900 c3        1 BA2     -0.088400
     13 C21         5.1970    4.6070    4.5180 c3        1 BA2     -0.149400
     14 C19         6.6510    4.2880    4.7000 c         1 BA2      0.568100
     15 O20         7.2250    3.2170    4.7930 o         1 BA2     -0.432100
     16 N18         7.5680    5.5210    4.7660 n4        1 BA2     -0.695800
     17 C17         9.0240    5.2070    4.8070 c3        1 BA2      0.105800
     18 C16         9.5840    4.6320    3.5030 c3        1 BA2     -0.111400
     19 C15        11.0620    4.3480    3.6890 c3        1 BA2     -0.119400
     20 C14        11.7620    3.8850    2.4160 c3        1 BA2      0.127800
     21 N13        11.6500    2.3950    2.1950 n4        1 BA2     -0.704000
     22 C8         12.3640    1.9340    0.9940 cc        1 BA2      0.473700
     23 N9         11.9300    0.8010    0.2280 na        1 BA2     -0.235000
     24 C4         12.8680    0.6730   -0.8060 ca        1 BA2      0.504800
     25 C5         13.8460    1.7560   -0.5980 ca        1 BA2     -0.173200
     26 N7         13.4990    2.5160    0.5140 nd        1 BA2     -0.475100
     27 C6         14.9220    1.8100   -1.5340 ca        1 BA2      0.603200
     28 N6         15.9730    2.8360   -1.3970 n4        1 BA2     -0.830300
     29 N3         12.9500   -0.2160   -1.8410 nb        1 BA2     -0.630000
     30 C2         14.0150   -0.0260   -2.6460 ca        1 BA2      0.728900
     31 N1         15.0030    0.9310   -2.5450 nb        1 BA2     -0.630000
     32 C1'        10.8150   -0.0600    0.5990 c3        1 BA2      0.220800
     33 C2'         9.4070    0.5760    0.3280 c3        1 BA2      0.081100
     34 O2'         8.9930    1.2060    1.5140 oh        1 BA2     -0.646800
     35 C3'         8.5270   -0.6130   -0.1320 c3        1 BA2      0.119100
     36 O3'         7.6060   -0.9290    0.8790 oh        1 BA2     -0.612800
     37 C4'         9.5070   -1.8070   -0.2510 c3        1 BA2      0.098100
     38 O4'        10.8530   -1.3080   -0.1030 os        1 BA2     -0.398600
     39 C5'         9.4050   -2.5120   -1.6060 c3        1 BA2      0.101800
     40 N10        10.0810   -3.8380   -1.6240 n4        1 BA2     -0.768000
     41 C11         9.8730   -4.5590   -2.9320 c3        1 BA2      0.115800
     42 C12        10.5450   -5.9130   -2.9460 c3        1 BA2     -0.148100
     43 H32         1.1490   -0.7290    3.1360 hn        1 BA2      0.328500
     44 H29         0.9120   -0.0420   -0.8270 hn        1 BA2      0.336500
     45 H33         3.0560   -1.6890    2.1660 h1        1 BA2      0.073700
     46 H28         2.9150   -1.7040   -0.1290 h1        1 BA2      0.086700
     47 H26         4.6840   -0.3240    2.8450 h1        1 BA2      0.070700
     48 H271        4.0380   -0.0700   -1.3280 h1        1 BA2      0.091200
     49 H272        3.0270    1.2880   -0.6960 h1        1 BA2      0.091200
     50 H241        2.7510    2.0750    2.5110 hc        1 BA2      0.087200
     51 H242        3.0670    1.1250    4.0180 hc        1 BA2      0.087200
     52 H231        5.5920    1.7860    3.6980 hc        1 BA2      0.037200
     53 H232        4.9940    2.9580    2.4530 hc        1 BA2      0.037200
     54 H221        4.3910    2.8320    5.4810 hc        1 BA2      0.098700
     55 H222        3.2700    3.7020    4.3580 hc        1 BA2      0.098700
     56 H211        4.8530    5.2690    5.3640 hc        1 BA2      0.117700
     57 H212        5.0670    5.1770    3.5540 hc        1 BA2      0.117700
     58 H18         7.3610    6.1230    3.9620 hn        1 BA2      0.473800
     59 H171        9.5690    6.1640    5.0620 hx        1 BA2      0.124200
     60 H172        9.1860    4.4660    5.6450 hx        1 BA2      0.124200
     61 H161        9.0380    3.6880    3.2340 hc        1 BA2      0.073200
     62 H162        9.4400    5.3660    2.6650 hc        1 BA2      0.073200
     63 H151       11.5860    5.3010    3.9960 hc        1 BA2      0.108700
     64 H152       11.2140    3.6190    4.5320 hc        1 BA2      0.108700
     65 H141       11.3310    4.3970    1.5080 hx        1 BA2      0.130200
     66 H142       12.8620    4.1390    2.4940 hx        1 BA2      0.130200
     67 H13        10.6450    2.1430    2.1260 hn        1 BA2      0.489300
     68 H1'        10.9380   -0.2990    1.7030 h2        1 BA2      0.094700
     69 H6N1       15.5420    3.7710   -1.4050 hn        1 BA2      0.500133
     70 H6N2       16.4730    2.6930   -0.5070 hn        1 BA2      0.500133
     71 H2'         9.4390    1.3750   -0.4630 h1        1 BA2      0.113700
     72 HA          8.3380    0.6480    1.9740 ho        1 BA2      0.478000
     73 H3'         8.0280   -0.3770   -1.1090 h1        1 BA2      0.101700
     74 HB          6.7150   -0.5720    0.6410 ho        1 BA2      0.484000
     75 H4'         9.3240   -2.5190    0.6080 h1        1 BA2      0.119700
     76 H5'1        8.3110   -2.6720   -1.8450 hx        1 BA2      0.127200
     77 H5'2        9.8690   -1.8740   -2.4120 hx        1 BA2      0.127200
     78 H10        11.0880   -3.7120   -1.4640 hn        1 BA2      0.459800
     79 H111        8.7600   -4.6740   -3.0830 hx        1 BA2      0.111700
     80 H112       10.2870   -3.9020   -3.7500 hx        1 BA2      0.111700
     81 H121       10.1350   -6.5960   -2.1610 hc        1 BA2      0.096700
     82 H122       10.3420   -6.3850   -3.9460 hc        1 BA2      0.096700
     83 H123       11.6530   -5.8350   -2.8240 hc        1 BA2      0.096700
     84 H2C        14.1370   -0.7260   -3.5150 h5        1 BA2      0.132100
     85 H182        7.3270    6.0440    5.6220 hn        1 BA2      0.473800
     86 H132       12.0600    1.9020    3.0070 hn        1 BA2      0.489300
     87 H63        16.6570    2.7750   -2.1770 hn        1 BA2      0.500133
     88 H102        9.7150   -4.4280   -0.8640 hn        1 BA2      0.459800
@<TRIPOS>BOND
     1    1    2 2   
     2    2    3 1   
     3    2    6 1   
     4    3    4 1   
     5    3   43 1   
     6    4    5 1   
     7    4    8 1   
     8    4   45 1   
     9    5    6 1   
    10    5    7 1   
    11    5   46 1   
    12    6   44 1   
    13    7    9 1   
    14    7   48 1   
    15    7   49 1   
    16    8    9 1   
    17    8   10 1   
    18    8   47 1   
    19   10   11 1   
    20   10   50 1   
    21   10   51 1   
    22   11   12 1   
    23   11   52 1   
    24   11   53 1   
    25   12   13 1   
    26   12   54 1   
    27   12   55 1   
    28   13   14 1   
    29   13   56 1   
    30   13   57 1   
    31   14   15 2   
    32   14   16 1   
    33   16   17 1   
    34   16   58 1   
    35   16   85 1   
    36   17   18 1   
    37   17   59 1   
    38   17   60 1   
    39   18   19 1   
    40   18   61 1   
    41   18   62 1   
    42   19   20 1   
    43   19   63 1   
    44   19   64 1   
    45   20   21 1   
    46   20   65 1   
    47   20   66 1   
    48   21   22 1   
    49   21   67 1   
    50   21   86 1   
    51   22   23 1   
    52   22   26 2   
    53   23   24 1   
    54   23   32 1   
    55   24   25 ar  
    56   24   29 ar  
    57   25   26 1   
    58   25   27 ar  
    59   27   28 1   
    60   27   31 ar  
    61   28   69 1   
    62   28   70 1   
    63   28   87 1   
    64   29   30 ar  
    65   30   31 ar  
    66   30   84 1   
    67   32   33 1   
    68   32   38 1   
    69   32   68 1   
    70   33   34 1   
    71   33   35 1   
    72   33   71 1   
    73   34   72 1   
    74   35   36 1   
    75   35   37 1   
    76   35   73 1   
    77   36   74 1   
    78   37   38 1   
    79   37   39 1   
    80   37   75 1   
    81   39   40 1   
    82   39   76 1   
    83   39   77 1   
    84   40   41 1   
    85   40   78 1   
    86   40   88 1   
    87   41   42 1   
    88   41   79 1   
    89   41   80 1   
    90   42   81 1   
    91   42   82 1   
    92   42   83 1   
@<TRIPOS>SUBSTRUCTURE
     1 BA2         1 TEMP              0 ****  ****    0 ROOT
