@<TRIPOS>MOLECULE
BA2
   84    82     1     0     0
SMALL
bcc


@<TRIPOS>ATOM
      1 O31        -9.9510    1.0520    2.3790 o         1 BA2     -0.337000
      2 C30        -8.9590    0.5030    2.8250 c1        1 BA2      0.346000
      3 N32        -8.7020    0.2080    4.2230 n2        1 BA2     -0.318000
      4 C33        -7.5460   -0.5050    4.2650 c3        1 BA2     -0.021000
      5 C28        -7.3400   -1.0340    2.9920 c3        1 BA2     -0.005000
      6 N29        -8.0160   -0.2190    2.0850 n3        1 BA2     -0.350000
      7 C27        -5.7240   -1.0030    2.7560 c3        1 BA2     -0.282000
      8 C26        -6.1820    0.5760    4.5940 c3        1 BA2     -0.228000
      9 S25        -5.0840   -0.0250    4.0440 ss        1 BA2      0.079000
     10 C24        -6.4290    2.0040    3.9060 c3        1 BA2     -0.151000
     11 C23        -5.4950    3.0550    4.5500 c3        1 BA2     -0.161000
     12 C22        -5.0500    4.0830    3.4750 c3        1 BA2     -0.155000
     13 C21        -3.5130    4.2540    3.5300 c3        1 BA2     -0.185000
     14 C19        -3.0140    4.8430    2.2010 c2        1 BA2      0.298000
     15 O20        -3.0830    6.0500    2.0030 o         1 BA2     -0.368000
     16 N18        -2.3630    3.9960    1.2440 n         1 BA2     -0.378000
     17 C17        -1.0330    4.3090    0.7990 c3        1 BA2     -0.030000
     18 C16        -0.5580    3.2370   -0.1810 c3        1 BA2     -0.182000
     19 C15         0.5510    2.4100    0.4660 c3        1 BA2     -0.197000
     20 C14         0.8710    1.2000   -0.4190 c3        1 BA2     -0.054000
     21 N13         2.1570    0.6670   -0.0570 n3        1 BA2     -0.243000
     22 C8          3.0760    0.2400   -1.0850 c2        1 BA2      0.115000
     23 N9          3.8970   -0.4310   -1.9360 n2        1 BA2     -0.205000
     24 C4          5.1240    0.1640   -1.8950 c1        1 BA2      0.069000
     25 C5          5.0590    1.1970   -1.0210 c1        1 BA2     -0.213000
     26 N7          3.7890    1.2440   -0.5180 n1        1 BA2     -0.163000
     27 C6          6.2130    1.8960   -0.6860 c1        1 BA2      0.222000
     28 N6          6.6030    2.9840    0.1690 n2        1 BA2     -0.347000
     29 N3          6.3230   -0.1890   -2.4450 n1        1 BA2     -0.227000
     30 C2          7.4580    0.5010   -2.1150 c1        1 BA2      0.015000
     31 N1          7.3940    1.5450   -1.2310 n2        1 BA2     -0.258000
     32 C1'         3.4020   -1.4910   -2.7140 c2        1 BA2      0.119000
     33 C2'         3.5200   -1.2070   -3.9980 c3        1 BA2     -0.019000
     34 O2'         2.2670   -0.6300   -4.5100 oh        1 BA2     -0.312000
     35 C3'         3.8030   -2.5680   -4.6830 c3        1 BA2     -0.032000
     36 O3'         2.7330   -2.9750   -5.3610 oh        1 BA2     -0.320000
     37 C4'         4.1280   -3.5760   -3.5110 c3        1 BA2      0.019000
     38 O4'         4.2900   -2.8360   -2.4600 os        1 BA2     -0.293000
     39 C5'         5.4170   -4.3560   -3.8200 c3        1 BA2     -0.089000
     40 N10         5.0890   -5.7300   -4.1160 n3        1 BA2     -0.301000
     41 C11         5.7600   -6.5980   -3.1790 c3        1 BA2     -0.073000
     42 C12         5.0780   -7.9690   -3.1740 c3        1 BA2     -0.216000
     43 H32        -9.1270    0.5890    4.9420 hn        1 BA2      0.224000
     44 H29        -7.9850   -0.2890    1.1690 hn        1 BA2      0.237000
     45 H33        -7.5980   -1.2200    4.9380 h1        1 BA2      0.122000
     46 H28        -7.6770   -1.9570    2.9440 h1        1 BA2      0.102000
     47 H26        -6.0590    0.6830    5.5650 h1        1 BA2      0.120000
     48 H271       -5.3540   -1.9150    2.8050 h1        1 BA2      0.124500
     49 H272       -5.5150   -0.5980    1.8880 h1        1 BA2      0.124500
     50 H241       -7.3640    2.2730    4.0360 hc        1 BA2      0.095500
     51 H242       -6.2380    1.9410    2.9450 hc        1 BA2      0.095500
     52 H231       -4.7030    2.6060    4.9200 hc        1 BA2      0.093500
     53 H232       -5.9760    3.5230    5.2740 hc        1 BA2      0.093500
     54 H221       -5.4840    4.9520    3.6510 hc        1 BA2      0.087000
     55 H222       -5.3110    3.7620    2.5900 hc        1 BA2      0.087000
     56 H211       -3.2760    4.8630    4.2690 hc        1 BA2      0.113000
     57 H212       -3.0910    3.3790    3.6790 hc        1 BA2      0.113000
     58 H18        -2.7550    3.2100    0.9900 hn        1 BA2      0.219000
     59 H171       -0.4290    4.3370    1.5710 h1        1 BA2      0.104000
     60 H172       -1.0340    5.1860    0.3510 h1        1 BA2      0.104000
     61 H161       -1.3140    2.6470   -0.4150 hc        1 BA2      0.092500
     62 H162       -0.2140    3.6680   -0.9960 hc        1 BA2      0.092500
     63 H151        1.3530    2.9620    0.5660 hc        1 BA2      0.087500
     64 H152        0.2550    2.1000    1.3500 hc        1 BA2      0.087500
     65 H141        0.1820    0.5100   -0.2920 h1        1 BA2      0.108500
     66 H142        0.8860    1.4800   -1.3640 h1        1 BA2      0.108500
     67 H13         2.3890    0.5830    0.8310 hn        1 BA2      0.204000
     68 H1'         2.4620   -1.6610   -2.4920 h4        1 BA2      0.155000
     69 H6N1        7.4620    3.3090    0.1370 hn        1 BA2      0.237500
     70 H6N2        5.9840    3.3750    0.7240 hn        1 BA2      0.237500
     71 H2'         4.2690   -0.5880   -4.1450 h1        1 BA2      0.172000
     72 HA          1.6490   -1.2690   -4.5730 ho        1 BA2      0.218000
     73 H3'         4.5740   -2.4890   -5.2840 h1        1 BA2      0.116000
     74 HB          2.9150   -2.9760   -6.2300 ho        1 BA2      0.218000
     75 H4'         3.3770   -4.1970   -3.3780 h1        1 BA2      0.149000
     76 H5'1        5.8650   -3.9520   -4.5930 h1        1 BA2      0.083500
     77 H5'2        6.0180   -4.3220   -3.0360 h1        1 BA2      0.083500
     78 H10         5.3610   -5.9320   -4.9670 hn        1 BA2      0.156000
     79 H111        5.7140   -6.2070   -2.2810 h1        1 BA2      0.069500
     80 H112        6.7060   -6.7010   -3.4450 h1        1 BA2      0.069500
     81 H121        5.4040   -8.5010   -3.9390 hc        1 BA2      0.079667
     82 H122        5.2890   -8.4380   -2.3340 hc        1 BA2      0.079667
     83 H123        4.1100   -7.8510   -3.2470 hc        1 BA2      0.079667
     84 H2C         8.3170    0.2460   -2.5110 ha        1 BA2      0.188000
@<TRIPOS>BOND
     1    1    2 1   
     2    2    6 1   
     3    3    4 1   
     4    3   43 1   
     5    4    5 1   
     6    4    8 1   
     7    4   45 1   
     8    5    6 1   
     9    5    7 1   
    10    5   46 1   
    11    6   44 1   
    12    7    9 1   
    13    7   48 1   
    14    7   49 1   
    15    8    9 1   
    16    8   10 1   
    17    8   47 1   
    18   10   11 1   
    19   10   50 1   
    20   10   51 1   
    21   11   12 1   
    22   11   52 1   
    23   11   53 1   
    24   12   13 1   
    25   12   54 1   
    26   12   55 1   
    27   13   14 1   
    28   13   56 1   
    29   13   57 1   
    30   14   15 1   
    31   14   16 1   
    32   16   17 1   
    33   16   58 1   
    34   17   18 1   
    35   17   59 1   
    36   17   60 1   
    37   18   19 1   
    38   18   61 1   
    39   18   62 1   
    40   19   20 1   
    41   19   63 1   
    42   19   64 1   
    43   20   21 1   
    44   20   65 1   
    45   20   66 1   
    46   21   22 1   
    47   21   67 1   
    48   22   23 1   
    49   22   26 1   
    50   23   24 1   
    51   24   29 1   
    52   25   27 1   
    53   27   31 1   
    54   28   69 1   
    55   28   70 1   
    56   30   31 1   
    57   30   84 1   
    58   32   33 1   
    59   32   38 1   
    60   32   68 1   
    61   33   34 1   
    62   33   35 1   
    63   33   71 1   
    64   34   72 1   
    65   35   36 1   
    66   35   37 1   
    67   35   73 1   
    68   36   74 1   
    69   37   38 1   
    70   37   39 1   
    71   37   75 1   
    72   39   40 1   
    73   39   76 1   
    74   39   77 1   
    75   40   41 1   
    76   40   78 1   
    77   41   42 1   
    78   41   79 1   
    79   41   80 1   
    80   42   81 1   
    81   42   82 1   
    82   42   83 1   
@<TRIPOS>SUBSTRUCTURE
     1 BA2         1 TEMP              0 ****  ****    0 ROOT
