@<TRIPOS>MOLECULE
BA2
   84    88     1     0     0
SMALL
bcc


@<TRIPOS>ATOM
      1 O31         3.0730  -11.6430   -3.4200 o         1 BA2     -0.619500
      2 C30         2.6510  -10.8110   -2.5980 c         1 BA2      0.750500
      3 N32         1.3380  -10.2550   -2.6100 n         1 BA2     -0.518900
      4 C33         1.2550   -9.1950   -1.6140 c3        1 BA2      0.062700
      5 C28         2.6430   -9.2610   -0.8320 c3        1 BA2      0.058700
      6 N29         3.3690  -10.3690   -1.4460 n         1 BA2     -0.513900
      7 C27         3.3310   -7.9020   -0.8730 c3        1 BA2     -0.040300
      8 C26         1.0080   -7.7670   -2.1010 c3        1 BA2     -0.013600
      9 S25         2.5790   -6.9120   -2.1280 ss        1 BA2     -0.318200
     10 C24         0.3320   -7.6410   -3.4450 c3        1 BA2     -0.066400
     11 C23        -0.0500   -6.2010   -3.7280 c3        1 BA2     -0.089400
     12 C22        -0.8450   -6.0970   -5.0130 c3        1 BA2     -0.066400
     13 C21        -1.0380   -4.6660   -5.4640 c3        1 BA2     -0.150400
     14 C19        -2.0250   -3.9050   -4.5980 c         1 BA2      0.660100
     15 O20        -2.4860   -4.3720   -3.5340 o         1 BA2     -0.636100
     16 N18        -2.4270   -2.6610   -5.0490 n         1 BA2     -0.566900
     17 C17        -3.2830   -1.8110   -4.2670 c3        1 BA2      0.091000
     18 C16        -2.5870   -1.0960   -3.1060 c3        1 BA2     -0.114400
     19 C15        -3.5830   -0.2690   -2.3270 c3        1 BA2     -0.101400
     20 C14        -2.9350    0.4370   -1.1350 c3        1 BA2      0.186800
     21 N13        -2.5060   -0.4580   -0.0760 nh        1 BA2     -0.772200
     22 C8         -1.2300   -0.2340    0.4770 cc        1 BA2      0.595700
     23 N9         -0.4220   -1.3210    0.9950 na        1 BA2     -0.311000
     24 C4          0.7080   -0.7180    1.5690 ca        1 BA2      0.475800
     25 C5          0.5530    0.7120    1.3340 ca        1 BA2     -0.206200
     26 N7         -0.6440    0.9820    0.6620 nd        1 BA2     -0.583100
     27 C6          1.5950    1.5770    1.8070 ca        1 BA2      0.731200
     28 N6          1.5440    2.9300    1.5450 nh        1 BA2     -0.943500
     29 N3          1.7850   -1.2580    2.2120 nb        1 BA2     -0.725000
     30 C2          2.6810   -0.3250    2.6130 ca        1 BA2      0.666900
     31 N1          2.6640    1.0260    2.4700 nb        1 BA2     -0.782000
     32 C1'        -0.9040   -2.6810    1.0820 c3        1 BA2      0.255800
     33 C2'        -0.9390   -3.3920   -0.3140 c3        1 BA2      0.065100
     34 O2'        -2.3060   -3.6040   -0.6010 oh        1 BA2     -0.617800
     35 C3'        -0.1720   -4.7140   -0.1170 c3        1 BA2      0.082100
     36 O3'        -1.0320   -5.8280   -0.2140 oh        1 BA2     -0.593800
     37 C4'         0.4800   -4.5970    1.2720 c3        1 BA2      0.100100
     38 O4'        -0.1340   -3.4970    1.9640 os        1 BA2     -0.385600
     39 C5'         1.9940   -4.3860    1.1530 c3        1 BA2      0.158800
     40 N10         2.6530   -4.3680    2.4430 n3        1 BA2     -0.818200
     41 C11         4.0350   -3.9330    2.3590 c3        1 BA2      0.166800
     42 C12         4.6740   -3.6990    3.7180 c3        1 BA2     -0.097100
     43 H32         0.9320  -10.0970   -3.5030 hn        1 BA2      0.315500
     44 H29         4.3530  -10.2730   -1.5550 hn        1 BA2      0.312500
     45 H33         0.4250   -9.4790   -0.9040 h1        1 BA2      0.091700
     46 H28         2.4440   -9.5480    0.2400 h1        1 BA2      0.091700
     47 H26         0.3620   -7.2570   -1.3310 h1        1 BA2      0.107700
     48 H271        3.2230   -7.4000    0.1210 h1        1 BA2      0.085200
     49 H272        4.4230   -7.9730   -1.0950 h1        1 BA2      0.085200
     50 H241        1.0070   -8.0080   -4.2640 hc        1 BA2      0.054700
     51 H242       -0.5950   -8.2780   -3.4510 hc        1 BA2      0.054700
     52 H231        0.8830   -5.5800   -3.7990 hc        1 BA2      0.058700
     53 H232       -0.6650   -5.7940   -2.8780 hc        1 BA2      0.058700
     54 H221       -1.8480   -6.5800   -4.8660 hc        1 BA2      0.054200
     55 H222       -0.3130   -6.6540   -5.8300 hc        1 BA2      0.054200
     56 H211       -0.0560   -4.1220   -5.4420 hc        1 BA2      0.066700
     57 H212       -1.4060   -4.6660   -6.5260 hc        1 BA2      0.066700
     58 H18        -1.9310   -2.2440   -5.8000 hn        1 BA2      0.308500
     59 H171       -4.1140   -2.4470   -3.8450 h1        1 BA2      0.061200
     60 H172       -3.7350   -1.0450   -4.9570 h1        1 BA2      0.061200
     61 H161       -1.7640   -0.4380   -3.4900 hc        1 BA2      0.049200
     62 H162       -2.1210   -1.8700   -2.4360 hc        1 BA2      0.049200
     63 H151       -4.4280   -0.9200   -1.9790 hc        1 BA2      0.055700
     64 H152       -4.0220    0.5220   -2.9900 hc        1 BA2      0.055700
     65 H141       -3.6970    1.1290   -0.6700 h1        1 BA2      0.063200
     66 H142       -2.0880    1.0750   -1.5180 h1        1 BA2      0.063200
     67 H13        -2.6980   -1.4250   -0.2720 hn        1 BA2      0.422800
     68 H1'        -1.9450   -2.6580    1.5370 h2        1 BA2      0.101700
     69 H6N1        0.6670    3.3030    1.2730 hn        1 BA2      0.435300
     70 H6N2        2.1720    3.5320    2.0230 hn        1 BA2      0.435300
     71 H2'        -0.4660   -2.7790   -1.1260 h1        1 BA2      0.068700
     72 HA         -2.3550   -4.1570   -1.3990 ho        1 BA2      0.456000
     73 H3'         0.5940   -4.8830   -0.9260 h1        1 BA2      0.109700
     74 HB         -1.7700   -5.6860    0.3950 ho        1 BA2      0.420000
     75 H4'         0.2470   -5.4960    1.9080 h1        1 BA2      0.094700
     76 H5'1        2.1750   -3.4450    0.5550 h1        1 BA2      0.039700
     77 H5'2        2.4190   -5.2500    0.5640 h1        1 BA2      0.039700
     78 H10         2.1390   -3.7890    3.0840 hn        1 BA2      0.381800
     79 H111        4.6060   -4.7420    1.8190 h1        1 BA2      0.024700
     80 H112        4.1460   -2.9860    1.7490 h1        1 BA2      0.024700
     81 H121        4.1750   -2.8540    4.2520 hc        1 BA2      0.038367
     82 H122        4.6080   -4.6110    4.3580 hc        1 BA2      0.038367
     83 H123        5.7500   -3.4420    3.5730 hc        1 BA2      0.038367
     84 H2C         3.5700   -0.7280    3.1460 h5        1 BA2      0.049100
@<TRIPOS>BOND
     1    1    2 2   
     2    2    3 1   
     3    2    6 1   
     4    3    4 1   
     5    3   43 1   
     6    4    5 1   
     7    4    8 1   
     8    4   45 1   
     9    5    6 1   
    10    5    7 1   
    11    5   46 1   
    12    6   44 1   
    13    7    9 1   
    14    7   48 1   
    15    7   49 1   
    16    8    9 1   
    17    8   10 1   
    18    8   47 1   
    19   10   11 1   
    20   10   50 1   
    21   10   51 1   
    22   11   12 1   
    23   11   52 1   
    24   11   53 1   
    25   12   13 1   
    26   12   54 1   
    27   12   55 1   
    28   13   14 1   
    29   13   56 1   
    30   13   57 1   
    31   14   15 2   
    32   14   16 1   
    33   16   17 1   
    34   16   58 1   
    35   17   18 1   
    36   17   59 1   
    37   17   60 1   
    38   18   19 1   
    39   18   61 1   
    40   18   62 1   
    41   19   20 1   
    42   19   63 1   
    43   19   64 1   
    44   20   21 1   
    45   20   65 1   
    46   20   66 1   
    47   21   22 1   
    48   21   67 1   
    49   22   23 1   
    50   22   26 2   
    51   23   24 1   
    52   23   32 1   
    53   24   25 ar  
    54   24   29 ar  
    55   25   26 1   
    56   25   27 ar  
    57   27   28 1   
    58   27   31 ar  
    59   28   69 1   
    60   28   70 1   
    61   29   30 ar  
    62   30   31 ar  
    63   30   84 1   
    64   32   33 1   
    65   32   38 1   
    66   32   68 1   
    67   33   34 1   
    68   33   35 1   
    69   33   71 1   
    70   34   72 1   
    71   35   36 1   
    72   35   37 1   
    73   35   73 1   
    74   36   74 1   
    75   37   38 1   
    76   37   39 1   
    77   37   75 1   
    78   39   40 1   
    79   39   76 1   
    80   39   77 1   
    81   40   41 1   
    82   40   78 1   
    83   41   42 1   
    84   41   79 1   
    85   41   80 1   
    86   42   81 1   
    87   42   82 1   
    88   42   83 1   
@<TRIPOS>SUBSTRUCTURE
     1 BA2         1 TEMP              0 ****  ****    0 ROOT
