@<TRIPOS>MOLECULE
BA2
   86    90     1     0     0
SMALL
bcc


@<TRIPOS>ATOM
      1 O31         1.4540   -0.9150    0.7820 o         1 BA2     -0.586500
      2 C30         2.2670   -0.0460    0.4340 c         1 BA2      0.751500
      3 N32         3.6520   -0.0390    0.8170 ns        1 BA2     -0.527900
      4 C33         4.2600    1.2040    0.3640 c3        1 BA2      0.056700
      5 C28         3.1300    1.9320   -0.4940 c3        1 BA2      0.075700
      6 N29         2.0030    1.0150   -0.4690 ns        1 BA2     -0.535900
      7 C27         2.8770    3.3330    0.0440 c3        1 BA2     -0.029300
      8 C26         4.8570    2.1560    1.4030 c3        1 BA2     -0.007600
      9 S25         4.2620    3.7980    1.0380 ss        1 BA2     -0.323200
     10 C24         4.6200    1.7910    2.8520 c3        1 BA2     -0.072400
     11 C23         5.2540    2.8180    3.7720 c3        1 BA2     -0.098400
     12 C22         5.0270    2.4660    5.2250 c3        1 BA2     -0.092400
     13 C21         5.4850    3.5660    6.1650 c3        1 BA2     -0.155400
     14 C19         6.9630    3.8000    6.0290 c         1 BA2      0.547100
     15 O20         7.8750    3.1630    6.5260 o         1 BA2     -0.397100
     16 N18         7.3530    4.9860    5.1520 ny        1 BA2     -0.685800
     17 C17         8.7890    5.0160    4.7460 c3        1 BA2      0.096800
     18 C16         9.1000    4.1410    3.5340 c3        1 BA2     -0.099400
     19 C15        10.5980    4.1470    3.3040 c3        1 BA2     -0.088400
     20 C14        10.9960    3.5890    1.9390 c3        1 BA2      0.166800
     21 N13        10.6790    2.1760    1.7730 nu        1 BA2     -0.762200
     22 C8         11.2860    1.5690    0.6330 cc        1 BA2      0.552700
     23 N9         10.7550    0.3330    0.0960 na        1 BA2     -0.292000
     24 C4         11.5560    0.0240   -1.0160 ca        1 BA2      0.469800
     25 C5         12.5220    1.1030   -1.1220 ca        1 BA2     -0.224200
     26 N7         12.3360    2.0290   -0.0920 nd        1 BA2     -0.538100
     27 C6         13.4710    1.0480   -2.2050 ca        1 BA2      0.784200
     28 N6         14.4030    2.0210   -2.3690 nv        1 BA2     -0.922500
     29 N3         11.5230   -1.0510   -1.8610 nb        1 BA2     -0.841000
     30 C2         12.4660   -0.9690   -2.8410 ca        1 BA2      0.699900
     31 N1         13.4060   -0.0310   -3.0720 nb        1 BA2     -0.767000
     32 C1'         9.5660   -0.3440    0.5210 c3        1 BA2      0.240800
     33 C2'         8.3880   -0.3190   -0.5100 c3        1 BA2      0.072100
     34 O2'         7.4090    0.6090   -0.1030 oh        1 BA2     -0.589800
     35 C3'         7.7760   -1.7360   -0.4370 c3        1 BA2      0.138100
     36 O3'         6.6880   -1.8180    0.4540 oh        1 BA2     -0.578800
     37 C4'         8.9020   -2.5990    0.1720 c3        1 BA2      0.119100
     38 O4'         9.8580   -1.7370    0.7900 os        1 BA2     -0.435600
     39 C5'         9.5660   -3.4470   -0.9270 c3        1 BA2      0.085800
     40 N10        10.9350   -3.8910   -0.5490 ny        1 BA2     -0.749000
     41 C11        11.6080   -4.6400   -1.6550 c3        1 BA2      0.113800
     42 C12        12.9430   -5.2150   -1.2330 c3        1 BA2     -0.138100
     43 H32         3.8380   -0.3450    1.7440 hn        1 BA2      0.309500
     44 H29         1.0770    1.3630   -0.5410 hn        1 BA2      0.339500
     45 H33         5.0960    0.9110   -0.3410 h1        1 BA2      0.086700
     46 H28         3.4860    2.0060   -1.5620 h1        1 BA2      0.095700
     47 H26         5.9690    2.1900    1.2330 h1        1 BA2      0.079700
     48 H271        1.9380    3.4000    0.6460 h1        1 BA2      0.096200
     49 H272        2.7950    4.0720   -0.7920 h1        1 BA2      0.096200
     50 H241        5.0720    0.7860    3.0720 hc        1 BA2      0.066700
     51 H242        3.5200    1.7290    3.0670 hc        1 BA2      0.066700
     52 H231        6.3570    2.8650    3.5610 hc        1 BA2      0.039200
     53 H232        4.8120    3.8280    3.5420 hc        1 BA2      0.039200
     54 H221        3.9290    2.2990    5.4080 hc        1 BA2      0.090700
     55 H222        5.5540    1.5070    5.4760 hc        1 BA2      0.090700
     56 H211        5.3030    3.2460    7.2320 hc        1 BA2      0.113200
     57 H212        4.8950    4.5030    5.9840 hc        1 BA2      0.113200
     58 H18         7.1390    5.8420    5.6780 hn        1 BA2      0.463800
     59 H171        9.4090    4.6800    5.6290 hx        1 BA2      0.116700
     60 H172        9.0500    6.0890    4.5120 hx        1 BA2      0.116700
     61 H161        8.5720    4.5330    2.6250 hc        1 BA2      0.068200
     62 H162        8.7490    3.0890    3.7090 hc        1 BA2      0.068200
     63 H151       10.9830    5.2020    3.3440 hc        1 BA2      0.069200
     64 H152       11.1070    3.5740    4.1230 hc        1 BA2      0.069200
     65 H141       12.1000    3.8010    1.8140 h1        1 BA2      0.074200
     66 H142       10.4490    4.1450    1.1260 h1        1 BA2      0.074200
     67 H13        10.9180    1.6460    2.5960 hn        1 BA2      0.390800
     68 H1'         9.2190    0.0890    1.5070 h2        1 BA2      0.115700
     69 H6N1       15.0550    1.9840   -3.1180 hn        1 BA2      0.466300
     70 H6N2       14.4270    2.7870   -1.7390 hn        1 BA2      0.466300
     71 H2'         8.7500   -0.1030   -1.5510 h1        1 BA2      0.087700
     72 HA          7.6800    1.4740   -0.4390 ho        1 BA2      0.428000
     73 H3'         7.4710   -2.0890   -1.4580 h1        1 BA2      0.075700
     74 HB          6.0040   -1.2100    0.1340 ho        1 BA2      0.448000
     75 H4'         8.5020   -3.2540    0.9980 h1        1 BA2      0.119700
     76 H5'1        8.9290   -4.3570   -1.1170 hx        1 BA2      0.117200
     77 H5'2        9.6490   -2.8530   -1.8830 hx        1 BA2      0.117200
     78 H10        10.8830   -4.4820    0.2870 hn        1 BA2      0.460800
     79 H111       11.7450   -3.9200   -2.5130 hx        1 BA2      0.105200
     80 H112       10.9140   -5.4670   -1.9820 hx        1 BA2      0.105200
     81 H121       13.3810   -5.7530   -2.1140 hc        1 BA2      0.081700
     82 H122       13.6600   -4.4170   -0.9230 hc        1 BA2      0.081700
     83 H123       12.8340   -5.9510   -0.3990 hc        1 BA2      0.081700
     84 H2C        12.4620   -1.8040   -3.5770 h5        1 BA2      0.052100
     85 H182        6.7580    4.9640    4.3130 hn        1 BA2      0.463800
     86 H102       11.4920   -3.0560   -0.3060 hn        1 BA2      0.460800
@<TRIPOS>BOND
     1    1    2 2   
     2    2    3 1   
     3    2    6 1   
     4    3    4 1   
     5    3   43 1   
     6    4    5 1   
     7    4    8 1   
     8    4   45 1   
     9    5    6 1   
    10    5    7 1   
    11    5   46 1   
    12    6   44 1   
    13    7    9 1   
    14    7   48 1   
    15    7   49 1   
    16    8    9 1   
    17    8   10 1   
    18    8   47 1   
    19   10   11 1   
    20   10   50 1   
    21   10   51 1   
    22   11   12 1   
    23   11   52 1   
    24   11   53 1   
    25   12   13 1   
    26   12   54 1   
    27   12   55 1   
    28   13   14 1   
    29   13   56 1   
    30   13   57 1   
    31   14   15 2   
    32   14   16 1   
    33   16   17 1   
    34   16   58 1   
    35   16   85 1   
    36   17   18 1   
    37   17   59 1   
    38   17   60 1   
    39   18   19 1   
    40   18   61 1   
    41   18   62 1   
    42   19   20 1   
    43   19   63 1   
    44   19   64 1   
    45   20   21 1   
    46   20   65 1   
    47   20   66 1   
    48   21   22 1   
    49   21   67 1   
    50   22   23 1   
    51   22   26 2   
    52   23   24 1   
    53   23   32 1   
    54   24   25 ar  
    55   24   29 ar  
    56   25   26 1   
    57   25   27 ar  
    58   27   28 1   
    59   27   31 ar  
    60   28   69 1   
    61   28   70 1   
    62   29   30 ar  
    63   30   31 ar  
    64   30   84 1   
    65   32   33 1   
    66   32   38 1   
    67   32   68 1   
    68   33   34 1   
    69   33   35 1   
    70   33   71 1   
    71   34   72 1   
    72   35   36 1   
    73   35   37 1   
    74   35   73 1   
    75   36   74 1   
    76   37   38 1   
    77   37   39 1   
    78   37   75 1   
    79   39   40 1   
    80   39   76 1   
    81   39   77 1   
    82   40   41 1   
    83   40   78 1   
    84   40   86 1   
    85   41   42 1   
    86   41   79 1   
    87   41   80 1   
    88   42   81 1   
    89   42   82 1   
    90   42   83 1   
@<TRIPOS>SUBSTRUCTURE
     1 BA2         1 TEMP              0 ****  ****    0 ROOT
