@<TRIPOS>MOLECULE
BA4
   52    53     1     0     0
SMALL
bcc


@<TRIPOS>ATOM
      1 OAR         1.5530   -1.6910   -0.3630 o         1 BA4     -0.368000
      2 CAP         1.4380   -0.4970   -0.1610 c         1 BA4      0.601100
      3 NAO         2.3730    0.3350    0.6370 n4        1 BA4     -0.485200
      4 CAS         2.2410    0.1000    2.0820 ca        1 BA4     -0.079400
      5 CAT         3.0270   -0.8900    2.6980 ca        1 BA4     -0.091000
      6 CAU         2.9180   -1.0750    4.0740 ca        1 BA4     -0.099000
      7 CAV         2.0390   -0.2940    4.8280 ca        1 BA4     -0.052000
      8 CAW         1.2590    0.6840    4.2050 ca        1 BA4     -0.099000
      9 CAX         1.3480    0.8900    2.8300 ca        1 BA4     -0.091000
     10 OAQ         0.3410    0.2440   -0.6490 os        1 BA4     -0.117600
     11 NAY        -0.0750    0.0760   -1.8850 n2        1 BA4     -0.384200
     12 CAA         0.8050   -0.0290   -2.8570 c2        1 BA4      0.528600
     13 OAL         2.1440    0.0080   -2.5290 os        1 BA4     -0.454400
     14 CAE         2.9980   -0.9740   -3.1650 c3        1 BA4      0.077100
     15 CAF         4.4040   -0.5720   -2.6990 c3        1 BA4      0.138400
     16 OAM         4.4770   -0.7450   -1.2950 oh        1 BA4     -0.643800
     17 CAD         2.8080   -0.9340   -4.6850 c3        1 BA4      0.095100
     18 OAK         3.5010   -2.0070   -5.2870 oh        1 BA4     -0.575800
     19 CAC         1.3180   -1.1990   -4.9950 c3        1 BA4      0.126100
     20 OAJ         1.0470   -1.1120   -6.3770 oh        1 BA4     -0.612800
     21 CAB         0.4670   -0.0840   -4.3300 c3        1 BA4      0.081200
     22 NAI        -0.9860   -0.2570   -4.6300 n4        1 BA4     -0.686800
     23 CAG        -1.8500    0.9910   -4.3700 c         1 BA4      0.568100
     24 OAN        -1.2370    2.0110   -4.1200 o         1 BA4     -0.396100
     25 CAH        -3.3260    0.7500   -4.4600 c3        1 BA4     -0.152400
     26 C1         -4.0330    1.9980   -4.9710 c3        1 BA4     -0.080400
     27 C2         -5.5260    1.7890   -4.9540 c3        1 BA4     -0.106100
     28 HNAO        3.3370    0.0900    0.3290 hn        1 BA4      0.494300
     29 HAT         3.7230   -1.5180    2.1180 ha        1 BA4      0.159500
     30 HAU         3.5340   -1.8470    4.5680 ha        1 BA4      0.181000
     31 HAV         1.9610   -0.4480    5.9190 ha        1 BA4      0.183000
     32 HAW         0.5660    1.3020    4.8020 ha        1 BA4      0.181000
     33 HAX         0.7240    1.6650    2.3560 ha        1 BA4      0.159500
     34 HAE         2.7260   -1.9890   -2.7580 h1        1 BA4      0.100700
     35 HAF         5.1590   -1.1930   -3.2470 h1        1 BA4      0.091700
     36 HAD         3.1260    0.0600   -5.1040 h1        1 BA4      0.090700
     37 HOAK        4.3680   -1.6830   -5.5730 ho        1 BA4      0.447000
     38 HAC         1.0300   -2.2190   -4.6110 h1        1 BA4      0.089700
     39 HOAJ        1.6740   -1.6950   -6.8380 ho        1 BA4      0.478000
     40 HAB         0.7780    0.9200   -4.7750 hx        1 BA4      0.169700
     41 HNAI       -1.0580   -0.4920   -5.6350 hn        1 BA4      0.477800
     42 HAH        -3.5720   -0.1210   -5.1250 hc        1 BA4      0.109700
     43 HAHA       -3.6880    0.5080   -3.4200 hc        1 BA4      0.109700
     44 H1         -3.6910    2.2240   -6.0160 hc        1 BA4      0.072700
     45 H1A        -3.7590    2.8750   -4.3270 hc        1 BA4      0.072700
     46 H2         -6.0340    2.7090   -5.3380 hc        1 BA4      0.062033
     47 H2A        -5.8200    0.9300   -5.6050 hc        1 BA4      0.062033
     48 H2B        -5.8920    1.5940   -3.9170 hc        1 BA4      0.062033
     49 H22         4.5850    0.5220   -2.8840 h1        1 BA4      0.091700
     50 H23         4.9270   -1.5820   -1.1200 ho        1 BA4      0.442000
     51 HAO2        2.1910    1.3300    0.4390 hn        1 BA4      0.494300
     52 HAI2       -1.3710   -1.0400   -4.0910 hn        1 BA4      0.477800
@<TRIPOS>BOND
     1    1    2 2   
     2    2    3 1   
     3    2   10 1   
     4    3    4 1   
     5    3   28 1   
     6    3   51 1   
     7    4    5 ar  
     8    4    9 ar  
     9    5    6 ar  
    10    5   29 1   
    11    6    7 ar  
    12    6   30 1   
    13    7    8 ar  
    14    7   31 1   
    15    8    9 ar  
    16    8   32 1   
    17    9   33 1   
    18   10   11 1   
    19   11   12 2   
    20   12   13 1   
    21   12   21 1   
    22   13   14 1   
    23   14   15 1   
    24   14   17 1   
    25   14   34 1   
    26   15   16 1   
    27   15   35 1   
    28   15   49 1   
    29   16   50 1   
    30   17   18 1   
    31   17   19 1   
    32   17   36 1   
    33   18   37 1   
    34   19   20 1   
    35   19   21 1   
    36   19   38 1   
    37   20   39 1   
    38   21   22 1   
    39   21   40 1   
    40   22   23 1   
    41   22   41 1   
    42   22   52 1   
    43   23   24 2   
    44   23   25 1   
    45   25   26 1   
    46   25   42 1   
    47   25   43 1   
    48   26   27 1   
    49   26   44 1   
    50   26   45 1   
    51   27   46 1   
    52   27   47 1   
    53   27   48 1   
@<TRIPOS>SUBSTRUCTURE
     1 BA4         1 TEMP              0 ****  ****    0 ROOT
