@<TRIPOS>MOLECULE
BA4
   50    51     1     0     0
SMALL
bcc


@<TRIPOS>ATOM
      1 OAR        -2.3140   -0.3730   -1.2490 o         1 BA4     -0.504000
      2 CAP        -2.1110    0.4510   -0.3580 c         1 BA4      0.762100
      3 NAO        -2.9800    1.1470    0.4570 n         1 BA4     -0.437100
      4 CAS        -4.3620    1.2790    0.2110 ca        1 BA4      0.058600
      5 CAT        -5.0730    2.2950    0.8920 ca        1 BA4     -0.162500
      6 CAU        -6.4460    2.4240    0.7110 ca        1 BA4     -0.103500
      7 CAV        -7.1340    1.5640   -0.1440 ca        1 BA4     -0.149000
      8 CAW        -6.4370    0.5650   -0.8210 ca        1 BA4     -0.103500
      9 CAX        -5.0630    0.4120   -0.6530 ca        1 BA4     -0.162500
     10 OAQ        -0.7700    0.8480   -0.0730 os        1 BA4     -0.220600
     11 NAY         0.1110   -0.1370    0.0270 n2        1 BA4     -0.413200
     12 CAA         1.3520    0.1630   -0.2520 c2        1 BA4      0.523600
     13 OAL         1.7200    1.4080   -0.7630 os        1 BA4     -0.443400
     14 CAE         2.7070    2.0890    0.0300 c3        1 BA4      0.070100
     15 CAF         3.0420    3.3490   -0.7760 c3        1 BA4      0.137400
     16 OAM         1.9390    4.2250   -0.8330 oh        1 BA4     -0.590800
     17 CAD         3.9390    1.2090    0.2510 c3        1 BA4      0.075100
     18 OAK         4.8030    1.7860    1.2190 oh        1 BA4     -0.598800
     19 CAC         3.5370   -0.1590    0.8370 c3        1 BA4      0.136100
     20 OAJ         4.6720   -0.9980    0.9190 oh        1 BA4     -0.580800
     21 CAB         2.5150   -0.8300   -0.1230 c3        1 BA4      0.080400
     22 NAI         2.1320   -2.1470    0.2810 n         1 BA4     -0.554900
     23 CAG         2.1730   -3.2290   -0.5860 c         1 BA4      0.675100
     24 OAN         2.6120   -3.1080   -1.7450 o         1 BA4     -0.598100
     25 CAH         1.6940   -4.5630   -0.0490 c3        1 BA4     -0.151400
     26 C1          0.2110   -4.5490    0.2570 c3        1 BA4     -0.080400
     27 C2         -0.2730   -5.9250    0.6400 c3        1 BA4     -0.094100
     28 HNAO       -2.5720    1.8140    1.0780 hn        1 BA4      0.334500
     29 HAT        -4.5520    2.9860    1.5710 ha        1 BA4      0.152000
     30 HAU        -6.9890    3.2160    1.2480 ha        1 BA4      0.136500
     31 HAV        -8.2190    1.6750   -0.2830 ha        1 BA4      0.136000
     32 HAW        -6.9730   -0.1170   -1.4980 ha        1 BA4      0.136500
     33 HAX        -4.5340   -0.3850   -1.2010 ha        1 BA4      0.152000
     34 HAE         2.2470    2.3710    1.0170 h1        1 BA4      0.078700
     35 HAF         3.8480    3.9280   -0.2520 h1        1 BA4      0.056200
     36 HAD         4.4890    1.0560   -0.7190 h1        1 BA4      0.069700
     37 HOAK        5.1980    2.5690    0.8180 ho        1 BA4      0.414000
     38 HAC         3.0920   -0.0150    1.8600 h1        1 BA4      0.055700
     39 HOAJ        5.3190   -0.5250    1.4620 ho        1 BA4      0.422000
     40 HAB         2.9870   -0.9000   -1.1560 h1        1 BA4      0.132700
     41 HNAI        1.7250   -2.2550    1.1780 hn        1 BA4      0.318500
     42 HAH         1.9140   -5.3360   -0.8330 hc        1 BA4      0.073700
     43 HAHA        2.2790   -4.8320    0.8690 hc        1 BA4      0.073700
     44 H1         -0.0030   -3.8320    1.0930 hc        1 BA4      0.051700
     45 H1A        -0.3540   -4.1870   -0.6420 hc        1 BA4      0.051700
     46 H2         -0.1080   -6.6480   -0.1950 hc        1 BA4      0.037033
     47 H2A         0.2710   -6.3000    1.5410 hc        1 BA4      0.037033
     48 H2B        -1.3650   -5.8970    0.8730 hc        1 BA4      0.037033
     49 H22         3.3750    3.0660   -1.8100 h1        1 BA4      0.056200
     50 H23         1.2180    3.7470   -1.2660 ho        1 BA4      0.421000
@<TRIPOS>BOND
     1    1    2 2   
     2    2    3 1   
     3    2   10 1   
     4    3    4 1   
     5    3   28 1   
     6    4    5 ar  
     7    4    9 ar  
     8    5    6 ar  
     9    5   29 1   
    10    6    7 ar  
    11    6   30 1   
    12    7    8 ar  
    13    7   31 1   
    14    8    9 ar  
    15    8   32 1   
    16    9   33 1   
    17   10   11 1   
    18   11   12 2   
    19   12   13 1   
    20   12   21 1   
    21   13   14 1   
    22   14   15 1   
    23   14   17 1   
    24   14   34 1   
    25   15   16 1   
    26   15   35 1   
    27   15   49 1   
    28   16   50 1   
    29   17   18 1   
    30   17   19 1   
    31   17   36 1   
    32   18   37 1   
    33   19   20 1   
    34   19   21 1   
    35   19   38 1   
    36   20   39 1   
    37   21   22 1   
    38   21   40 1   
    39   22   23 1   
    40   22   41 1   
    41   23   24 2   
    42   23   25 1   
    43   25   26 1   
    44   25   42 1   
    45   25   43 1   
    46   26   27 1   
    47   26   44 1   
    48   26   45 1   
    49   27   46 1   
    50   27   47 1   
    51   27   48 1   
@<TRIPOS>SUBSTRUCTURE
     1 BA4         1 TEMP              0 ****  ****    0 ROOT
