@<TRIPOS>MOLECULE
BA4
   51    52     1     0     0
SMALL
bcc


@<TRIPOS>ATOM
      1 OAR        -0.6420    0.3650   -0.3250 o         1 BA4     -0.537000
      2 CAP         0.5130   -0.0080   -0.1050 c         1 BA4      0.769100
      3 NAO         1.1840   -0.3310    1.0420 n         1 BA4     -0.412100
      4 CAS         0.7290    0.0210    2.3370 ca        1 BA4      0.030600
      5 CAT         1.6750    0.0770    3.3860 ca        1 BA4     -0.148500
      6 CAU         1.2540    0.3680    4.6800 ca        1 BA4     -0.101500
      7 CAV        -0.0920    0.6120    4.9510 ca        1 BA4     -0.126000
      8 CAW        -1.0250    0.5630    3.9170 ca        1 BA4     -0.101500
      9 CAX        -0.6290    0.2690    2.6140 ca        1 BA4     -0.148500
     10 OAQ         1.4070   -0.2160   -1.2270 os        1 BA4     -0.200600
     11 NAY         0.8480   -0.2420   -2.4090 n2        1 BA4     -0.433200
     12 CAA         1.6140   -0.2020   -3.4660 c2        1 BA4      0.516600
     13 OAL         2.9890   -0.0440   -3.4460 os        1 BA4     -0.398400
     14 CAE         3.7140   -1.0150   -4.2240 c3        1 BA4      0.064100
     15 CAF         5.1740   -0.5300   -4.1830 c3        1 BA4      0.129400
     16 OAM         5.9880   -1.4440   -4.8820 oh        1 BA4     -0.594800
     17 CAD         3.1910   -1.0900   -5.6650 c3        1 BA4      0.099100
     18 OAK         3.7370   -2.1990   -6.3500 oh        1 BA4     -0.601800
     19 CAC         1.6720   -1.3450   -5.6630 c3        1 BA4      0.128100
     20 OAJ         1.1210   -1.3030   -6.9630 oh        1 BA4     -0.624800
     21 CAB         1.0050   -0.2010   -4.8620 c3        1 BA4      0.080200
     22 NAI        -0.4880   -0.3130   -4.8900 n4        1 BA4     -0.675800
     23 CAG        -1.1900    0.9340   -4.3410 c         1 BA4      0.573100
     24 OAN        -0.7970    1.9900   -4.8030 o         1 BA4     -0.414100
     25 CAH        -2.2500    0.6760   -3.3170 c3        1 BA4     -0.162400
     26 C1         -3.2660    1.8060   -3.3130 c3        1 BA4     -0.077400
     27 C2         -4.2690    1.5980   -2.2070 c3        1 BA4     -0.102100
     28 HNAO        2.1530   -0.5630    0.9580 hn        1 BA4      0.345500
     29 HAT         2.7420   -0.1110    3.1960 ha        1 BA4      0.149000
     30 HAU         1.9960    0.4060    5.4930 ha        1 BA4      0.147500
     31 HAV        -0.4150    0.8430    5.9780 ha        1 BA4      0.149000
     32 HAW        -2.0890    0.7550    4.1260 ha        1 BA4      0.147500
     33 HAX        -1.3840    0.2380    1.8110 ha        1 BA4      0.149000
     34 HAE         3.6200   -2.0220   -3.7330 h1        1 BA4      0.077700
     35 HAF         5.2790    0.4450   -4.7300 h1        1 BA4      0.080200
     36 HAD         3.4230   -0.1350   -6.2150 h1        1 BA4      0.077700
     37 HOAK        4.6920   -2.0500   -6.4390 ho        1 BA4      0.458000
     38 HAC         1.4550   -2.3480   -5.1980 h1        1 BA4      0.081700
     39 HOAJ        1.7160   -1.8000   -7.5480 ho        1 BA4      0.471000
     40 HAB         1.2660    0.7950   -5.3460 hx        1 BA4      0.155700
     41 HNAI       -0.7550   -0.4430   -5.8790 hn        1 BA4      0.469300
     42 HAH        -2.7700   -0.3020   -3.4950 hc        1 BA4      0.121700
     43 HAHA       -1.7420    0.6180   -2.3040 hc        1 BA4      0.121700
     44 H1         -2.7360    2.7860   -3.1710 hc        1 BA4      0.065700
     45 H1A        -3.7900    1.8490   -4.3040 hc        1 BA4      0.065700
     46 H2         -4.8270    0.6410   -2.3480 hc        1 BA4      0.054700
     47 H2A        -3.7630    1.5720   -1.2110 hc        1 BA4      0.054700
     48 H2B        -5.0060    2.4390   -2.2070 hc        1 BA4      0.054700
     49 H22         5.4990   -0.4010   -3.1180 h1        1 BA4      0.080200
     50 H23         6.1890   -2.1810   -4.2910 ho        1 BA4      0.422000
     51 HAI2       -0.7860   -1.1370   -4.3590 hn        1 BA4      0.469300
@<TRIPOS>BOND
     1    1    2 2   
     2    2    3 1   
     3    2   10 1   
     4    3    4 1   
     5    3   28 1   
     6    4    5 ar  
     7    4    9 ar  
     8    5    6 ar  
     9    5   29 1   
    10    6    7 ar  
    11    6   30 1   
    12    7    8 ar  
    13    7   31 1   
    14    8    9 ar  
    15    8   32 1   
    16    9   33 1   
    17   10   11 1   
    18   11   12 2   
    19   12   13 1   
    20   12   21 1   
    21   13   14 1   
    22   14   15 1   
    23   14   17 1   
    24   14   34 1   
    25   15   16 1   
    26   15   35 1   
    27   15   49 1   
    28   16   50 1   
    29   17   18 1   
    30   17   19 1   
    31   17   36 1   
    32   18   37 1   
    33   19   20 1   
    34   19   21 1   
    35   19   38 1   
    36   20   39 1   
    37   21   22 1   
    38   21   40 1   
    39   22   23 1   
    40   22   41 1   
    41   22   51 1   
    42   23   24 2   
    43   23   25 1   
    44   25   26 1   
    45   25   42 1   
    46   25   43 1   
    47   26   27 1   
    48   26   44 1   
    49   26   45 1   
    50   27   46 1   
    51   27   47 1   
    52   27   48 1   
@<TRIPOS>SUBSTRUCTURE
     1 BA4         1 TEMP              0 ****  ****    0 ROOT
