@<TRIPOS>MOLECULE
BA4
   50    47     1     0     0
SMALL
bcc


@<TRIPOS>ATOM
      1 OAR        -1.3810    1.1140    2.5260 o         1 BA4     -0.320000
      2 CAP        -0.4100    1.7320    2.0980 c1        1 BA4      0.415000
      3 NAO         0.4170    2.5040    3.0090 n3        1 BA4     -0.289000
      4 CAS        -0.1970    3.3380    4.0050 c2        1 BA4      0.064000
      5 CAT        -1.0900    2.7920    4.9090 c2        1 BA4     -0.151000
      6 CAU        -1.6670    3.5970    5.8920 c1        1 BA4     -0.104000
      7 CAV        -1.3440    4.9430    5.9640 c2        1 BA4     -0.148000
      8 CAW        -0.4480    5.4910    5.0580 c1        1 BA4     -0.104000
      9 CAX         0.1270    4.6900    4.0770 c1        1 BA4     -0.172000
     10 OAQ        -0.1830    1.8140    0.6900 o         1 BA4     -0.168700
     11 NAY        -0.0920    0.5360    0.1480 n2        1 BA4     -0.094300
     12 CAA        -0.1430    0.3740   -1.1460 c1        1 BA4      0.029000
     13 OAL        -0.2960    1.4920   -2.0760 o         1 BA4     -0.238000
     14 CAE         0.7110    1.5100   -3.1100 c3        1 BA4     -0.007000
     15 CAF         0.3570    2.5790   -4.1110 c3        1 BA4     -0.010000
     16 OAM         0.2360    3.8080   -3.4560 oh        1 BA4     -0.320000
     17 CAD         0.8420    0.1930   -3.8300 c3        1 BA4      0.012000
     18 OAK         1.9690    0.2550   -4.7050 oh        1 BA4     -0.321000
     19 CAC         1.0210   -0.9580   -2.8900 c3        1 BA4     -0.008000
     20 OAJ         0.9900   -2.1830   -3.6400 oh        1 BA4     -0.327000
     21 CAB        -0.0490   -1.0120   -1.8220 c3        1 BA4      0.020000
     22 NAI         0.2400   -2.0340   -0.8640 n         1 BA4     -0.367000
     23 CAG        -0.3830   -3.3380   -0.9830 c2        1 BA4      0.300000
     24 OAN        -1.1580   -3.5650   -1.9020 o         1 BA4     -0.341000
     25 CAH        -0.0490   -4.4480    0.0380 c3        1 BA4     -0.180000
     26 C1         -0.4890   -5.7900   -0.5130 c3        1 BA4     -0.154000
     27 C2         -0.2420   -6.8560    0.5080 c3        1 BA4     -0.213000
     28 HNAO        1.3330    2.4640    2.9430 hn        1 BA4      0.248000
     29 HAT        -1.3130    1.8660    4.8600 ha        1 BA4      0.171000
     30 HAU        -2.2900    3.2170    6.5220 DU        1 BA4      0.138000
     31 HAV        -1.7530    5.5120    6.6610 ha        1 BA4      0.136000
     32 HAW        -0.2250    6.4230    5.1070 ha        1 BA4      0.135000
     33 HAX         0.7470    5.0690    3.4510 ha        1 BA4      0.134000
     34 HAE         1.5900    1.7360   -2.6980 h1        1 BA4      0.118000
     35 HAF        -0.4890    2.3540   -4.5410 h1        1 BA4      0.107500
     36 HAD         0.0180    0.0400   -4.3740 h1        1 BA4      0.108000
     37 HOAK        1.7470   -0.1050   -5.5150 ho        1 BA4      0.228000
     38 HAC         1.8980   -0.8740   -2.4540 h1        1 BA4      0.096000
     39 HOAJ        1.8020   -2.4130   -3.8530 ho        1 BA4      0.224000
     40 HAB        -0.9190   -1.3200   -2.1730 h1        1 BA4      0.173000
     41 HNAI        0.8410   -1.8780   -0.2020 hn        1 BA4      0.222000
     42 HAH        -0.5160   -4.2710    0.8760 hc        1 BA4      0.109000
     43 HAHA        0.9190   -4.4630    0.2000 hc        1 BA4      0.109000
     44 H1         -1.4470   -5.7580   -0.7270 hc        1 BA4      0.098500
     45 H1A         0.0140   -5.9900   -1.3160 hc        1 BA4      0.098500
     46 H2         -0.3200   -7.7390    0.0850 hc        1 BA4      0.075333
     47 H2A         0.6490   -6.7520    0.8750 hc        1 BA4      0.075333
     48 H2B        -0.8940   -6.7800    1.2190 hc        1 BA4      0.075333
     49 H22         1.0580    2.6380   -4.7840 h1        1 BA4      0.107500
     50 H23         0.2620    4.4480   -4.0370 ho        1 BA4      0.212000
@<TRIPOS>BOND
     1    1    2 1   
     2    2    3 1   
     3    3    4 1   
     4    3   28 1   
     5    4    5 1   
     6    4    9 1   
     7    5    6 1   
     8    5   29 1   
     9    6    7 1   
    10    7    8 1   
    11    7   31 1   
    12    8   32 1   
    13    9   33 1   
    14   10   11 2   
    15   11   12 1   
    16   12   21 1   
    17   13   14 1   
    18   14   15 1   
    19   14   17 1   
    20   14   34 1   
    21   15   16 1   
    22   15   35 1   
    23   15   49 1   
    24   16   50 1   
    25   17   18 1   
    26   17   19 1   
    27   17   36 1   
    28   18   37 1   
    29   19   20 1   
    30   19   21 1   
    31   19   38 1   
    32   20   39 1   
    33   21   22 1   
    34   21   40 1   
    35   22   23 1   
    36   22   41 1   
    37   23   24 1   
    38   23   25 1   
    39   25   26 1   
    40   25   42 1   
    41   25   43 1   
    42   26   27 1   
    43   26   44 1   
    44   26   45 1   
    45   27   46 1   
    46   27   47 1   
    47   27   48 1   
@<TRIPOS>SUBSTRUCTURE
     1 BA4         1 TEMP              0 ****  ****    0 ROOT
