@<TRIPOS>MOLECULE
BA4
   51    52     1     0     0
SMALL
bcc


@<TRIPOS>ATOM
      1 OAR        -0.6470    0.3600   -0.3280 o         1 BA4     -0.537000
      2 CAP         0.5030   -0.0250   -0.1060 c         1 BA4      0.769100
      3 NAO         1.1680   -0.3630    1.0390 ns        1 BA4     -0.412100
      4 CAS         0.7110   -0.0170    2.3370 ca        1 BA4      0.030600
      5 CAT         1.6540    0.0220    3.3890 ca        1 BA4     -0.148500
      6 CAU         1.2320    0.3060    4.6830 ca        1 BA4     -0.101500
      7 CAV        -0.1130    0.5600    4.9520 ca        1 BA4     -0.126000
      8 CAW        -1.0430    0.5270    3.9150 ca        1 BA4     -0.101500
      9 CAX        -0.6460    0.2410    2.6110 ca        1 BA4     -0.148500
     10 OAQ         1.4000   -0.2290   -1.2270 os        1 BA4     -0.200600
     11 NAY         0.8440   -0.2420   -2.4120 n2        1 BA4     -0.433200
     12 CAA         1.6140   -0.1990   -3.4660 c2        1 BA4      0.515600
     13 OAL         2.9910   -0.0500   -3.4390 os        1 BA4     -0.398400
     14 CAE         3.7120   -1.0200   -4.2230 c3        1 BA4      0.064100
     15 CAF         5.1740   -0.5440   -4.1730 c3        1 BA4      0.129400
     16 OAM         5.9850   -1.4580   -4.8760 oh        1 BA4     -0.594800
     17 CAD         3.1920   -1.0810   -5.6660 c3        1 BA4      0.099100
     18 OAK         3.7330   -2.1880   -6.3580 oh        1 BA4     -0.601800
     19 CAC         1.6720   -1.3250   -5.6710 c3        1 BA4      0.128100
     20 OAJ         1.1250   -1.2690   -6.9730 oh        1 BA4     -0.624800
     21 CAB         1.0100   -0.1830   -4.8630 c3        1 BA4      0.080200
     22 NAI        -0.4840   -0.2840   -4.8980 ny        1 BA4     -0.675800
     23 CAG        -1.1790    0.9630   -4.3410 c         1 BA4      0.573100
     24 OAN        -0.7770    2.0200   -4.7940 o         1 BA4     -0.414100
     25 CAH        -2.2440    0.7050   -3.3220 c3        1 BA4     -0.162400
     26 C1         -3.2530    1.8410   -3.3130 c3        1 BA4     -0.077400
     27 C2         -4.2610    1.6320   -2.2130 c3        1 BA4     -0.102100
     28 HNAO        2.1350   -0.6020    0.9570 hn        1 BA4      0.345500
     29 HAT         2.7200   -0.1740    3.2000 ha        1 BA4      0.149000
     30 HAU         1.9710    0.3310    5.4990 ha        1 BA4      0.147500
     31 HAV        -0.4370    0.7850    5.9800 ha        1 BA4      0.149000
     32 HAW        -2.1060    0.7280    4.1220 ha        1 BA4      0.147500
     33 HAX        -1.3980    0.2230    1.8050 ha        1 BA4      0.149000
     34 HAE         3.6100   -2.0300   -3.7400 h1        1 BA4      0.077700
     35 HAF         5.4970   -0.4260   -3.1070 h1        1 BA4      0.080200
     36 HAD         3.4320   -0.1230   -6.2080 h1        1 BA4      0.077700
     37 HOAK        4.6900   -2.0440   -6.4430 ho        1 BA4      0.458000
     38 HAC         1.4470   -2.3300   -5.2140 h1        1 BA4      0.081700
     39 HOAJ        1.7190   -1.7650   -7.5600 ho        1 BA4      0.471000
     40 HAB         1.2800    0.8150   -5.3390 hx        1 BA4      0.155700
     41 HNAI       -0.7890   -1.1100   -4.3740 hn        1 BA4      0.469300
     42 HAH        -1.7400    0.6360   -2.3080 hc        1 BA4      0.121700
     43 HAHA       -2.7690   -0.2690   -3.5090 hc        1 BA4      0.121700
     44 H1         -3.7730    1.8940   -4.3060 hc        1 BA4      0.065700
     45 H1A        -2.7170    2.8170   -3.1630 hc        1 BA4      0.065700
     46 H2         -3.7590    1.5950   -1.2150 hc        1 BA4      0.054700
     47 H2A        -4.8240    0.6790   -2.3620 hc        1 BA4      0.054700
     48 H2B        -4.9930    2.4770   -2.2080 hc        1 BA4      0.054700
     49 H22         5.2870    0.4340   -4.7130 h1        1 BA4      0.080200
     50 H23         6.1790   -2.2010   -4.2900 ho        1 BA4      0.422000
     51 HAI2       -0.7490   -0.4050   -5.8880 hn        1 BA4      0.469300
@<TRIPOS>BOND
     1    1    2 2   
     2    2    3 1   
     3    2   10 1   
     4    3    4 1   
     5    3   28 1   
     6    4    5 ar  
     7    4    9 ar  
     8    5    6 ar  
     9    5   29 1   
    10    6    7 ar  
    11    6   30 1   
    12    7    8 ar  
    13    7   31 1   
    14    8    9 ar  
    15    8   32 1   
    16    9   33 1   
    17   10   11 1   
    18   11   12 2   
    19   12   13 1   
    20   12   21 1   
    21   13   14 1   
    22   14   15 1   
    23   14   17 1   
    24   14   34 1   
    25   15   16 1   
    26   15   35 1   
    27   15   49 1   
    28   16   50 1   
    29   17   18 1   
    30   17   19 1   
    31   17   36 1   
    32   18   37 1   
    33   19   20 1   
    34   19   21 1   
    35   19   38 1   
    36   20   39 1   
    37   21   22 1   
    38   21   40 1   
    39   22   23 1   
    40   22   41 1   
    41   22   51 1   
    42   23   24 2   
    43   23   25 1   
    44   25   26 1   
    45   25   42 1   
    46   25   43 1   
    47   26   27 1   
    48   26   44 1   
    49   26   45 1   
    50   27   46 1   
    51   27   47 1   
    52   27   48 1   
@<TRIPOS>SUBSTRUCTURE
     1 BA4         1 TEMP              0 ****  ****    0 ROOT
