@<TRIPOS>MOLECULE
BAA
   39    38     1     0     0
SMALL
bcc


@<TRIPOS>ATOM
      1 N3          0.8570    0.6850   -5.4810 n         1 BAA     -0.666000
      2 C1          0.1560   -0.0450   -4.5600 c         1 BAA      0.631100
      3 O1         -1.0130   -0.4150   -4.7970 o         1 BAA     -0.621100
      4 CA1         0.8770   -0.4280   -3.2430 c3        1 BAA      0.033700
      5 CB1         1.6170   -1.7410   -3.5090 c3        1 BAA     -0.103100
      6 N1         -0.0550   -0.5250   -2.1470 n         1 BAA     -0.541900
      7 C2         -0.1070    0.4280   -1.1490 c         1 BAA      0.627100
      8 O2          0.7600    1.3180   -1.0420 o         1 BAA     -0.614100
      9 CA2        -1.2840    0.3190   -0.1450 c3        1 BAA      0.030700
     10 CB2        -2.4720    1.0460   -0.7790 c3        1 BAA     -0.103100
     11 N2         -0.9460    0.8620    1.1520 n         1 BAA     -0.504900
     12 C3         -0.5610   -0.0200    2.1610 c         1 BAA      0.737100
     13 O3         -0.8180   -1.2330    2.2250 o         1 BAA     -0.591000
     14 O4          0.1090    0.6260    3.1680 os        1 BAA     -0.441900
     15 C4          0.3810   -0.0790    4.4090 c3        1 BAA      0.185800
     16 C41         1.0470    0.9980    5.2650 c3        1 BAA     -0.114100
     17 C42        -0.9100   -0.5490    5.0580 c3        1 BAA     -0.114100
     18 C43         1.3400   -1.2320    4.1680 c3        1 BAA     -0.114100
     19 HN31        1.7570    1.0340   -5.2780 hn        1 BAA      0.314500
     20 HN32        0.4200    0.9520   -6.3290 hn        1 BAA      0.314500
     21 HA1         1.6370    0.3690   -2.9770 h1        1 BAA      0.098700
     22 HB11        0.9050   -2.5500   -3.8010 hc        1 BAA      0.052700
     23 HB12        2.3460   -1.5850   -4.3400 hc        1 BAA      0.052700
     24 HB13        2.1740   -2.0650   -2.5970 hc        1 BAA      0.052700
     25 HN1        -0.8500   -1.1030   -2.3040 hn        1 BAA      0.326500
     26 HA2        -1.5590   -0.7720   -0.0000 h1        1 BAA      0.105700
     27 HB21       -2.2330    2.1200   -0.9660 hc        1 BAA      0.056033
     28 HB22       -2.7230    0.5560   -1.7510 hc        1 BAA      0.056033
     29 HB23       -3.3630    0.9890   -0.1080 hc        1 BAA      0.056033
     30 HN2        -0.4800    1.7460    1.1380 hn        1 BAA      0.327500
     31 H411        1.3150    0.5600    6.2550 hc        1 BAA      0.052367
     32 H412        1.9700    1.3720    4.7630 hc        1 BAA      0.052367
     33 H413        0.3490    1.8550    5.4160 hc        1 BAA      0.052367
     34 H421       -1.6330    0.2980    5.1300 hc        1 BAA      0.052367
     35 H422       -1.3730   -1.3690    4.4570 hc        1 BAA      0.052367
     36 H423       -0.6910   -0.9300    6.0830 hc        1 BAA      0.052367
     37 H431        2.2320   -0.8750    3.6000 hc        1 BAA      0.052367
     38 H432        1.6750   -1.6470    5.1480 hc        1 BAA      0.052367
     39 H433        0.8400   -2.0410    3.5820 hc        1 BAA      0.052367
@<TRIPOS>BOND
     1    1    2 1   
     2    1   19 1   
     3    1   20 1   
     4    2    3 2   
     5    2    4 1   
     6    4    5 1   
     7    4    6 1   
     8    4   21 1   
     9    5   22 1   
    10    5   23 1   
    11    5   24 1   
    12    6    7 1   
    13    6   25 1   
    14    7    8 2   
    15    7    9 1   
    16    9   10 1   
    17    9   11 1   
    18    9   26 1   
    19   10   27 1   
    20   10   28 1   
    21   10   29 1   
    22   11   12 1   
    23   11   30 1   
    24   12   13 2   
    25   12   14 1   
    26   14   15 1   
    27   15   16 1   
    28   15   17 1   
    29   15   18 1   
    30   16   31 1   
    31   16   32 1   
    32   16   33 1   
    33   17   34 1   
    34   17   35 1   
    35   17   36 1   
    36   18   37 1   
    37   18   38 1   
    38   18   39 1   
@<TRIPOS>SUBSTRUCTURE
     1 BAA         1 TEMP              0 ****  ****    0 ROOT
