@<TRIPOS>MOLECULE
BAA
   39    38     1     0     0
SMALL
bcc


@<TRIPOS>ATOM
      1 N3         -4.8840    3.4680   -0.7140 n         1 BAA     -0.666000
      2 C1         -4.1670    2.8940    0.3560 c         1 BAA      0.631100
      3 O1         -3.8250    3.5840    1.2990 o         1 BAA     -0.621100
      4 CA1        -3.7930    1.4520    0.3140 c3        1 BAA      0.033700
      5 CB1        -4.8870    0.6350    0.9250 c3        1 BAA     -0.103100
      6 N1         -2.5610    1.2500    1.0620 n         1 BAA     -0.541900
      7 C2         -1.2960    1.2150    0.3690 c         1 BAA      0.627100
      8 O2         -1.1700    1.7920   -0.6750 o         1 BAA     -0.614100
      9 CA2        -0.0870    0.5270    1.0160 c3        1 BAA      0.030700
     10 CB2         0.4160    1.3700    2.1710 c3        1 BAA     -0.103100
     11 N2          0.9560    0.3740    0.0430 n         1 BAA     -0.504900
     12 C3          1.6220   -0.9030   -0.1090 c         1 BAA      0.737100
     13 O3          0.9610   -1.9310   -0.2150 o         1 BAA     -0.591000
     14 O4          3.0340   -0.9680   -0.1030 os        1 BAA     -0.441900
     15 C4          3.5660   -1.9990   -0.9260 c3        1 BAA      0.185800
     16 C41         3.1600   -3.3610   -0.3610 c3        1 BAA     -0.114100
     17 C42         3.0100   -1.8470   -2.3640 c3        1 BAA     -0.114100
     18 C43         5.1210   -1.8920   -0.9530 c3        1 BAA     -0.114100
     19 HN31       -5.0990    4.3550   -0.6930 hn        1 BAA      0.314500
     20 HN32       -5.0660    2.9750   -1.4540 hn        1 BAA      0.314500
     21 HA1        -3.6610    1.1790   -0.6070 h1        1 BAA      0.098700
     22 HB11       -4.5780   -0.2800    1.0450 hc        1 BAA      0.052700
     23 HB12       -5.1310    1.0160    1.7990 hc        1 BAA      0.052700
     24 HB13       -5.6710    0.6410    0.3340 hc        1 BAA      0.052700
     25 HN1        -2.5950    1.0760    1.9610 hn        1 BAA      0.326500
     26 HA2        -0.3530   -0.3530    1.3480 h1        1 BAA      0.105700
     27 HB21        1.1470    0.9070    2.6180 hc        1 BAA      0.056033
     28 HB22        0.7370    2.2360    1.8290 hc        1 BAA      0.056033
     29 HB23       -0.3090    1.5200    2.8070 hc        1 BAA      0.056033
     30 HN2         1.1610    1.0690   -0.5240 hn        1 BAA      0.327500
     31 H411        2.9770   -3.2760    0.5940 hc        1 BAA      0.052367
     32 H412        3.8840   -3.9970   -0.4980 hc        1 BAA      0.052367
     33 H413        2.3590   -3.6770   -0.8180 hc        1 BAA      0.052367
     34 H421        3.4820   -2.4640   -2.9670 hc        1 BAA      0.052367
     35 H422        3.1450   -0.9190   -2.6720 hc        1 BAA      0.052367
     36 H423        2.0400   -2.0600   -2.3660 hc        1 BAA      0.052367
     37 H431        5.4910   -2.6180   -1.5090 hc        1 BAA      0.052367
     38 H432        5.4760   -1.9710   -0.0270 hc        1 BAA      0.052367
     39 H433        5.3870   -1.0150   -1.3350 hc        1 BAA      0.052367
@<TRIPOS>BOND
     1    1    2 1   
     2    1   19 1   
     3    1   20 1   
     4    2    3 2   
     5    2    4 1   
     6    4    5 1   
     7    4    6 1   
     8    4   21 1   
     9    5   22 1   
    10    5   23 1   
    11    5   24 1   
    12    6    7 1   
    13    6   25 1   
    14    7    8 2   
    15    7    9 1   
    16    9   10 1   
    17    9   11 1   
    18    9   26 1   
    19   10   27 1   
    20   10   28 1   
    21   10   29 1   
    22   11   12 1   
    23   11   30 1   
    24   12   13 2   
    25   12   14 1   
    26   14   15 1   
    27   15   16 1   
    28   15   17 1   
    29   15   18 1   
    30   16   31 1   
    31   16   32 1   
    32   16   33 1   
    33   17   34 1   
    34   17   35 1   
    35   17   36 1   
    36   18   37 1   
    37   18   38 1   
    38   18   39 1   
@<TRIPOS>SUBSTRUCTURE
     1 BAA         1 TEMP              0 ****  ****    0 ROOT
