@<TRIPOS>MOLECULE
BAA
   42    39     1     0     0
SMALL
bcc


@<TRIPOS>ATOM
      1 N3        -98.4550   11.2420  -51.7450 n4        1 BAA     -0.128000
      2 C1        -96.9790   11.2430  -51.5090 c2        1 BAA      0.228000
      3 O1        -96.2700   10.7830  -52.3880 o         1 BAA     -0.109000
      4 CA1       -96.4750   11.8240  -50.1810 c3        1 BAA     -0.073000
      5 CB1       -95.7090   13.1080  -50.4900 c3        1 BAA     -0.266000
      6 N1        -95.6290   10.8040  -49.4760 n4        1 BAA     -0.142000
      7 C2        -96.3910    9.5210  -49.0880 c2        1 BAA      0.195000
      8 O2        -97.4780    9.4170  -49.6290 o         1 BAA     -0.263000
      9 CA2       -95.6350    8.4980  -48.0710 c3        1 BAA      0.132000
     10 CB2       -94.6340    7.7810  -48.9730 c3        1 BAA     -0.259000
     11 N2        -96.5720    7.7110  -47.4370 n3        1 BAA     -0.402000
     12 C3        -72.5260   48.0730  -49.8820 c1        1 BAA      0.411000
     13 O3        -73.1390   47.0540  -49.9060 o         1 BAA     -0.206000
     14 O4        -71.9130   49.0920  -49.8580 o         1 BAA     -0.206000
     15 C4        228.2880  -33.3360  118.5950 c2        1 BAA      0.338000
     16 C41       226.9990  -34.0060  118.6730 c3        1 BAA     -0.319000
     17 C42       229.3100  -33.8290  117.6850 c3        1 BAA     -0.319000
     18 C43       228.5540  -32.1730  119.4270 c3        1 BAA     -0.319000
     19 HN31      -98.6570   10.9310  -52.7120 hn        1 BAA      0.292333
     20 HN32      -98.9050   10.5840  -51.0870 hn        1 BAA      0.292333
     21 HA1       -97.3410   12.0570  -49.4860 hx        1 BAA      0.175000
     22 HB11      -96.4030   13.8510  -50.9610 hc        1 BAA      0.149333
     23 HB12      -94.8570   12.9240  -51.1930 hc        1 BAA      0.149333
     24 HB13      -95.3110   13.5680  -49.5480 hc        1 BAA      0.149333
     25 HN1       -94.8300   10.5430  -50.0710 hn        1 BAA      0.273500
     26 HA2       -95.1120    9.1840  -47.3400 h1        1 BAA      0.136000
     27 HB21      -95.1370    7.2010  -49.7850 hc        1 BAA      0.126667
     28 HB22      -94.0400    7.0580  -48.3500 hc        1 BAA      0.126667
     29 HB23      -93.9210    8.5120  -49.4230 hc        1 BAA      0.126667
     30 HN2       -96.9430    7.9750  -46.5570 hn        1 BAA      0.261500
     31 H411      227.1400  -35.0930  118.9510 hc        1 BAA      0.179889
     32 H412      226.5050  -34.0220  117.6560 hc        1 BAA      0.179889
     33 H413      226.2960  -33.5340  119.4070 hc        1 BAA      0.179889
     34 H421      229.6150  -33.0150  116.9630 hc        1 BAA      0.179889
     35 H422      230.2500  -34.0860  118.2570 hc        1 BAA      0.179889
     36 H423      228.9880  -34.7280  117.0990 hc        1 BAA      0.179889
     37 H431      227.7900  -31.3650  119.2250 hc        1 BAA      0.179889
     38 H432      229.5790  -31.7450  119.2780 hc        1 BAA      0.179889
     39 H433      228.4260  -32.4370  120.5190 hc        1 BAA      0.179889
     40 H33       -98.8530   12.1800  -51.6100 hn        1 BAA      0.292333
     41 H12       -95.2540   11.2400  -48.6230 hn        1 BAA      0.273500
     42 H22       -96.8570    6.8470  -47.8330 hn        1 BAA      0.261500
@<TRIPOS>BOND
     1    1    2 1   
     2    1   19 1   
     3    1   20 1   
     4    1   40 1   
     5    2    3 1   
     6    2    4 1   
     7    4    5 1   
     8    4    6 1   
     9    4   21 1   
    10    5   22 1   
    11    5   23 1   
    12    5   24 1   
    13    6    7 1   
    14    6   25 1   
    15    6   41 1   
    16    7    8 1   
    17    7    9 1   
    18    9   10 1   
    19    9   11 1   
    20    9   26 1   
    21   10   27 1   
    22   10   28 1   
    23   10   29 1   
    24   11   30 1   
    25   11   42 1   
    26   12   13 1   
    27   12   14 1   
    28   15   16 1   
    29   15   17 1   
    30   15   18 1   
    31   16   31 1   
    32   16   32 1   
    33   16   33 1   
    34   17   34 1   
    35   17   35 1   
    36   17   36 1   
    37   18   37 1   
    38   18   38 1   
    39   18   39 1   
@<TRIPOS>SUBSTRUCTURE
     1 BAA         1 TEMP              0 ****  ****    0 ROOT
