@<TRIPOS>MOLECULE
BAA
   42    39     1     0     0
SMALL
bcc


@<TRIPOS>ATOM
      1 N3        -93.3660    4.2880  -45.1240 nz        1 BAA     -0.129000
      2 C1        -92.2110    5.0790  -44.5990 c2        1 BAA      0.228000
      3 O1        -91.2770    5.2790  -45.3570 o         1 BAA     -0.109000
      4 CA1       -92.2940    5.5770  -43.1490 c3        1 BAA     -0.070000
      5 CB1       -92.4030    7.0990  -43.1800 c3        1 BAA     -0.260000
      6 N1        -91.0930    5.1010  -42.3860 ny        1 BAA     -0.134000
      7 C2        -90.9910    3.5660  -42.2740 c2        1 BAA      0.197000
      8 O2        -91.7390    2.9720  -43.0310 o         1 BAA     -0.275000
      9 CA2       -89.9020    2.9780  -41.2170 c3        1 BAA      0.127000
     10 CB2       -88.5710    3.1570  -41.9420 c3        1 BAA     -0.263000
     11 N2        -90.2500    1.6900  -40.8720 n8        1 BAA     -0.405000
     12 C3        -53.8730   -5.3850  -23.0730 c1        1 BAA      0.459000
     13 O3        -55.0530   -5.3430  -23.2180 o         1 BAA     -0.228000
     14 O4        -52.6940   -5.4270  -22.9290 o         1 BAA     -0.228000
     15 C4        213.9550   -9.2110   98.5550 c2        1 BAA      0.338000
     16 C41       212.9530  -10.2630   98.4870 c3        1 BAA     -0.319000
     17 C42       215.0970   -9.3520   99.4440 c3        1 BAA     -0.319000
     18 C43       213.8140   -8.0190   97.7350 c3        1 BAA     -0.319000
     19 HN31      -94.2520    4.7900  -44.9860 hn        1 BAA      0.291000
     20 HN32      -93.4090    3.3800  -44.6320 hn        1 BAA      0.291000
     21 HA1       -93.2010    5.1420  -42.6230 hx        1 BAA      0.172000
     22 HB11      -91.5370    7.5660  -43.7140 hc        1 BAA      0.146667
     23 HB12      -93.3460    7.3930  -43.7090 hc        1 BAA      0.146667
     24 HB13      -92.4570    7.5130  -42.1400 hc        1 BAA      0.146667
     25 HN1       -91.1400    5.5010  -41.4400 hn        1 BAA      0.285000
     26 HA2       -89.9840    3.6760  -40.3310 h1        1 BAA      0.141000
     27 HB21      -88.5280    2.5750  -42.8950 hc        1 BAA      0.125667
     28 HB22      -88.3850    4.2360  -42.1570 hc        1 BAA      0.125667
     29 HB23      -87.7440    2.7900  -41.2770 hc        1 BAA      0.125667
     30 HN2       -89.9130    0.9180  -41.3970 hn        1 BAA      0.258000
     31 H411      212.5140  -10.4530   99.5120 hc        1 BAA      0.179667
     32 H412      212.1190  -10.0380   97.7740 hc        1 BAA      0.179667
     33 H413      213.4340  -11.2410   98.1850 hc        1 BAA      0.179667
     34 H421      215.0970  -10.3130  100.0200 hc        1 BAA      0.179667
     35 H422      215.1310   -8.4900  100.1760 hc        1 BAA      0.179667
     36 H423      216.0610   -9.2800   98.8570 hc        1 BAA      0.179667
     37 H431      214.6480   -7.2830   97.8720 hc        1 BAA      0.179667
     38 H432      213.7560   -8.3020   96.6410 hc        1 BAA      0.179667
     39 H433      212.8340   -7.5030   97.9600 hc        1 BAA      0.179667
     40 H33       -93.2400    4.1090  -46.1360 hn        1 BAA      0.291000
     41 H12       -90.2340    5.4540  -42.8320 hn        1 BAA      0.285000
     42 H22       -90.8100    1.5130  -40.0730 hn        1 BAA      0.258000
@<TRIPOS>BOND
     1    1    2 1   
     2    1   19 1   
     3    1   20 1   
     4    1   40 1   
     5    2    3 1   
     6    2    4 1   
     7    4    5 1   
     8    4    6 1   
     9    4   21 1   
    10    5   22 1   
    11    5   23 1   
    12    5   24 1   
    13    6    7 1   
    14    6   25 1   
    15    6   41 1   
    16    7    8 1   
    17    7    9 1   
    18    9   10 1   
    19    9   11 1   
    20    9   26 1   
    21   10   27 1   
    22   10   28 1   
    23   10   29 1   
    24   11   30 1   
    25   11   42 1   
    26   12   13 1   
    27   12   14 1   
    28   15   16 1   
    29   15   17 1   
    30   15   18 1   
    31   16   31 1   
    32   16   32 1   
    33   16   33 1   
    34   17   34 1   
    35   17   35 1   
    36   17   36 1   
    37   18   37 1   
    38   18   38 1   
    39   18   39 1   
@<TRIPOS>SUBSTRUCTURE
     1 BAA         1 TEMP              0 ****  ****    0 ROOT
