@<TRIPOS>MOLECULE
BAA
   42    39     1     0     0
SMALL
bcc


@<TRIPOS>ATOM
      1 N3       -962.2600  -17.4660 -436.7560 n4        1 BAA     -0.128000
      2 C1       -961.1630  -18.4020 -437.1500 c2        1 BAA      0.228000
      3 O1       -960.9520  -18.5490 -438.3410 o         1 BAA     -0.109000
      4 CA1      -960.3900  -19.1020 -436.0230 c3        1 BAA     -0.073000
      5 CB1      -958.9620  -18.5610 -436.0240 c3        1 BAA     -0.266000
      6 N1       -960.4430  -20.5880 -436.2260 n4        1 BAA     -0.142000
      7 C2       -961.8670  -21.1780 -436.1610 c2        1 BAA      0.195000
      8 O2       -962.7460  -20.3360 -436.2140 o         1 BAA     -0.263000
      9 CA2      -961.9860  -22.7990 -436.0730 c3        1 BAA      0.132000
     10 CB2      -961.7190  -23.2510 -437.5070 c3        1 BAA     -0.259000
     11 N2       -963.2080  -23.1390 -435.5350 n3        1 BAA     -0.402000
     12 C3       -196.4940  676.3330 -496.9320 c1        1 BAA      0.411000
     13 O3       -197.3120  675.4780 -497.0480 o         1 BAA     -0.206000
     14 O4       -195.6760  677.1890 -496.8150 o         1 BAA     -0.206000
     15 C4       1986.9400 -116.9720  995.1310 c2        1 BAA      0.338000
     16 C41      1987.6550 -117.3730  993.9300 c3        1 BAA     -0.319000
     17 C42      1985.6550 -116.3000  995.0220 c3        1 BAA     -0.319000
     18 C43      1987.5100 -117.2430  996.4410 c3        1 BAA     -0.319000
     19 HN31     -962.6250  -16.9780 -437.5930 hn        1 BAA      0.292333
     20 HN32     -963.0310  -18.0050 -436.3280 hn        1 BAA      0.292333
     21 HA1      -960.8710  -18.8990 -435.0160 hx        1 BAA      0.175000
     22 HB11     -958.9820  -17.4610 -435.8110 hc        1 BAA      0.149333
     23 HB12     -958.3530  -19.0500 -435.2210 hc        1 BAA      0.149333
     24 HB13     -958.4600  -18.7210 -437.0120 hc        1 BAA      0.149333
     25 HN1      -959.8670  -21.0280 -435.4970 hn        1 BAA      0.273500
     26 HA2      -961.1380  -23.0940 -435.3850 h1        1 BAA      0.136000
     27 HB21     -960.7000  -22.9350 -437.8320 hc        1 BAA      0.126667
     28 HB22     -962.4790  -22.8540 -438.2230 hc        1 BAA      0.126667
     29 HB23     -961.7620  -24.3730 -437.5460 hc        1 BAA      0.126667
     30 HN2      -963.9970  -23.2760 -436.1210 hn        1 BAA      0.261500
     31 H411     1987.8490 -116.4740  993.2720 hc        1 BAA      0.180000
     32 H412     1988.6310 -117.8800  994.1420 hc        1 BAA      0.180000
     33 H413     1987.0140 -118.0640  993.3060 hc        1 BAA      0.180000
     34 H421     1985.6940 -115.2950  995.5380 hc        1 BAA      0.180000
     35 H422     1985.3200 -116.1480  993.9630 hc        1 BAA      0.180000
     36 H423     1984.8600 -116.8860  995.5730 hc        1 BAA      0.180000
     37 H431     1987.6930 -118.3520  996.5650 hc        1 BAA      0.180000
     38 H432     1988.5290 -116.7620  996.5310 hc        1 BAA      0.180000
     39 H433     1986.8680 -116.8880  997.2880 hc        1 BAA      0.180000
     40 H33      -961.9240  -16.7640 -436.0840 hn        1 BAA      0.292333
     41 H12      -960.0300  -20.8290 -437.1390 hn        1 BAA      0.273500
     42 H22      -963.3080  -23.2890 -434.5600 hn        1 BAA      0.261500
@<TRIPOS>BOND
     1    1    2 1   
     2    1   19 1   
     3    1   20 1   
     4    1   40 1   
     5    2    3 1   
     6    2    4 1   
     7    4    5 1   
     8    4    6 1   
     9    4   21 1   
    10    5   22 1   
    11    5   23 1   
    12    5   24 1   
    13    6    7 1   
    14    6   25 1   
    15    6   41 1   
    16    7    8 1   
    17    7    9 1   
    18    9   10 1   
    19    9   11 1   
    20    9   26 1   
    21   10   27 1   
    22   10   28 1   
    23   10   29 1   
    24   11   30 1   
    25   11   42 1   
    26   12   13 1   
    27   12   14 1   
    28   15   16 1   
    29   15   17 1   
    30   15   18 1   
    31   16   31 1   
    32   16   32 1   
    33   16   33 1   
    34   17   34 1   
    35   17   35 1   
    36   17   36 1   
    37   18   37 1   
    38   18   38 1   
    39   18   39 1   
@<TRIPOS>SUBSTRUCTURE
     1 BAA         1 TEMP              0 ****  ****    0 ROOT
