@<TRIPOS>MOLECULE
BAB
   44    47     1     0     0
SMALL
bcc


@<TRIPOS>ATOM
      1 C1         -2.7530  -10.0560   -1.7960 ca        1 BAB     -0.214900
      2 C2         -1.4490   -9.5600   -2.0170 ca        1 BAB     -0.105000
      3 C3         -1.2130   -8.2080   -2.2110 ca        1 BAB     -0.046000
      4 C4         -2.3070   -7.3280   -2.1770 ca        1 BAB      0.115400
      5 C5         -3.6440   -7.8550   -1.9410 ca        1 BAB     -0.066200
      6 C6         -3.8710   -9.2260   -1.7550 ca        1 BAB     -0.064000
      7 C7         -2.9300  -11.5290   -1.6020 ce        1 BAB      0.509400
      8 C8         -3.6980   -5.6250   -2.2060 cc        1 BAB      0.407800
      9 C9         -4.2950   -4.2610   -2.3370 c3        1 BAB     -0.146000
     10 N1         -3.7720  -12.1900   -2.4250 nh        1 BAB     -0.453600
     11 N2         -2.2400  -12.1320   -0.6120 nh        1 BAB     -0.437700
     12 N3         -2.3860   -5.9350   -2.3380 nd        1 BAB     -0.600100
     13 N4         -4.5040   -6.7530   -1.9580 na        1 BAB     -0.240300
     14 C1'        -0.0860    0.1090   -2.3590 ca        1 BAB     -0.212900
     15 C2'        -1.0230    0.7860   -1.5510 ca        1 BAB     -0.059000
     16 C3'        -2.2250    0.1930   -1.1820 ca        1 BAB     -0.065000
     17 C4'        -2.4730   -1.1030   -1.6530 ca        1 BAB     -0.021200
     18 C5'        -1.5080   -1.7950   -2.4800 ca        1 BAB     -0.073200
     19 C6'        -0.2970   -1.1860   -2.8340 ca        1 BAB     -0.037000
     20 C7'         1.1830    0.8280   -2.7200 ce        1 BAB      0.501400
     21 C8'        -3.3050   -3.1430   -2.1960 cc        1 BAB      0.375800
     22 N1'         1.0960    1.9020   -3.5280 nh        1 BAB     -0.445100
     23 N2'         2.3450    0.3650   -2.2180 nh        1 BAB     -0.429200
     24 N3'        -3.5680   -1.9750   -1.4980 na        1 BAB     -0.219200
     25 N4'        -2.0700   -3.0520   -2.7950 na        1 BAB     -0.166300
     26 H2         -0.5970  -10.2600   -2.0540 ha        1 BAB      0.170000
     27 H3         -0.1930   -7.8320   -2.3910 ha        1 BAB      0.182000
     28 H6         -4.8840   -9.6150   -1.5720 ha        1 BAB      0.171000
     29 H91        -4.7680   -4.1680   -3.3640 hc        1 BAB      0.135700
     30 H92        -5.1170   -4.1340   -1.5730 hc        1 BAB      0.135700
     31 HN21       -2.2930  -13.1140   -0.4300 hn        1 BAB      0.335700
     32 HN22       -1.6510  -11.5810   -0.0220 hn        1 BAB      0.335700
     33 HN4        -5.4870   -6.7700   -1.8410 hn        1 BAB      0.338700
     34 H2'        -0.8050    1.8090   -1.1910 ha        1 BAB      0.193000
     35 H3'        -2.9520    0.7290   -0.5460 ha        1 BAB      0.207000
     36 H6'         0.4400   -1.7070   -3.4670 ha        1 BAB      0.189000
     37 H2'1        3.2290    0.8020   -2.4030 hn        1 BAB      0.341200
     38 H2'2        2.3380   -0.4090   -1.5870 hn        1 BAB      0.341200
     39 HN4'       -1.6150   -3.7840   -3.3080 hn        1 BAB      0.385700
     40 HN1         1.8930    2.4450   -3.8010 hn        1 BAB      0.341200
     41 HN2         0.2040    2.1820   -3.8860 hn        1 BAB      0.341200
     42 HN3        -4.4000   -1.7770   -0.9820 hn        1 BAB      0.373700
     43 HN5        -3.9380  -13.1740   -2.3580 hn        1 BAB      0.335700
     44 HN6        -4.2230  -11.6910   -3.1640 hn        1 BAB      0.335700
@<TRIPOS>BOND
     1    1    2 ar  
     2    1    6 ar  
     3    1    7 1   
     4    2    3 ar  
     5    2   26 1   
     6    3    4 ar  
     7    3   27 1   
     8    4    5 ar  
     9    4   12 1   
    10    5    6 ar  
    11    5   13 1   
    12    6   28 1   
    13    7   10 2   
    14    7   11 1   
    15    8    9 1   
    16    8   12 2   
    17    8   13 1   
    18    9   21 1   
    19    9   29 1   
    20    9   30 1   
    21   10   43 1   
    22   10   44 1   
    23   11   31 1   
    24   11   32 1   
    25   13   33 1   
    26   14   15 ar  
    27   14   19 ar  
    28   14   20 1   
    29   15   16 ar  
    30   15   34 1   
    31   16   17 ar  
    32   16   35 1   
    33   17   18 ar  
    34   17   24 1   
    35   18   19 ar  
    36   18   25 1   
    37   19   36 1   
    38   20   22 2   
    39   20   23 1   
    40   21   24 2   
    41   21   25 1   
    42   22   40 1   
    43   22   41 1   
    44   23   37 1   
    45   23   38 1   
    46   24   42 1   
    47   25   39 1   
@<TRIPOS>SUBSTRUCTURE
     1 BAB         1 TEMP              0 ****  ****    0 ROOT
