@<TRIPOS>MOLECULE
BAB
   44    47     1     0     0
SMALL
bcc


@<TRIPOS>ATOM
      1 C1          0.1170    0.1940   -0.2220 ca        1 BAB     -0.214900
      2 C2          0.9670   -0.9300   -0.1220 ca        1 BAB     -0.105000
      3 C3          1.2160   -1.5400    1.0970 ca        1 BAB     -0.046000
      4 C4          0.5950   -1.0190    2.2450 ca        1 BAB      0.115400
      5 C5         -0.2830    0.1360    2.1210 ca        1 BAB     -0.066200
      6 C6         -0.5200    0.7500    0.8840 ca        1 BAB     -0.064000
      7 C7         -0.0980    0.8040   -1.5720 ce        1 BAB      0.509400
      8 C8         -0.1480   -0.5440    4.2580 cc        1 BAB      0.407800
      9 C9         -0.3850   -0.5240    5.7340 c3        1 BAB     -0.146000
     10 N1          0.1880    2.1120   -1.7400 nh        1 BAB     -0.453600
     11 N2         -0.5700    0.0180   -2.5620 nh        1 BAB     -0.437700
     12 N3          0.6530   -1.4090    3.5920 nd        1 BAB     -0.600100
     13 N4         -0.7450    0.4110    3.4120 na        1 BAB     -0.240300
     14 C1'         1.6900   -5.5280    8.4680 ca        1 BAB     -0.212900
     15 C2'         0.4940   -5.4180    9.2090 ca        1 BAB     -0.059000
     16 C3'        -0.4270   -4.4090    8.9540 ca        1 BAB     -0.065000
     17 C4'        -0.1160   -3.4980    7.9360 ca        1 BAB     -0.021200
     18 C5'         1.1110   -3.6150    7.1770 ca        1 BAB     -0.073200
     19 C6'         2.0230   -4.6440    7.4410 ca        1 BAB     -0.037000
     20 C7'         2.6350   -6.6420    8.8170 ce        1 BAB      0.501400
     21 C8'        -0.0250   -1.8040    6.4290 cc        1 BAB      0.375800
     22 N1'         3.2500   -6.6010   10.0150 nh        1 BAB     -0.445100
     23 N2'         2.8210   -7.6290    7.9180 nh        1 BAB     -0.429200
     24 N3'        -0.7900   -2.3670    7.4370 na        1 BAB     -0.219200
     25 N4'         1.1250   -2.5420    6.2590 na        1 BAB     -0.166300
     26 H2          1.4600   -1.3260   -1.0270 ha        1 BAB      0.170000
     27 H3          1.8870   -2.4120    1.1670 ha        1 BAB      0.182000
     28 H6         -1.1900    1.6200    0.7990 ha        1 BAB      0.171000
     29 H91        -1.4680   -0.2770    5.9390 hc        1 BAB      0.135700
     30 H92         0.2460    0.2990    6.1930 hc        1 BAB      0.135700
     31 HN21       -0.7250    0.3480   -3.4940 hn        1 BAB      0.335700
     32 HN22       -0.7850   -0.9380   -2.3650 hn        1 BAB      0.335700
     33 HN4        -1.3540    1.1450    3.6760 hn        1 BAB      0.338700
     34 H2'         0.2700   -6.1500   10.0080 ha        1 BAB      0.193000
     35 H3'        -1.3620   -4.3330    9.5360 ha        1 BAB      0.207000
     36 H6'         2.9610   -4.7360    6.8690 ha        1 BAB      0.189000
     37 H2'1        2.2990   -7.6250    7.0650 hn        1 BAB      0.341200
     38 H2'2        3.4240   -8.4120    8.0870 hn        1 BAB      0.341200
     39 HN4'        1.8200   -2.3850    5.5540 hn        1 BAB      0.385700
     40 HN1         3.0860   -5.8290   10.6300 hn        1 BAB      0.341200
     41 HN2         3.8810   -7.3140   10.3290 hn        1 BAB      0.341200
     42 HN3        -1.6680   -2.0220    7.7650 hn        1 BAB      0.373700
     43 HN5         0.5730    2.6300   -0.9770 hn        1 BAB      0.335700
     44 HN6         0.0740    2.5870   -2.6130 hn        1 BAB      0.335700
@<TRIPOS>BOND
     1    1    2 ar  
     2    1    6 ar  
     3    1    7 1   
     4    2    3 ar  
     5    2   26 1   
     6    3    4 ar  
     7    3   27 1   
     8    4    5 ar  
     9    4   12 1   
    10    5    6 ar  
    11    5   13 1   
    12    6   28 1   
    13    7   10 2   
    14    7   11 1   
    15    8    9 1   
    16    8   12 2   
    17    8   13 1   
    18    9   21 1   
    19    9   29 1   
    20    9   30 1   
    21   10   43 1   
    22   10   44 1   
    23   11   31 1   
    24   11   32 1   
    25   13   33 1   
    26   14   15 ar  
    27   14   19 ar  
    28   14   20 1   
    29   15   16 ar  
    30   15   34 1   
    31   16   17 ar  
    32   16   35 1   
    33   17   18 ar  
    34   17   24 1   
    35   18   19 ar  
    36   18   25 1   
    37   19   36 1   
    38   20   22 2   
    39   20   23 1   
    40   21   24 2   
    41   21   25 1   
    42   22   40 1   
    43   22   41 1   
    44   23   37 1   
    45   23   38 1   
    46   24   42 1   
    47   25   39 1   
@<TRIPOS>SUBSTRUCTURE
     1 BAB         1 TEMP              0 ****  ****    0 ROOT
