@<TRIPOS>MOLECULE
BAB
   44    31     1     0     0
SMALL
bcc


@<TRIPOS>ATOM
      1 C1         -1.3780    2.0420   -4.7280 c1        1 BAB     -0.129000
      2 C2          0.0080    2.0430   -4.7510 c1        1 BAB     -0.068500
      3 C3          0.7210    2.0440   -3.5630 c1        1 BAB     -0.068500
      4 C4          0.0380    2.0450   -2.3310 c1        1 BAB     -0.012250
      5 C5         -1.3260    2.0440   -2.3080 c1        1 BAB     -0.012250
      6 C6         -2.0510    2.0430   -3.5160 c1        1 BAB     -0.051000
      7 C7         -2.1240    1.7990   -6.0210 c2        1 BAB      0.328000
      8 C8         -0.6090    2.0470   -0.2320 c1        1 BAB      0.005000
      9 C9         -0.5470    2.1590    1.2750 c2        1 BAB     -0.074000
     10 N1         -2.4430    2.8080   -6.7920 n2        1 BAB     -0.297000
     11 N2         -2.4770    0.4790   -6.3990 n3        1 BAB     -0.293500
     12 N3          0.4770    2.0470   -1.0490 n1        1 BAB     -0.184500
     13 N4         -1.7220    2.0460   -1.0120 n1        1 BAB     -0.184500
     14 C1'         1.7120   -2.7220    4.0790 c1        1 BAB     -0.129000
     15 C2'         0.8430   -2.2560    5.0530 c1        1 BAB     -0.068500
     16 C3'         0.0810   -1.1240    4.8170 c1        1 BAB     -0.068500
     17 C4'         0.1890   -0.4450    3.5880 c1        1 BAB     -0.012250
     18 C5'         1.0450   -0.9030    2.6290 c1        1 BAB     -0.012250
     19 C6'         1.8200   -2.0540    2.8700 c1        1 BAB     -0.051000
     20 C7'         2.4440   -4.0160    4.3580 c2        1 BAB      0.328000
     21 C8'         0.0470    0.8920    1.8510 c2        1 BAB      0.208000
     22 N1'         3.6440   -3.9900    4.8810 n2        1 BAB     -0.297000
     23 N2'         1.8310   -5.2580    4.0520 n3        1 BAB     -0.293500
     24 N3'        -0.4250    0.6630    3.1040 n1        1 BAB     -0.142000
     25 N4'         0.9550   -0.0760    1.5590 n1        1 BAB     -0.142000
     26 H2          0.4810    2.0420   -5.6040 ha        1 BAB      0.188250
     27 H3          1.6970    2.0450   -3.5790 ha        1 BAB      0.188250
     28 H6         -3.0270    2.0420   -3.5000 ha        1 BAB      0.180000
     29 H91        -1.4490    2.2860    1.6300 ha        1 BAB      0.175000
     30 H92         0.0120    2.9230    1.5230 ha        1 BAB      0.175000
     31 HN21       -2.3040   -0.2200   -5.8350 hn        1 BAB      0.289500
     32 HN22       -2.9050    0.3300   -7.1930 hn        1 BAB      0.289500
     33 HN4        -2.5850    2.0460   -0.7150 DU        1 BAB      0.305200
     34 H2'         0.7670   -2.7270    5.9050 ha        1 BAB      0.188250
     35 H3'        -0.5320   -0.7960    5.5020 ha        1 BAB      0.188250
     36 H6'         2.4320   -2.3820    2.1840 ha        1 BAB      0.180000
     37 H2'1        2.3050   -6.0350    4.1360 hn        1 BAB      0.289500
     38 H2'2        0.9520   -5.2840    3.8010 hn        1 BAB      0.289500
     39 HN4'        1.4310   -0.1480    0.7840 DU        1 BAB      0.305200
     40 HN1         4.0400   -3.1880    5.0790 DU        1 BAB      0.305200
     41 HN2         4.0870   -4.7740    5.0500 hn        1 BAB      0.288000
     42 HN3        -1.0480    1.1640    3.5430 DU        1 BAB      0.305200
     43 HN5        -2.2150    3.6600   -6.5480 DU        1 BAB      0.305200
     44 HN6        -2.8940    2.6610   -7.5750 hn        1 BAB      0.288000
@<TRIPOS>BOND
     1    1    6 1   
     2    1    7 1   
     3    2    3 1   
     4    2   26 1   
     5    3   27 1   
     6    4    5 1   
     7    6   28 1   
     8    7   10 1   
     9    7   11 1   
    10    8   12 1   
    11    8   13 1   
    12    9   21 1   
    13    9   29 1   
    14    9   30 1   
    15   10   44 1   
    16   11   31 1   
    17   11   32 1   
    18   14   19 1   
    19   14   20 1   
    20   15   16 1   
    21   15   34 1   
    22   16   35 1   
    23   17   18 1   
    24   19   36 1   
    25   20   22 1   
    26   20   23 1   
    27   21   24 1   
    28   21   25 1   
    29   22   41 1   
    30   23   37 1   
    31   23   38 1   
@<TRIPOS>SUBSTRUCTURE
     1 BAB         1 TEMP              0 ****  ****    0 ROOT
