@<TRIPOS>MOLECULE
BAC
   20    20     1     0     0
SMALL
bcc


@<TRIPOS>ATOM
      1 C1          0.1640    0.0040   -0.0850 c         1 BAC      0.540900
      2 O1          1.3670   -0.0020    0.0820 o         1 BAC     -0.365100
      3 N2         -0.7420    0.0030    1.1160 ny        1 BAC     -0.699800
      4 C3         -0.0120   -0.0020    2.4330 c3        1 BAC      0.171100
      5 C4         -0.9740   -0.0020    3.5680 ca        1 BAC     -0.184300
      6 C5         -1.4110   -1.2140    4.1160 ca        1 BAC     -0.103000
      7 C6         -2.2800   -1.2110    5.2050 ca        1 BAC     -0.088000
      8 C7         -2.7180   -0.0030    5.7530 ca        1 BAC      0.059900
      9 I7         -3.9760   -0.0030    7.3310 i         1 BAC     -0.065900
     10 C8         -2.2770    1.2060    5.2080 ca        1 BAC     -0.088000
     11 C9         -1.4080    1.2090    4.1190 ca        1 BAC     -0.103000
     12 H1         -0.4040    0.0090   -1.0440 hx        1 BAC      0.132200
     13 HN2        -1.3510   -0.8240    1.0750 hn        1 BAC      0.463800
     14 H31         0.6510    0.9120    2.4570 hx        1 BAC      0.117700
     15 H32         0.6470   -0.9180    2.4520 hx        1 BAC      0.117700
     16 H5         -1.0560   -2.1720    3.7060 ha        1 BAC      0.143500
     17 H6         -2.6110   -2.1730    5.6340 ha        1 BAC      0.172000
     18 H8         -2.6060    2.1680    5.6390 ha        1 BAC      0.172000
     19 H9         -1.0500    2.1680    3.7120 ha        1 BAC      0.143500
     20 H22        -1.3460    0.8340    1.0790 hn        1 BAC      0.463800
@<TRIPOS>BOND
     1    1    2 2   
     2    1    3 1   
     3    1   12 1   
     4    3    4 1   
     5    3   13 1   
     6    3   20 1   
     7    4    5 1   
     8    4   14 1   
     9    4   15 1   
    10    5    6 ar  
    11    5   11 ar  
    12    6    7 ar  
    13    6   16 1   
    14    7    8 ar  
    15    7   17 1   
    16    8    9 1   
    17    8   10 ar  
    18   10   11 ar  
    19   10   18 1   
    20   11   19 1   
@<TRIPOS>SUBSTRUCTURE
     1 BAC         1 TEMP              0 ****  ****    0 ROOT
