@<TRIPOS>MOLECULE
BAC
   19    16     1     0     0
SMALL
bcc


@<TRIPOS>ATOM
      1 C1          2.8480    1.4950    1.2700 c1        1 BAC      0.255000
      2 O1          3.5740    2.1780    0.5720 o         1 BAC     -0.365000
      3 N2          1.4820    1.3290    0.9220 n2        1 BAC     -0.381000
      4 C3          1.1260    0.9610   -0.4040 c3        1 BAC     -0.001000
      5 C4         -0.0800    0.0480   -0.3680 c2        1 BAC     -0.099000
      6 C5          0.0840   -1.3230   -0.4980 c2        1 BAC     -0.118000
      7 C6         -1.0240   -2.1550   -0.5150 c1        1 BAC     -0.098000
      8 C7         -2.2960   -1.6170   -0.4030 c1        1 BAC     -0.259000
      9 I7         -3.9780   -2.8880   -0.3720 i         1 BAC      0.143000
     10 C8         -2.4610   -0.2470   -0.2730 c1        1 BAC     -0.100000
     11 C9         -1.3530    0.5850   -0.2550 c1        1 BAC     -0.126000
     12 H1          3.2090    1.0490    2.0620 ha        1 BAC      0.123000
     13 HN2         0.8320    1.4670    1.5480 hn        1 BAC      0.221000
     14 H31         0.9110    1.7650   -0.9200 h1        1 BAC      0.110000
     15 H32         1.8770    0.4930   -0.8260 h1        1 BAC      0.110000
     16 H5          0.9810   -1.7010   -0.5770 ha        1 BAC      0.160000
     17 H6         -0.9080   -3.1200   -0.6070 ha        1 BAC      0.147000
     18 H8         -3.3560    0.1310   -0.1940 ha        1 BAC      0.144000
     19 H9         -1.4680    1.5500   -0.1640 ha        1 BAC      0.135000
@<TRIPOS>BOND
     1    1    2 1   
     2    1   12 1   
     3    3    4 1   
     4    3   13 1   
     5    4    5 1   
     6    4   14 1   
     7    4   15 1   
     8    5    6 1   
     9    5   11 1   
    10    6    7 1   
    11    6   16 1   
    12    7   17 1   
    13    8    9 1   
    14    8   10 1   
    15   10   18 1   
    16   11   19 1   
@<TRIPOS>SUBSTRUCTURE
     1 BAC         1 TEMP              0 ****  ****    0 ROOT
