@<TRIPOS>MOLECULE
BAC
   19    19     1     0     0
SMALL
bcc


@<TRIPOS>ATOM
      1 C1          0.7950    0.8240    5.0870 c         1 BAC      0.653900
      2 O1          1.8120    0.1120    5.0360 o         1 BAC     -0.604100
      3 N2         -0.4000    0.4800    4.4940 n         1 BAC     -0.571900
      4 C3         -0.5440   -0.6830    3.6610 c3        1 BAC      0.122300
      5 C4         -0.2950   -0.4450    2.1970 ca        1 BAC     -0.106300
      6 C5          1.0060   -0.1910    1.7480 ca        1 BAC     -0.122000
      7 C6          1.2520    0.0050    0.3900 ca        1 BAC     -0.099000
      8 C7          0.2010   -0.0520   -0.5270 ca        1 BAC      0.026900
      9 I7          0.5580    0.2320   -2.4950 i         1 BAC     -0.142900
     10 C8         -1.0960   -0.3070   -0.0820 ca        1 BAC     -0.099000
     11 C9         -1.3450   -0.5010    1.2770 ca        1 BAC     -0.122000
     12 H1          0.7560    1.7810    5.6590 h5        1 BAC      0.030200
     13 HN2        -1.1000    1.1790    4.4040 hn        1 BAC      0.307500
     14 H31        -1.5900   -1.0810    3.8020 h1        1 BAC      0.070700
     15 H32         0.1860   -1.4670    4.0220 h1        1 BAC      0.070700
     16 H5          1.8330   -0.1520    2.4770 ha        1 BAC      0.147500
     17 H6          2.2810    0.2020    0.0510 ha        1 BAC      0.145500
     18 H8         -1.9330   -0.3570   -0.7960 ha        1 BAC      0.145500
     19 H9         -2.3710   -0.7040    1.6190 ha        1 BAC      0.147500
@<TRIPOS>BOND
     1    1    2 2   
     2    1    3 1   
     3    1   12 1   
     4    3    4 1   
     5    3   13 1   
     6    4    5 1   
     7    4   14 1   
     8    4   15 1   
     9    5    6 ar  
    10    5   11 ar  
    11    6    7 ar  
    12    6   16 1   
    13    7    8 ar  
    14    7   17 1   
    15    8    9 1   
    16    8   10 ar  
    17   10   11 ar  
    18   10   18 1   
    19   11   19 1   
@<TRIPOS>SUBSTRUCTURE
     1 BAC         1 TEMP              0 ****  ****    0 ROOT
