@<TRIPOS>MOLECULE
BAC
   20    20     1     0     0
SMALL
bcc


@<TRIPOS>ATOM
      1 C1          0.1620   -0.0050   -0.0850 c         1 BAC      0.540900
      2 O1          1.3650    0.0020    0.0810 o         1 BAC     -0.365100
      3 N2         -0.7430   -0.0050    1.1160 n4        1 BAC     -0.699800
      4 C3         -0.0120    0.0010    2.4320 c3        1 BAC      0.171100
      5 C4         -0.9740    0.0010    3.5670 ca        1 BAC     -0.184300
      6 C5         -1.4090   -1.2100    4.1170 ca        1 BAC     -0.103000
      7 C6         -2.2770   -1.2070    5.2080 ca        1 BAC     -0.088000
      8 C7         -2.7170    0.0020    5.7540 ca        1 BAC      0.059900
      9 I7         -3.9740    0.0020    7.3320 i         1 BAC     -0.065900
     10 C8         -2.2770    1.2100    5.2070 ca        1 BAC     -0.088000
     11 C9         -1.4090    1.2130    4.1170 ca        1 BAC     -0.103000
     12 H1         -0.4060   -0.0130   -1.0440 hx        1 BAC      0.132200
     13 HN2        -1.3470   -0.8360    1.0790 hn        1 BAC      0.463800
     14 H31         0.6510   -0.9120    2.4560 hx        1 BAC      0.117700
     15 H32         0.6460    0.9180    2.4510 hx        1 BAC      0.117700
     16 H5         -1.0530   -2.1690    3.7090 ha        1 BAC      0.143500
     17 H6         -2.6070   -2.1680    5.6380 ha        1 BAC      0.172000
     18 H8         -2.6070    2.1720    5.6370 ha        1 BAC      0.172000
     19 H9         -1.0520    2.1710    3.7080 ha        1 BAC      0.143500
     20 H22        -1.3520    0.8230    1.0750 hn        1 BAC      0.463800
@<TRIPOS>BOND
     1    1    2 2   
     2    1    3 1   
     3    1   12 1   
     4    3    4 1   
     5    3   13 1   
     6    3   20 1   
     7    4    5 1   
     8    4   14 1   
     9    4   15 1   
    10    5    6 ar  
    11    5   11 ar  
    12    6    7 ar  
    13    6   16 1   
    14    7    8 ar  
    15    7   17 1   
    16    8    9 1   
    17    8   10 ar  
    18   10   11 ar  
    19   10   18 1   
    20   11   19 1   
@<TRIPOS>SUBSTRUCTURE
     1 BAC         1 TEMP              0 ****  ****    0 ROOT
