@<TRIPOS>MOLECULE
BAC
   20    20     1     0     0
SMALL
bcc


@<TRIPOS>ATOM
      1 C1          0.1660   -0.0000   -0.0840 c         1 BAC      0.540900
      2 O1          1.3680   -0.0010    0.0840 o         1 BAC     -0.365100
      3 N2         -0.7400   -0.0000    1.1170 n4        1 BAC     -0.699800
      4 C3         -0.0120   -0.0010    2.4330 c3        1 BAC      0.171100
      5 C4         -0.9750   -0.0010    3.5680 ca        1 BAC     -0.184300
      6 C5         -1.4100   -1.2120    4.1170 ca        1 BAC     -0.103000
      7 C6         -2.2800   -1.2090    5.2060 ca        1 BAC     -0.088000
      8 C7         -2.7200   -0.0010    5.7520 ca        1 BAC      0.059900
      9 I7         -3.9780   -0.0010    7.3290 i         1 BAC     -0.065900
     10 C8         -2.2800    1.2080    5.2060 ca        1 BAC     -0.088000
     11 C9         -1.4100    1.2110    4.1170 ca        1 BAC     -0.103000
     12 H1         -0.4010    0.0010   -1.0440 hx        1 BAC      0.132200
     13 HN2        -1.3470   -0.8290    1.0760 hn        1 BAC      0.463800
     14 H31         0.6500    0.9140    2.4560 hx        1 BAC      0.117700
     15 H32         0.6490   -0.9160    2.4550 hx        1 BAC      0.117700
     16 H5         -1.0530   -2.1710    3.7090 ha        1 BAC      0.144000
     17 H6         -2.6100   -2.1710    5.6360 ha        1 BAC      0.172000
     18 H8         -2.6100    2.1700    5.6360 ha        1 BAC      0.172000
     19 H9         -1.0530    2.1700    3.7090 ha        1 BAC      0.144000
     20 H22        -1.3470    0.8290    1.0770 hn        1 BAC      0.463800
@<TRIPOS>BOND
     1    1    2 2   
     2    1    3 1   
     3    1   12 1   
     4    3    4 1   
     5    3   13 1   
     6    3   20 1   
     7    4    5 1   
     8    4   14 1   
     9    4   15 1   
    10    5    6 ar  
    11    5   11 ar  
    12    6    7 ar  
    13    6   16 1   
    14    7    8 ar  
    15    7   17 1   
    16    8    9 1   
    17    8   10 ar  
    18   10   11 ar  
    19   10   18 1   
    20   11   19 1   
@<TRIPOS>SUBSTRUCTURE
     1 BAC         1 TEMP              0 ****  ****    0 ROOT
