@<TRIPOS>MOLECULE
BAE
   22    21     1     0     0
SMALL
bcc


@<TRIPOS>ATOM
      1 CAB        -0.0230   -0.0150    0.0080 c3        1 BAE     -0.113433
      2 CAH         1.5030   -0.0150    0.0080 c3        1 BAE     -0.099000
      3 CAC         2.0200    0.0120    1.4380 c3        1 BAE     -0.113433
      4 CAD         2.0200   -1.2400   -0.7310 c3        1 BAE     -0.113433
      5 CAG         1.9550    1.2460   -0.7200 c         1 BAE      0.539100
      6 OAE         1.2790    2.1210   -1.2260 o         1 BAE     -0.389100
      7 N           3.4670    1.4240   -0.8210 n4        1 BAE     -0.680800
      8 CAA         3.8760    2.6530   -1.5330 c3        1 BAE      0.079100
      9 H1         -0.4150    0.8880    0.5350 hc        1 BAE      0.069811
     10 H2         -0.4150   -0.0200   -1.0380 hc        1 BAE      0.069811
     11 H3         -0.3920   -0.9290    0.5350 hc        1 BAE      0.069811
     12 H4          1.7730    0.9810    1.9360 hc        1 BAE      0.069811
     13 H5          3.1220   -0.1630    1.4830 hc        1 BAE      0.069811
     14 H6          1.5240   -0.8090    2.0180 hc        1 BAE      0.069811
     15 H7          3.1220   -1.3660   -0.6030 hc        1 BAE      0.069811
     16 H8          1.7730   -1.1860   -1.8190 hc        1 BAE      0.069811
     17 H9          1.5240   -2.1520   -0.3110 hc        1 BAE      0.069811
     18 H10         3.8450    1.4350    0.1350 hn        1 BAE      0.460800
     19 H11         4.9970    2.7090   -1.5640 hx        1 BAE      0.113367
     20 H12         3.4620    3.5520   -1.0000 hx        1 BAE      0.113367
     21 H13         3.4650    2.6350   -2.5790 hx        1 BAE      0.113367
     22 HN3         3.8480    0.6010   -1.3030 hn        1 BAE      0.460800
@<TRIPOS>BOND
     1    1    2 1   
     2    1    9 1   
     3    1   10 1   
     4    1   11 1   
     5    2    3 1   
     6    2    4 1   
     7    2    5 1   
     8    3   12 1   
     9    3   13 1   
    10    3   14 1   
    11    4   15 1   
    12    4   16 1   
    13    4   17 1   
    14    5    6 2   
    15    5    7 1   
    16    7    8 1   
    17    7   18 1   
    18    7   22 1   
    19    8   19 1   
    20    8   20 1   
    21    8   21 1   
@<TRIPOS>SUBSTRUCTURE
     1 BAE         1 TEMP              0 ****  ****    0 ROOT
