@<TRIPOS>MOLECULE
BAE
   21    20     1     0     0
SMALL
bcc


@<TRIPOS>ATOM
      1 CAB         1.9370    1.1030   -0.1000 c3        1 BAE     -0.085767
      2 CAH         1.0260   -0.1130   -0.0000 c3        1 BAE     -0.118000
      3 CAC         1.3060   -1.0490   -1.1650 c3        1 BAE     -0.085767
      4 CAD         1.2770   -0.8240    1.3200 c3        1 BAE     -0.085767
      5 CAG        -0.4330    0.3670   -0.0600 c         1 BAE      0.660100
      6 OAE        -0.7210    1.5750   -0.1740 o         1 BAE     -0.610100
      7 N          -1.4230   -0.5910    0.0150 n         1 BAE     -0.577900
      8 CAA        -2.8140   -0.2800   -0.0290 c3        1 BAE      0.080300
      9 H1          1.7510    1.6430   -1.0600 hc        1 BAE      0.042811
     10 H2          1.7300    1.8070    0.7420 hc        1 BAE      0.042811
     11 H3          3.0050    0.7840   -0.0590 hc        1 BAE      0.042811
     12 H4          2.3970   -1.2870   -1.2000 hc        1 BAE      0.042811
     13 H5          0.7440   -2.0080   -1.0580 hc        1 BAE      0.042811
     14 H6          1.0160   -0.5670   -2.1290 hc        1 BAE      0.042811
     15 H7          0.9660   -0.1760    2.1750 hc        1 BAE      0.042811
     16 H8          0.7160   -1.7870    1.3760 hc        1 BAE      0.042811
     17 H9          2.3670   -1.0490    1.4230 hc        1 BAE      0.042811
     18 H10        -1.1650   -1.5430    0.1050 hn        1 BAE      0.308500
     19 H11        -3.3190   -0.6290    0.9120 h1        1 BAE      0.042700
     20 H12        -2.9610    0.8290   -0.1320 h1        1 BAE      0.042700
     21 H13        -3.2980   -0.7940   -0.9040 h1        1 BAE      0.042700
@<TRIPOS>BOND
     1    1    2 1   
     2    1    9 1   
     3    1   10 1   
     4    1   11 1   
     5    2    3 1   
     6    2    4 1   
     7    2    5 1   
     8    3   12 1   
     9    3   13 1   
    10    3   14 1   
    11    4   15 1   
    12    4   16 1   
    13    4   17 1   
    14    5    6 2   
    15    5    7 1   
    16    7    8 1   
    17    7   18 1   
    18    8   19 1   
    19    8   20 1   
    20    8   21 1   
@<TRIPOS>SUBSTRUCTURE
     1 BAE         1 TEMP              0 ****  ****    0 ROOT
