@<TRIPOS>MOLECULE
BAE
   21    19     1     0     0
SMALL
bcc


@<TRIPOS>ATOM
      1 CAB        -1.6220    0.8230    0.1280 c3        1 BAE     -0.203667
      2 CAH        -0.1090    0.8230    0.1280 c3        1 BAE     -0.068000
      3 CAC         0.3950    0.8230    1.5550 c3        1 BAE     -0.203667
      4 CAD         0.3950    2.0590   -0.5850 c3        1 BAE     -0.203667
      5 CAG         0.3950   -0.4120   -0.5850 c1        1 BAE      0.304000
      6 OAE         1.0750   -0.3010   -1.5850 o         1 BAE     -0.371000
      7 N           0.0820   -1.7000   -0.0790 n2        1 BAE     -0.387000
      8 CAA         0.5790   -2.8620   -0.7350 c3        1 BAE     -0.075000
      9 H1         -1.9480    0.6410   -0.7740 hc        1 BAE      0.082111
     10 H2         -1.9480    1.6960    0.4220 hc        1 BAE      0.082111
     11 H3         -1.9480    0.1330    0.7370 hc        1 BAE      0.082111
     12 H4          0.2370    1.6990    1.9560 hc        1 BAE      0.082111
     13 H5          1.3520    0.6310    1.5620 hc        1 BAE      0.082111
     14 H6         -0.0780    0.1400    2.0670 hc        1 BAE      0.082111
     15 H7          0.0820    2.0510   -1.5090 hc        1 BAE      0.082111
     16 H8          0.0580    2.8560   -0.1330 hc        1 BAE      0.082111
     17 H9          1.3710    2.0660   -0.5720 hc        1 BAE      0.082111
     18 H10        -0.4470   -1.7840    0.6580 hn        1 BAE      0.222000
     19 H11         0.2450   -2.8860   -1.6520 h1        1 BAE      0.082000
     20 H12         0.2780   -3.6590   -0.2580 h1        1 BAE      0.082000
     21 H13         1.5550   -2.8380   -0.7450 h1        1 BAE      0.082000
@<TRIPOS>BOND
     1    1    2 1   
     2    1    9 1   
     3    1   10 1   
     4    1   11 1   
     5    2    3 1   
     6    2    4 1   
     7    2    5 1   
     8    3   12 1   
     9    3   13 1   
    10    3   14 1   
    11    4   15 1   
    12    4   16 1   
    13    4   17 1   
    14    5    6 1   
    15    7    8 1   
    16    7   18 1   
    17    8   19 1   
    18    8   20 1   
    19    8   21 1   
@<TRIPOS>SUBSTRUCTURE
     1 BAE         1 TEMP              0 ****  ****    0 ROOT
