@<TRIPOS>MOLECULE
BAE
   22    21     1     0     0
SMALL
bcc


@<TRIPOS>ATOM
      1 CAB        -0.0230   -0.0160    0.0090 c3        1 BAE     -0.113433
      2 CAH         1.5030   -0.0150    0.0090 c3        1 BAE     -0.099000
      3 CAC         2.0200    0.0140    1.4390 c3        1 BAE     -0.113433
      4 CAD         2.0200   -1.2410   -0.7290 c3        1 BAE     -0.113433
      5 CAG         1.9550    1.2450   -0.7200 c         1 BAE      0.539100
      6 OAE         1.2790    2.1200   -1.2270 o         1 BAE     -0.389100
      7 N           3.4670    1.4230   -0.8230 n4        1 BAE     -0.680800
      8 CAA         3.8750    2.6530   -1.5350 c3        1 BAE      0.079100
      9 H1         -0.4150    0.8880    0.5350 hc        1 BAE      0.069811
     10 H2         -0.3910   -0.9290    0.5370 hc        1 BAE      0.069811
     11 H3         -0.4150   -0.0210   -1.0370 hc        1 BAE      0.069811
     12 H4          1.5240   -0.8060    2.0200 hc        1 BAE      0.069811
     13 H5          3.1220   -0.1600    1.4840 hc        1 BAE      0.069811
     14 H6          1.7730    0.9830    1.9350 hc        1 BAE      0.069811
     15 H7          3.1220   -1.3660   -0.6010 hc        1 BAE      0.069811
     16 H8          1.7740   -1.1880   -1.8170 hc        1 BAE      0.069811
     17 H9          1.5250   -2.1530   -0.3080 hc        1 BAE      0.069811
     18 H10         3.8460    1.4330    0.1310 hn        1 BAE      0.460800
     19 H11         3.4620    2.6360   -2.5800 hx        1 BAE      0.113367
     20 H12         3.4620    3.5510   -1.0000 hx        1 BAE      0.113367
     21 H13         4.9970    2.7080   -1.5670 hx        1 BAE      0.113367
     22 HN3         3.8460    0.6000   -1.3070 hn        1 BAE      0.460800
@<TRIPOS>BOND
     1    1    2 1   
     2    1    9 1   
     3    1   10 1   
     4    1   11 1   
     5    2    3 1   
     6    2    4 1   
     7    2    5 1   
     8    3   12 1   
     9    3   13 1   
    10    3   14 1   
    11    4   15 1   
    12    4   16 1   
    13    4   17 1   
    14    5    6 2   
    15    5    7 1   
    16    7    8 1   
    17    7   18 1   
    18    7   22 1   
    19    8   19 1   
    20    8   20 1   
    21    8   21 1   
@<TRIPOS>SUBSTRUCTURE
     1 BAE         1 TEMP              0 ****  ****    0 ROOT
