@<TRIPOS>MOLECULE
BAE
   22    21     1     0     0
SMALL
bcc


@<TRIPOS>ATOM
      1 CAB        -0.0230   -0.0140    0.0090 c3        1 BAE     -0.113433
      2 CAH         1.5030   -0.0140    0.0090 c3        1 BAE     -0.099000
      3 CAC         2.0190    0.0160    1.4390 c3        1 BAE     -0.113433
      4 CAD         2.0190   -1.2420   -0.7270 c3        1 BAE     -0.113433
      5 CAG         1.9560    1.2440   -0.7220 c         1 BAE      0.539100
      6 OAE         1.2800    2.1180   -1.2320 o         1 BAE     -0.389100
      7 N           3.4680    1.4230   -0.8230 ny        1 BAE     -0.680800
      8 CAA         3.8770    2.6510   -1.5360 c3        1 BAE      0.079100
      9 H1         -0.4150    0.8910    0.5340 hc        1 BAE      0.069811
     10 H2         -0.3920   -0.9260    0.5380 hc        1 BAE      0.069811
     11 H3         -0.4150   -0.0210   -1.0370 hc        1 BAE      0.069811
     12 H4          1.5220   -0.8020    2.0210 hc        1 BAE      0.069811
     13 H5          3.1210   -0.1600    1.4840 hc        1 BAE      0.069811
     14 H6          1.7740    0.9870    1.9340 hc        1 BAE      0.069811
     15 H7          3.1210   -1.3670   -0.5990 hc        1 BAE      0.069811
     16 H8          1.7720   -1.1900   -1.8150 hc        1 BAE      0.069811
     17 H9          1.5230   -2.1530   -0.3040 hc        1 BAE      0.069811
     18 H10         3.8450    1.4340    0.1330 hn        1 BAE      0.460800
     19 H11         3.4660    2.6310   -2.5820 hx        1 BAE      0.113367
     20 H12         3.4620    3.5500   -1.0040 hx        1 BAE      0.113367
     21 H13         4.9980    2.7070   -1.5660 hx        1 BAE      0.113367
     22 HN3         3.8480    0.5990   -1.3040 hn        1 BAE      0.460800
@<TRIPOS>BOND
     1    1    2 1   
     2    1    9 1   
     3    1   10 1   
     4    1   11 1   
     5    2    3 1   
     6    2    4 1   
     7    2    5 1   
     8    3   12 1   
     9    3   13 1   
    10    3   14 1   
    11    4   15 1   
    12    4   16 1   
    13    4   17 1   
    14    5    6 2   
    15    5    7 1   
    16    7    8 1   
    17    7   18 1   
    18    7   22 1   
    19    8   19 1   
    20    8   20 1   
    21    8   21 1   
@<TRIPOS>SUBSTRUCTURE
     1 BAE         1 TEMP              0 ****  ****    0 ROOT
