@<TRIPOS>MOLECULE
BAF
   42    39     1     0     0
SMALL
bcc


@<TRIPOS>ATOM
      1 N3       -599.2590 -357.9590  823.0950 n4        1 BAF     -0.165000
      2 C1       -599.9160 -357.0310  822.0880 c2        1 BAF      0.247000
      3 O1       -600.7640 -356.2680  822.4990 o         1 BAF     -0.159000
      4 CA1      -600.0190 -358.2170  824.3870 c3        1 BAF     -0.023000
      5 CB1      -601.3330 -358.9610  824.1050 c3        1 BAF     -0.287000
      6 N1       -600.2630 -356.9870  825.2300 n4        1 BAF     -0.162000
      7 C2       -599.0040 -356.2760  825.7810 c2        1 BAF      0.170000
      8 O2       -597.9860 -356.5090  825.1580 o         1 BAF     -0.230000
      9 CA2      -599.2210 -355.3040  827.0860 c3        1 BAF      0.136000
     10 CB2      -599.9480 -354.0930  826.5100 c3        1 BAF     -0.259000
     11 N2       -598.0080 -355.0670  827.6870 n3        1 BAF     -0.386000
     12 C3        337.7630  630.2100    0.7900 c1        1 BAF      0.411000
     13 O3        336.8710  629.9940    0.5460 o         1 BAF     -0.206000
     14 O4        338.6560  630.4270    0.0340 o         1 BAF     -0.206000
     15 C4       1130.8650  574.2390-1920.9340 c2        1 BAF      0.338000
     16 C41      1129.9850  574.2970-1922.0900 c3        1 BAF     -0.319000
     17 C42      1131.1660  575.4510-1920.1880 c3        1 BAF     -0.319000
     18 C43      1131.4440  572.9700-1920.5230 c3        1 BAF     -0.319000
     19 HN3      -598.3180 -357.5830  823.3190 hn        1 BAF      0.295000
     20 H1       -599.5130 -357.1650  821.0510 hx        1 BAF      0.275000
     21 HA1      -599.3310 -358.8870  825.0090 hx        1 BAF      0.196000
     22 HB11     -601.8180 -359.2550  825.0720 hc        1 BAF      0.155000
     23 HB12     -601.1300 -359.9110  823.5440 hc        1 BAF      0.155000
     24 HB13     -602.0530 -358.3370  823.5160 hc        1 BAF      0.155000
     25 HN1      -600.8280 -356.2970  824.7130 hn        1 BAF      0.274500
     26 HA2      -599.8980 -355.9180  827.7510 h1        1 BAF      0.138000
     27 HB21     -599.3430 -353.5690  825.7300 hc        1 BAF      0.126333
     28 HB22     -600.1460 -353.3610  827.3390 hc        1 BAF      0.126333
     29 HB23     -600.9310 -354.3960  826.0790 hc        1 BAF      0.126333
     30 HN2      -597.4320 -354.3150  827.3880 hn        1 BAF      0.262500
     31 H411     1128.9770  574.7160-1921.7940 hc        1 BAF      0.180000
     32 H412     1130.3930  575.0200-1922.8570 hc        1 BAF      0.180000
     33 H413     1129.8290  573.3020-1922.5810 hc        1 BAF      0.180000
     34 H421     1130.6620  576.3640-1920.6000 hc        1 BAF      0.180000
     35 H422     1132.2820  575.6300-1920.1680 hc        1 BAF      0.180000
     36 H423     1130.8650  575.3280-1919.1050 hc        1 BAF      0.180000
     37 H431     1130.6270  572.2190-1920.3090 hc        1 BAF      0.180000
     38 H432     1132.1030  573.0530-1919.6200 hc        1 BAF      0.180000
     39 H433     1132.0440  572.5220-1921.3700 hc        1 BAF      0.180000
     40 H32      -599.1330 -358.8830  822.6490 hn        1 BAF      0.295000
     41 H12      -600.8240 -357.2980  826.0360 hn        1 BAF      0.274500
     42 H22      -597.6550 -355.6840  828.3790 hn        1 BAF      0.262500
@<TRIPOS>BOND
     1    1    2 1   
     2    1    4 1   
     3    1   19 1   
     4    1   40 1   
     5    2    3 1   
     6    2   20 1   
     7    4    5 1   
     8    4    6 1   
     9    4   21 1   
    10    5   22 1   
    11    5   23 1   
    12    5   24 1   
    13    6    7 1   
    14    6   25 1   
    15    6   41 1   
    16    7    8 1   
    17    7    9 1   
    18    9   10 1   
    19    9   11 1   
    20    9   26 1   
    21   10   27 1   
    22   10   28 1   
    23   10   29 1   
    24   11   30 1   
    25   11   42 1   
    26   12   13 1   
    27   12   14 1   
    28   15   16 1   
    29   15   17 1   
    30   15   18 1   
    31   16   31 1   
    32   16   32 1   
    33   16   33 1   
    34   17   34 1   
    35   17   35 1   
    36   17   36 1   
    37   18   37 1   
    38   18   38 1   
    39   18   39 1   
@<TRIPOS>SUBSTRUCTURE
     1 BAF         1 TEMP              0 ****  ****    0 ROOT
