@<TRIPOS>MOLECULE
BAF
   39    38     1     0     0
SMALL
bcc


@<TRIPOS>ATOM
      1 N3          0.6550    0.2810   -4.6020 n         1 BAF     -0.600900
      2 C1          0.0730   -0.7600   -5.2900 c         1 BAF      0.657900
      3 O1         -0.9550   -1.3410   -4.9130 o         1 BAF     -0.584100
      4 CA1         0.1530    0.7620   -3.3200 c3        1 BAF      0.254100
      5 CB1         0.5520    2.2400   -3.1120 c3        1 BAF     -0.113100
      6 N1          0.5770   -0.0590   -2.1860 n         1 BAF     -0.587900
      7 C2         -0.3230   -0.5730   -1.2800 c         1 BAF      0.635100
      8 O2         -1.5280   -0.2550   -1.2850 o         1 BAF     -0.600100
      9 CA2         0.2260   -1.5750   -0.2290 c3        1 BAF      0.030700
     10 CB2        -0.0920   -2.9740   -0.7610 c3        1 BAF     -0.099100
     11 N2         -0.3480   -1.3480    1.0790 n         1 BAF     -0.507900
     12 C3          0.3460   -0.5470    1.9800 c         1 BAF      0.737100
     13 O3          1.5600   -0.2780    1.9540 o         1 BAF     -0.598000
     14 O4         -0.4640   -0.1030    2.9950 os        1 BAF     -0.441900
     15 C4          0.1310    0.5410    4.1530 c3        1 BAF      0.185800
     16 C41        -1.0780    0.7870    5.0550 c3        1 BAF     -0.114100
     17 C42         1.1230   -0.3850    4.8360 c3        1 BAF     -0.114100
     18 C43         0.7750    1.8590    3.7580 c3        1 BAF     -0.114100
     19 HN3         1.5420    0.6160   -4.8930 hn        1 BAF      0.305500
     20 H1          0.5970   -1.0130   -6.2430 h5        1 BAF      0.026200
     21 HA1        -0.9850    0.6930   -3.3620 h2        1 BAF      0.119700
     22 HB11        1.6580    2.3650   -3.0460 hc        1 BAF      0.050700
     23 HB12        0.1660    2.8540   -3.9590 hc        1 BAF      0.050700
     24 HB13        0.0910    2.6110   -2.1650 hc        1 BAF      0.050700
     25 HN1         1.5360   -0.2920   -2.1020 hn        1 BAF      0.308500
     26 HA2         1.3490   -1.4680   -0.1290 h1        1 BAF      0.093700
     27 HB21       -1.1920   -3.1080   -0.8960 hc        1 BAF      0.056033
     28 HB22        0.4090   -3.1040   -1.7500 hc        1 BAF      0.056033
     29 HB23        0.2850   -3.7530   -0.0570 hc        1 BAF      0.056033
     30 HN2        -1.3460   -1.2930    1.1090 hn        1 BAF      0.330500
     31 H411       -0.7370    1.2970    5.9860 hc        1 BAF      0.052256
     32 H412       -1.8230    1.4310    4.5310 hc        1 BAF      0.052256
     33 H413       -1.5640   -0.1810    5.3190 hc        1 BAF      0.052256
     34 H421        0.6520   -1.3790    5.0250 hc        1 BAF      0.052256
     35 H422        2.0280   -0.5300    4.1970 hc        1 BAF      0.052256
     36 H423        1.4350    0.0610    5.8100 hc        1 BAF      0.052256
     37 H431        0.0540    2.4750    3.1690 hc        1 BAF      0.052256
     38 H432        1.0660    2.4190    4.6780 hc        1 BAF      0.052256
     39 H433        1.6860    1.6790    3.1370 hc        1 BAF      0.052256
@<TRIPOS>BOND
     1    1    2 1   
     2    1    4 1   
     3    1   19 1   
     4    2    3 2   
     5    2   20 1   
     6    4    5 1   
     7    4    6 1   
     8    4   21 1   
     9    5   22 1   
    10    5   23 1   
    11    5   24 1   
    12    6    7 1   
    13    6   25 1   
    14    7    8 2   
    15    7    9 1   
    16    9   10 1   
    17    9   11 1   
    18    9   26 1   
    19   10   27 1   
    20   10   28 1   
    21   10   29 1   
    22   11   12 1   
    23   11   30 1   
    24   12   13 2   
    25   12   14 1   
    26   14   15 1   
    27   15   16 1   
    28   15   17 1   
    29   15   18 1   
    30   16   31 1   
    31   16   32 1   
    32   16   33 1   
    33   17   34 1   
    34   17   35 1   
    35   17   36 1   
    36   18   37 1   
    37   18   38 1   
    38   18   39 1   
@<TRIPOS>SUBSTRUCTURE
     1 BAF         1 TEMP              0 ****  ****    0 ROOT
