@<TRIPOS>MOLECULE
BAF
   39    38     1     0     0
SMALL
bcc


@<TRIPOS>ATOM
      1 N3         -2.8750   -3.9070    1.6400 n         1 BAF     -0.596900
      2 C1         -2.8720   -5.3260    1.6160 c         1 BAF      0.656900
      3 O1         -1.8730   -5.9370    1.9460 o         1 BAF     -0.585100
      4 CA1        -1.7120   -3.2020    2.0450 c3        1 BAF      0.249100
      5 CB1        -1.9080   -2.6660    3.4450 c3        1 BAF     -0.108100
      6 N1         -1.4800   -2.1220    1.1530 n         1 BAF     -0.591900
      7 C2         -0.1560   -1.8020    0.7570 c         1 BAF      0.634100
      8 O2          0.7890   -2.2860    1.3480 o         1 BAF     -0.592100
      9 CA2         0.0790   -0.8860   -0.4230 c3        1 BAF      0.045700
     10 CB2         0.8040   -1.6430   -1.5130 c3        1 BAF     -0.097100
     11 N2          0.8670    0.2230   -0.0130 n         1 BAF     -0.544900
     12 C3          0.8180    1.4370   -0.7440 c         1 BAF      0.754100
     13 O3          0.1120    1.5250   -1.7290 o         1 BAF     -0.619000
     14 O4          1.5900    2.5370   -0.3330 os        1 BAF     -0.443900
     15 C4          1.5850    3.6080   -1.2420 c3        1 BAF      0.186800
     16 C41         2.1730    3.1530   -2.5600 c3        1 BAF     -0.114433
     17 C42         0.1630    4.0780   -1.4600 c3        1 BAF     -0.114433
     18 C43         2.4120    4.7450   -0.6860 c3        1 BAF     -0.114433
     19 HN3        -3.6200   -3.4490    1.3830 hn        1 BAF      0.303500
     20 H1         -3.6690   -5.8120    1.3250 h5        1 BAF      0.024200
     21 HA1        -0.9420   -3.8070    2.0320 h2        1 BAF      0.120700
     22 HB11       -2.6250   -1.9970    3.4410 hc        1 BAF      0.048367
     23 HB12       -2.1510   -3.4010    4.0450 hc        1 BAF      0.048367
     24 HB13       -1.0760   -2.2510    3.7560 hc        1 BAF      0.048367
     25 HN1        -2.1830   -1.6500    0.8160 hn        1 BAF      0.329500
     26 HA2        -0.7800   -0.5670   -0.7640 h1        1 BAF      0.087700
     27 HB21        0.4710   -2.5650   -1.5470 hc        1 BAF      0.058367
     28 HB22        0.6460   -1.2060   -2.3760 hc        1 BAF      0.058367
     29 HB23        1.7660   -1.6500   -1.3210 hc        1 BAF      0.058367
     30 HN2         1.4070    0.1520    0.7190 hn        1 BAF      0.334500
     31 H411        1.5050    2.6310   -3.0530 hc        1 BAF      0.052811
     32 H412        2.9620    2.5970   -2.3910 hc        1 BAF      0.052811
     33 H413        2.4320    3.9360   -3.0900 hc        1 BAF      0.052811
     34 H421       -0.2340    3.5820   -2.2070 hc        1 BAF      0.052811
     35 H422        0.1640    5.0360   -1.6670 hc        1 BAF      0.052811
     36 H423       -0.3620    3.9200   -0.6470 hc        1 BAF      0.052811
     37 H431        3.3230    4.4300   -0.5080 hc        1 BAF      0.052811
     38 H432        2.0090    5.0660    0.1470 hc        1 BAF      0.052811
     39 H433        2.4410    5.4770   -1.3380 hc        1 BAF      0.052811
@<TRIPOS>BOND
     1    1    2 1   
     2    1    4 1   
     3    1   19 1   
     4    2    3 2   
     5    2   20 1   
     6    4    5 1   
     7    4    6 1   
     8    4   21 1   
     9    5   22 1   
    10    5   23 1   
    11    5   24 1   
    12    6    7 1   
    13    6   25 1   
    14    7    8 2   
    15    7    9 1   
    16    9   10 1   
    17    9   11 1   
    18    9   26 1   
    19   10   27 1   
    20   10   28 1   
    21   10   29 1   
    22   11   12 1   
    23   11   30 1   
    24   12   13 2   
    25   12   14 1   
    26   14   15 1   
    27   15   16 1   
    28   15   17 1   
    29   15   18 1   
    30   16   31 1   
    31   16   32 1   
    32   16   33 1   
    33   17   34 1   
    34   17   35 1   
    35   17   36 1   
    36   18   37 1   
    37   18   38 1   
    38   18   39 1   
@<TRIPOS>SUBSTRUCTURE
     1 BAF         1 TEMP              0 ****  ****    0 ROOT
