@<TRIPOS>MOLECULE
BAF
   42    39     1     0     0
SMALL
bcc


@<TRIPOS>ATOM
      1 N3       -251.6800 -146.0030  405.7950 ny        1 BAF     -0.166000
      2 C1       -252.6930 -145.9720  404.6470 c2        1 BAF      0.250000
      3 O1       -252.8720 -144.8920  404.1350 o         1 BAF     -0.142000
      4 CA1      -250.3570 -146.6560  405.4520 c3        1 BAF     -0.013000
      5 CB1      -249.5410 -146.8880  406.7350 c3        1 BAF     -0.284000
      6 N1       -249.5390 -145.8930  404.4320 ny        1 BAF     -0.159000
      7 C2       -249.9420 -146.1280  402.9620 c2        1 BAF      0.175000
      8 O2       -251.0660 -146.5710  402.8240 o         1 BAF     -0.223000
      9 CA2      -248.8280 -145.7730  401.8300 c3        1 BAF      0.129000
     10 CB2      -248.4740 -144.3070  402.0620 c3        1 BAF     -0.256000
     11 N2       -249.3090 -146.0890  400.5770 n8        1 BAF     -0.391000
     12 C3       -249.7480 -142.5500  406.8240 c1        1 BAF      0.465000
     13 O3       -249.9450 -143.6340  406.3250 o         1 BAF     -0.228000
     14 O4       -249.5540 -141.5000  407.3100 o         1 BAF     -0.228000
     15 C4        566.8970  331.0740 -912.5920 c2        1 BAF      0.338000
     16 C41       565.9750  330.3440 -913.4470 c3        1 BAF     -0.319000
     17 C42       566.6340  332.4660 -912.2610 c3        1 BAF     -0.319000
     18 C43       568.0810  330.4130 -912.0660 c3        1 BAF     -0.319000
     19 HN3      -251.5170 -145.0420  406.1470 hn        1 BAF      0.283500
     20 H1       -253.1450 -146.9690  404.4380 hx        1 BAF      0.270000
     21 HA1      -250.6130 -147.6600  404.9700 hx        1 BAF      0.198000
     22 HB11     -249.2620 -145.9210  407.2260 hc        1 BAF      0.153333
     23 HB12     -248.6070 -147.4600  406.4970 hc        1 BAF      0.153333
     24 HB13     -250.1260 -147.5100  407.4600 hc        1 BAF      0.153333
     25 HN1      -248.5630 -146.2020  404.5420 hn        1 BAF      0.274500
     26 HA2      -247.9710 -146.4550  402.1190 h1        1 BAF      0.137000
     27 HB21     -249.3760 -143.6490  402.0370 hc        1 BAF      0.123667
     28 HB22     -247.7780 -143.9640  401.2490 hc        1 BAF      0.123667
     29 HB23     -247.9410 -144.1830  403.0330 hc        1 BAF      0.123667
     30 HN2      -249.8450 -145.4310  400.0630 hn        1 BAF      0.258500
     31 H411      566.2830  329.2810 -913.6280 hc        1 BAF      0.180000
     32 H412      564.9370  330.3500 -912.9990 hc        1 BAF      0.180000
     33 H413      565.8710  330.8660 -914.4450 hc        1 BAF      0.180000
     34 H421      567.5010  333.1150 -912.5850 hc        1 BAF      0.180000
     35 H422      566.5690  332.5960 -911.1400 hc        1 BAF      0.180000
     36 H423      565.6940  332.8640 -912.7240 hc        1 BAF      0.180000
     37 H431      567.7850  329.5010 -911.4660 hc        1 BAF      0.180000
     38 H432      568.7160  330.0170 -912.9140 hc        1 BAF      0.180000
     39 H433      568.7130  331.0780 -911.4230 hc        1 BAF      0.180000
     40 H32      -252.0840 -146.5510  406.5700 hn        1 BAF      0.283500
     41 H12      -249.5550 -144.8780  404.6190 hn        1 BAF      0.274500
     42 H22      -249.2620 -147.0210  400.2420 hn        1 BAF      0.258500
@<TRIPOS>BOND
     1    1    2 1   
     2    1    4 1   
     3    1   19 1   
     4    1   40 1   
     5    2    3 1   
     6    2   20 1   
     7    4    5 1   
     8    4    6 1   
     9    4   21 1   
    10    5   22 1   
    11    5   23 1   
    12    5   24 1   
    13    6    7 1   
    14    6   25 1   
    15    6   41 1   
    16    7    8 1   
    17    7    9 1   
    18    9   10 1   
    19    9   11 1   
    20    9   26 1   
    21   10   27 1   
    22   10   28 1   
    23   10   29 1   
    24   11   30 1   
    25   11   42 1   
    26   12   13 1   
    27   12   14 1   
    28   15   16 1   
    29   15   17 1   
    30   15   18 1   
    31   16   31 1   
    32   16   32 1   
    33   16   33 1   
    34   17   34 1   
    35   17   35 1   
    36   17   36 1   
    37   18   37 1   
    38   18   38 1   
    39   18   39 1   
@<TRIPOS>SUBSTRUCTURE
     1 BAF         1 TEMP              0 ****  ****    0 ROOT
