@<TRIPOS>MOLECULE
BAG
   43    43     1     0     0
SMALL
bcc


@<TRIPOS>ATOM
      1 O9          0.9720    1.6090   -0.3240 o         1 BAG     -0.517100
      2 C8          1.7310    0.7810    0.1620 c         1 BAG      0.628700
      3 C10         2.2160    0.5530    1.4820 ca        1 BAG     -0.248600
      4 C11         3.2730   -0.3270    1.8270 ca        1 BAG     -0.037500
      5 C13         3.6850   -0.4310    3.1420 ca        1 BAG     -0.117500
      6 C15         3.0610    0.3300    4.1510 ca        1 BAG      0.038000
      7 C14         2.0170    1.1980    3.8230 ca        1 BAG     -0.117500
      8 C12         1.5930    1.3210    2.5060 ca        1 BAG     -0.037500
      9 N16         2.2840   -0.2120   -0.9730 n4        1 BAG     -0.618600
     10 C17         1.4440   -0.3340   -2.1550 c2        1 BAG      0.017800
     11 C1          1.1790    0.7020   -3.0120 c2        1 BAG      0.215100
     12 N18         1.6830    2.0840   -2.9510 n4        1 BAG     -0.766400
     13 O2          0.4500    0.4430   -4.1430 oh        1 BAG     -0.482100
     14 C3          0.7290   -1.6500   -2.3820 c3        1 BAG     -0.043200
     15 C4          1.2560   -2.4480   -3.5730 c3        1 BAG     -0.110400
     16 CD          0.3730   -3.6900   -3.7770 c3        1 BAG      0.104800
     17 NE          0.8040   -4.5280   -4.9570 n4        1 BAG     -0.790000
     18 CZ         -0.0690   -5.7610   -5.1660 c2        1 BAG      0.621100
     19 NH2         0.3540   -6.6180   -6.3310 n4        1 BAG     -0.820600
     20 NH1        -1.0770   -6.1460   -4.5030 n2        1 BAG     -0.571100
     21 H11         3.8060   -0.9190    1.0680 ha        1 BAG      0.151000
     22 H13         4.5180   -1.1060    3.4140 ha        1 BAG      0.204500
     23 H15         3.4040    0.2390    5.2020 ha        1 BAG      0.211000
     24 H14         1.5270    1.8000    4.6150 ha        1 BAG      0.204500
     25 H12         0.7700    2.0150    2.2510 ha        1 BAG      0.151000
     26 H16         2.3740   -1.1360   -0.5270 hn        1 BAG      0.471800
     27 H181        1.5130    2.5580   -3.8590 hn        1 BAG      0.506800
     28 H182        2.6930    2.1130   -2.7620 hn        1 BAG      0.506800
     29 HO2        -0.4030    0.9330   -4.1210 ho        1 BAG      0.504000
     30 H31        -0.3590   -1.4020   -2.5580 hc        1 BAG      0.108700
     31 H32         0.7700   -2.2900   -1.4560 hc        1 BAG      0.108700
     32 H41         1.2330   -1.7970   -4.4900 hc        1 BAG      0.097200
     33 H42         2.3200   -2.7560   -3.3870 hc        1 BAG      0.097200
     34 HD1        -0.6940   -3.3620   -3.9560 hx        1 BAG      0.129700
     35 HD2         0.4230   -4.3410   -2.8540 hx        1 BAG      0.129700
     36 HNE         0.7680   -3.9370   -5.8040 hn        1 BAG      0.485300
     37 HH21       -0.2960   -7.4400   -6.4060 hn        1 BAG      0.524133
     38 HH22        0.2950   -6.0950   -7.2210 hn        1 BAG      0.524133
     39 HH1        -1.4970   -5.7070   -3.7060 hn        1 BAG      0.550400
     40 H162        3.2270    0.1020   -1.2300 hn        1 BAG      0.471800
     41 H183        1.1840    2.6120   -2.2040 hn        1 BAG      0.506800
     42 HE3         1.7820   -4.8220   -4.8060 hn        1 BAG      0.485300
     43 HH23        1.3090   -6.9890   -6.1950 hn        1 BAG      0.524133
@<TRIPOS>BOND
     1    1    2 2   
     2    2    3 1   
     3    2    9 1   
     4    3    4 ar  
     5    3    8 ar  
     6    4    5 ar  
     7    4   21 1   
     8    5    6 ar  
     9    5   22 1   
    10    6    7 ar  
    11    6   23 1   
    12    7    8 ar  
    13    7   24 1   
    14    8   25 1   
    15    9   10 1   
    16    9   26 1   
    17    9   40 1   
    18   10   11 2   
    19   10   14 1   
    20   11   12 1   
    21   11   13 1   
    22   12   27 1   
    23   12   28 1   
    24   12   41 1   
    25   13   29 1   
    26   14   15 1   
    27   14   30 1   
    28   14   31 1   
    29   15   16 1   
    30   15   32 1   
    31   15   33 1   
    32   16   17 1   
    33   16   34 1   
    34   16   35 1   
    35   17   18 1   
    36   17   36 1   
    37   17   42 1   
    38   18   19 1   
    39   18   20 2   
    40   19   37 1   
    41   19   38 1   
    42   19   43 1   
    43   20   39 1   
@<TRIPOS>SUBSTRUCTURE
     1 BAG         1 TEMP              0 ****  ****    0 ROOT
