@<TRIPOS>MOLECULE
BAG
   43    43     1     0     0
SMALL
bcc


@<TRIPOS>ATOM
      1 O9          0.9660    1.6050   -0.3050 o         1 BAG     -0.517100
      2 C8          1.7280    0.7770    0.1740 c         1 BAG      0.628700
      3 C10         2.2190    0.5430    1.4910 ca        1 BAG     -0.248600
      4 C11         3.2790   -0.3360    1.8280 ca        1 BAG     -0.037500
      5 C13         3.6960   -0.4450    3.1410 ca        1 BAG     -0.117500
      6 C15         3.0720    0.3070    4.1570 ca        1 BAG      0.038000
      7 C14         2.0250    1.1740    3.8370 ca        1 BAG     -0.117500
      8 C12         1.5950    1.3030    2.5210 ca        1 BAG     -0.037500
      9 N16         2.2810   -0.2090   -0.9690 ny        1 BAG     -0.618600
     10 C17         1.4380   -0.3260   -2.1480 c2        1 BAG      0.017800
     11 C1          1.1670    0.7140   -2.9980 c2        1 BAG      0.215100
     12 N18         1.6670    2.0970   -2.9310 nz        1 BAG     -0.766400
     13 O2          0.4350    0.4580   -4.1290 oh        1 BAG     -0.482100
     14 C3          0.7270   -1.6440   -2.3800 c3        1 BAG     -0.043200
     15 C4          1.2530   -2.4330   -3.5770 c3        1 BAG     -0.110400
     16 CD          0.3730   -3.6770   -3.7860 c3        1 BAG      0.104800
     17 NE          0.8030   -4.5060   -4.9710 ny        1 BAG     -0.790000
     18 CZ         -0.0650   -5.7420   -5.1850 c2        1 BAG      0.621100
     19 NH2         0.3580   -6.5920   -6.3540 nz        1 BAG     -0.820600
     20 NH1        -1.0710   -6.1330   -4.5220 n2        1 BAG     -0.571100
     21 H11         3.8120   -0.9210    1.0640 ha        1 BAG      0.151000
     22 H13         4.5320   -1.1190    3.4060 ha        1 BAG      0.204500
     23 H15         3.4190    0.2120    5.2060 ha        1 BAG      0.211000
     24 H14         1.5350    1.7700    4.6330 ha        1 BAG      0.204500
     25 H12         0.7700    1.9950    2.2730 ha        1 BAG      0.151000
     26 H16         2.3750   -1.1350   -0.5280 hn        1 BAG      0.471800
     27 H181        1.4930    2.5760   -3.8360 hn        1 BAG      0.506800
     28 H182        1.1680    2.6190   -2.1800 hn        1 BAG      0.506800
     29 HO2        -0.4190    0.9460   -4.1030 ho        1 BAG      0.504000
     30 H31        -0.3630   -1.3970   -2.5520 hc        1 BAG      0.108700
     31 H32         0.7730   -2.2880   -1.4580 hc        1 BAG      0.108700
     32 H41         2.3180   -2.7380   -3.3960 hc        1 BAG      0.097200
     33 H42         1.2250   -1.7770   -4.4910 hc        1 BAG      0.097200
     34 HD1         0.4280   -4.3320   -2.8670 hx        1 BAG      0.129700
     35 HD2        -0.6950   -3.3520   -3.9610 hx        1 BAG      0.129700
     36 HNE         1.7830   -4.7990   -4.8250 hn        1 BAG      0.485300
     37 HH21        0.2960   -6.0650   -7.2410 hn        1 BAG      0.524133
     38 HH22        1.3140   -6.9610   -6.2210 hn        1 BAG      0.524133
     39 HH1        -1.4920   -5.7000   -3.7220 hn        1 BAG      0.550400
     40 H162        3.2220    0.1100   -1.2260 hn        1 BAG      0.471800
     41 H183        2.6780    2.1280   -2.7450 hn        1 BAG      0.506800
     42 HE3         0.7630   -3.9110   -5.8150 hn        1 BAG      0.485300
     43 HH23       -0.2900   -7.4160   -6.4320 hn        1 BAG      0.524133
@<TRIPOS>BOND
     1    1    2 2   
     2    2    3 1   
     3    2    9 1   
     4    3    4 ar  
     5    3    8 ar  
     6    4    5 ar  
     7    4   21 1   
     8    5    6 ar  
     9    5   22 1   
    10    6    7 ar  
    11    6   23 1   
    12    7    8 ar  
    13    7   24 1   
    14    8   25 1   
    15    9   10 1   
    16    9   26 1   
    17    9   40 1   
    18   10   11 2   
    19   10   14 1   
    20   11   12 1   
    21   11   13 1   
    22   12   27 1   
    23   12   28 1   
    24   12   41 1   
    25   13   29 1   
    26   14   15 1   
    27   14   30 1   
    28   14   31 1   
    29   15   16 1   
    30   15   32 1   
    31   15   33 1   
    32   16   17 1   
    33   16   34 1   
    34   16   35 1   
    35   17   18 1   
    36   17   36 1   
    37   17   42 1   
    38   18   19 1   
    39   18   20 2   
    40   19   37 1   
    41   19   38 1   
    42   19   43 1   
    43   20   39 1   
@<TRIPOS>SUBSTRUCTURE
     1 BAG         1 TEMP              0 ****  ****    0 ROOT
