@<TRIPOS>MOLECULE
BAG
   39    34     1     0     0
SMALL
bcc


@<TRIPOS>ATOM
      1 O9         -1.3190   -0.1570    2.5830 o         1 BAG     -0.379000
      2 C8         -0.1910    0.3050    2.5150 c1        1 BAG      0.340000
      3 C10         0.5460    0.6990    3.7870 c1        1 BAG     -0.124000
      4 C11         1.7690    1.3460    3.7060 c2        1 BAG     -0.106000
      5 C13         2.4220    1.7500    4.8670 c1        1 BAG     -0.138000
      6 C15         1.8470    1.5030    6.1110 c1        1 BAG     -0.123000
      7 C14         0.6220    0.8540    6.1940 c1        1 BAG     -0.123000
      8 C12        -0.0310    0.4510    5.0340 c1        1 BAG     -0.080000
      9 N16         0.3790    0.6030    1.2420 n3        1 BAG     -0.291000
     10 C17        -0.3810    0.3670    0.0400 c2        1 BAG     -0.194000
     11 C1         -1.2190    1.3510   -0.4510 c1        1 BAG      0.168000
     12 N18        -1.3330    2.6170    0.2410 n2        1 BAG     -0.311000
     13 O2         -1.9640    1.1210   -1.6320 oh        1 BAG     -0.279000
     14 C3         -0.2570   -1.0010   -0.7070 c3        1 BAG     -0.111000
     15 C4          0.4700   -0.7880   -2.0650 c3        1 BAG     -0.174000
     16 CD          0.0420   -1.9080   -3.0650 c3        1 BAG     -0.053000
     17 NE          0.2500   -1.4460   -4.4360 n3        1 BAG     -0.333000
     18 CZ         -0.5090   -2.0440   -5.5300 c2        1 BAG      0.158000
     19 NH2        -1.9310   -1.9710   -5.5320 n3        1 BAG     -0.318000
     20 NH1         0.1220   -2.6520   -6.5180 n1        1 BAG     -0.349000
     21 H11         2.1710    1.5190    2.8370 ha        1 BAG      0.138000
     22 H13         3.2750    2.2010    4.8100 ha        1 BAG      0.137000
     23 H15         2.3060    1.7870    6.9250 ha        1 BAG      0.137500
     24 H14         0.2210    0.6830    7.0600 ha        1 BAG      0.137500
     25 H12        -0.8890   -0.0030    5.0920 ha        1 BAG      0.155000
     26 H16         1.2500    0.8690    1.1850 hn        1 BAG      0.226000
     27 H181       -0.6620    3.2490    0.1630 hn        1 BAG      0.209500
     28 H182       -2.0770    2.7940    0.7610 hn        1 BAG      0.209500
     29 HO2        -2.4980    1.8280   -1.7920 ho        1 BAG      0.231000
     30 H31         0.2590   -1.6330   -0.1530 hc        1 BAG      0.094500
     31 H32        -1.1410   -1.3620   -0.8690 hc        1 BAG      0.094500
     32 H41         1.4370   -0.8250   -1.9270 hc        1 BAG      0.085000
     33 H42         0.2270    0.0840   -2.4310 hc        1 BAG      0.085000
     34 HD1        -0.9030   -2.1180   -2.9310 h1        1 BAG      0.083000
     35 HD2         0.5820   -2.7150   -2.9050 h1        1 BAG      0.083000
     36 HNE         0.8560   -0.7960   -4.6070 hn        1 BAG      0.189000
     37 HH21       -2.4050   -2.2060   -6.2880 hn        1 BAG      0.189500
     38 HH22       -2.3720   -1.6570   -4.7960 hn        1 BAG      0.189500
     39 HH1         1.0340   -2.6990   -6.5170 DU        1 BAG      0.146000
@<TRIPOS>BOND
     1    1    2 1   
     2    2    9 1   
     3    3    4 1   
     4    3    8 1   
     5    4    5 1   
     6    4   21 1   
     7    5   22 1   
     8    6    7 1   
     9    6   23 1   
    10    7   24 1   
    11    8   25 1   
    12    9   10 1   
    13    9   26 1   
    14   10   11 1   
    15   10   14 1   
    16   11   13 1   
    17   12   27 1   
    18   12   28 1   
    19   13   29 1   
    20   14   15 1   
    21   14   30 1   
    22   14   31 1   
    23   15   16 1   
    24   15   32 1   
    25   15   33 1   
    26   16   17 1   
    27   16   34 1   
    28   16   35 1   
    29   17   18 1   
    30   17   36 1   
    31   18   19 1   
    32   18   20 1   
    33   19   37 1   
    34   19   38 1   
@<TRIPOS>SUBSTRUCTURE
     1 BAG         1 TEMP              0 ****  ****    0 ROOT
