@<TRIPOS>MOLECULE
BAG
   43    43     1     0     0
SMALL
bcc


@<TRIPOS>ATOM
      1 O9          0.9650    1.6140   -0.3230 o         1 BAG     -0.517100
      2 C8          1.7320    0.7900    0.1580 c         1 BAG      0.628700
      3 C10         2.2280    0.5660    1.4740 ca        1 BAG     -0.248600
      4 C11         3.2920   -0.3080    1.8130 ca        1 BAG     -0.037500
      5 C13         3.7130   -0.4080    3.1250 ca        1 BAG     -0.117500
      6 C15         3.0920    0.3490    4.1380 ca        1 BAG      0.038000
      7 C14         2.0410    1.2120    3.8170 ca        1 BAG     -0.117500
      8 C12         1.6070    1.3310    2.5020 ca        1 BAG     -0.037500
      9 N16         2.2820   -0.2010   -0.9800 n4        1 BAG     -0.618600
     10 C17         1.4340   -0.3280   -2.1560 c2        1 BAG      0.017800
     11 C1          1.1580    0.7060   -3.0110 c2        1 BAG      0.215100
     12 N18         1.6550    2.0900   -2.9550 n4        1 BAG     -0.766400
     13 O2          0.4220    0.4420   -4.1380 oh        1 BAG     -0.482100
     14 C3          0.7250   -1.6490   -2.3770 c3        1 BAG     -0.043200
     15 C4          1.2480   -2.4450   -3.5710 c3        1 BAG     -0.110400
     16 CD          0.3710   -3.6920   -3.7680 c3        1 BAG      0.104800
     17 NE          0.7970   -4.5270   -4.9500 n4        1 BAG     -0.790000
     18 CZ         -0.0700   -5.7660   -5.1520 c2        1 BAG      0.621100
     19 NH2         0.3490   -6.6220   -6.3190 n4        1 BAG     -0.820600
     20 NH1        -1.0710   -6.1560   -4.4810 n2        1 BAG     -0.571100
     21 H11         3.8220   -0.8970    1.0500 ha        1 BAG      0.151000
     22 H13         4.5520   -1.0790    3.3910 ha        1 BAG      0.204500
     23 H15         3.4430    0.2610    5.1860 ha        1 BAG      0.211000
     24 H14         1.5530    1.8110    4.6120 ha        1 BAG      0.204500
     25 H12         0.7790    2.0200    2.2530 ha        1 BAG      0.151000
     26 H16         2.3800   -1.1240   -0.5340 hn        1 BAG      0.471800
     27 H181        1.4760    2.5630   -3.8630 hn        1 BAG      0.506800
     28 H182        1.1580    2.6160   -2.2050 hn        1 BAG      0.506800
     29 HO2        -0.4340    0.9270   -4.1100 ho        1 BAG      0.504000
     30 H31        -0.3660   -1.4060   -2.5450 hc        1 BAG      0.108700
     31 H32         0.7770   -2.2880   -1.4510 hc        1 BAG      0.108700
     32 H41         2.3150   -2.7460   -3.3930 hc        1 BAG      0.097200
     33 H42         1.2140   -1.7940   -4.4890 hc        1 BAG      0.097200
     34 HD1         0.4310   -4.3410   -2.8450 hx        1 BAG      0.129700
     35 HD2        -0.7000   -3.3700   -3.9390 hx        1 BAG      0.129700
     36 HNE         1.7780   -4.8160   -4.8060 hn        1 BAG      0.485300
     37 HH21        0.2810   -6.1000   -7.2090 hn        1 BAG      0.524133
     38 HH22        1.3070   -6.9880   -6.1900 hn        1 BAG      0.524133
     39 HH1        -1.4880   -5.7200   -3.6810 hn        1 BAG      0.550400
     40 H162        3.2210    0.1180   -1.2440 hn        1 BAG      0.471800
     41 H183        2.6660    2.1240   -2.7730 hn        1 BAG      0.506800
     42 HE3         0.7510   -3.9380   -5.7970 hn        1 BAG      0.485300
     43 HH23       -0.2970   -7.4480   -6.3880 hn        1 BAG      0.524133
@<TRIPOS>BOND
     1    1    2 2   
     2    2    3 1   
     3    2    9 1   
     4    3    4 ar  
     5    3    8 ar  
     6    4    5 ar  
     7    4   21 1   
     8    5    6 ar  
     9    5   22 1   
    10    6    7 ar  
    11    6   23 1   
    12    7    8 ar  
    13    7   24 1   
    14    8   25 1   
    15    9   10 1   
    16    9   26 1   
    17    9   40 1   
    18   10   11 2   
    19   10   14 1   
    20   11   12 1   
    21   11   13 1   
    22   12   27 1   
    23   12   28 1   
    24   12   41 1   
    25   13   29 1   
    26   14   15 1   
    27   14   30 1   
    28   14   31 1   
    29   15   16 1   
    30   15   32 1   
    31   15   33 1   
    32   16   17 1   
    33   16   34 1   
    34   16   35 1   
    35   17   18 1   
    36   17   36 1   
    37   17   42 1   
    38   18   19 1   
    39   18   20 2   
    40   19   37 1   
    41   19   38 1   
    42   19   43 1   
    43   20   39 1   
@<TRIPOS>SUBSTRUCTURE
     1 BAG         1 TEMP              0 ****  ****    0 ROOT
