@<TRIPOS>MOLECULE
BAG
   39    39     1     0     0
SMALL
bcc


@<TRIPOS>ATOM
      1 O9         -1.7040   -0.9870    2.8470 o         1 BAG     -0.619100
      2 C8         -0.7140   -0.3210    2.4710 c         1 BAG      0.665700
      3 C10         0.3910    0.0140    3.4180 ca        1 BAG     -0.143600
      4 C11         1.0040    1.2700    3.4250 ca        1 BAG     -0.092500
      5 C13         2.0240    1.5380    4.3390 ca        1 BAG     -0.138000
      6 C15         2.4330    0.5570    5.2420 ca        1 BAG     -0.110000
      7 C14         1.8150   -0.6940    5.2400 ca        1 BAG     -0.138000
      8 C12         0.7910   -0.9660    4.3340 ca        1 BAG     -0.092500
      9 N16        -0.6030    0.1720    1.1840 n         1 BAG     -0.445100
     10 C17        -1.4310   -0.2060    0.1080 c2        1 BAG     -0.192600
     11 C1         -2.7970   -0.0210    0.1260 c2        1 BAG      0.290100
     12 N18        -3.5640    0.5090    1.1570 nh        1 BAG     -0.801600
     13 O2         -3.5830   -0.3710   -0.9650 oh        1 BAG     -0.524100
     14 C3         -0.7580   -0.7680   -1.1070 c3        1 BAG     -0.029200
     15 C4         -0.3180    0.3290   -2.0580 c3        1 BAG     -0.093400
     16 CD          0.3530   -0.2900   -3.2850 c3        1 BAG      0.180800
     17 NE          0.8590    0.7170   -4.1980 nh        1 BAG     -0.796200
     18 CZ          1.4290    0.2500   -5.4360 c2        1 BAG      0.744100
     19 NH2         1.7640    1.2910   -6.3690 nh        1 BAG     -0.934800
     20 NH1         1.5990   -1.0320   -5.6550 n2        1 BAG     -0.871100
     21 H11         0.6780    2.0590    2.7300 ha        1 BAG      0.146500
     22 H13         2.5040    2.5280    4.3470 ha        1 BAG      0.137000
     23 H15         3.2390    0.7710    5.9580 ha        1 BAG      0.135000
     24 H14         2.1310   -1.4660    5.9570 ha        1 BAG      0.137000
     25 H12         0.2820   -1.9440    4.3360 ha        1 BAG      0.146500
     26 H16         0.2620    0.5870    0.9180 hn        1 BAG      0.313500
     27 H181       -3.2430    0.2600    2.0730 hn        1 BAG      0.412800
     28 H182       -4.5450    0.3600    1.0350 hn        1 BAG      0.412800
     29 HO2        -3.0850   -0.1630   -1.7680 ho        1 BAG      0.432000
     30 H31         0.1370   -1.3780   -0.8060 hc        1 BAG      0.056200
     31 H32        -1.4550   -1.4760   -1.6310 hc        1 BAG      0.056200
     32 H41        -1.2060    0.9410   -2.3670 hc        1 BAG      0.043200
     33 H42         0.3940    1.0180   -1.5330 hc        1 BAG      0.043200
     34 HD1         1.2280   -0.9180   -2.9510 h1        1 BAG      0.055700
     35 HD2        -0.3860   -0.9830   -3.7850 h1        1 BAG      0.055700
     36 HNE         0.1880    1.4460   -4.3530 hn        1 BAG      0.387800
     37 HH21        2.5450    1.0650   -6.9460 hn        1 BAG      0.389800
     38 HH22        1.8480    2.2030   -5.9760 hn        1 BAG      0.389800
     39 HH1         2.0820   -1.2640   -6.4940 hn        1 BAG      0.391400
@<TRIPOS>BOND
     1    1    2 2   
     2    2    3 1   
     3    2    9 1   
     4    3    4 ar  
     5    3    8 ar  
     6    4    5 ar  
     7    4   21 1   
     8    5    6 ar  
     9    5   22 1   
    10    6    7 ar  
    11    6   23 1   
    12    7    8 ar  
    13    7   24 1   
    14    8   25 1   
    15    9   10 1   
    16    9   26 1   
    17   10   11 2   
    18   10   14 1   
    19   11   12 1   
    20   11   13 1   
    21   12   27 1   
    22   12   28 1   
    23   13   29 1   
    24   14   15 1   
    25   14   30 1   
    26   14   31 1   
    27   15   16 1   
    28   15   32 1   
    29   15   33 1   
    30   16   17 1   
    31   16   34 1   
    32   16   35 1   
    33   17   18 1   
    34   17   36 1   
    35   18   19 1   
    36   18   20 2   
    37   19   37 1   
    38   19   38 1   
    39   20   39 1   
@<TRIPOS>SUBSTRUCTURE
     1 BAG         1 TEMP              0 ****  ****    0 ROOT
