@<TRIPOS>MOLECULE
BAH
   45    48     1     0     0
SMALL
bcc


@<TRIPOS>ATOM
      1 C1          0.1470    0.4610    0.0950 ca        1 BAH     -0.239900
      2 C2          1.1420    1.4360    0.3290 ca        1 BAH     -0.118500
      3 C3          1.6590    1.6500    1.5960 ca        1 BAH     -0.047000
      4 C4          1.1650    0.8800    2.6610 ca        1 BAH      0.117900
      5 C5          0.1350   -0.1240    2.4010 ca        1 BAH     -0.080200
      6 C6         -0.3690   -0.3380    1.1160 ca        1 BAH     -0.066500
      7 C7         -0.3740    0.2910   -1.2900 ce        1 BAH      0.519400
      8 C8          0.6690   -0.0580    4.5780 cc        1 BAH      0.416800
      9 C9          0.6210   -0.3620    6.0730 c3        1 BAH      0.353000
     10 N1         -0.4160   -0.9520   -1.8190 nh        1 BAH     -0.465100
     11 N2         -0.7850    1.3880   -1.9630 nh        1 BAH     -0.449200
     12 N3          1.4720    0.8860    4.0300 nd        1 BAH     -0.550100
     13 N4         -0.1580   -0.6970    3.6390 na        1 BAH     -0.223300
     14 C1'         6.2400   -0.2710    8.2800 ca        1 BAH     -0.239900
     15 C2'         6.0620   -1.6720    8.3300 ca        1 BAH     -0.118500
     16 C3'         4.8930   -2.2670    7.8860 ca        1 BAH     -0.047000
     17 C4'         3.8700   -1.4420    7.3910 ca        1 BAH      0.117900
     18 C5'         4.0740    0.0040    7.3340 ca        1 BAH     -0.080200
     19 C6'         5.2640    0.5890    7.7750 ca        1 BAH     -0.066500
     20 C7'         7.5110    0.3010    8.8040 ce        1 BAH      0.519400
     21 C8'         2.0340   -0.5550    6.5970 cc        1 BAH      0.416800
     22 N1'         7.9310   -0.0790   10.0300 nh        1 BAH     -0.465100
     23 N2'         8.1940    1.1790    8.0350 nh        1 BAH     -0.449200
     24 N3'         2.5870   -1.7490    6.9190 nd        1 BAH     -0.550100
     25 N4'         2.8940    0.5350    6.8130 na        1 BAH     -0.223300
     26 O91         0.0530    0.7120    6.7840 oh        1 BAH     -0.608800
     27 O92        -0.2460   -1.4470    6.2780 oh        1 BAH     -0.608800
     28 HC2         1.5350    2.0300   -0.5120 ha        1 BAH      0.154500
     29 HC3         2.4380    2.4100    1.7710 ha        1 BAH      0.182000
     30 HC6        -1.1550   -1.0870    0.9340 ha        1 BAH      0.157500
     31 HN11       -0.7610   -1.1440   -2.7350 hn        1 BAH      0.329200
     32 HN12       -0.0650   -1.7170   -1.2810 hn        1 BAH      0.329200
     33 HN21       -0.7520    2.2750   -1.5040 hn        1 BAH      0.329200
     34 HN22       -1.1290    1.3580   -2.8990 hn        1 BAH      0.329200
     35 HN4        -0.7860   -1.4390    3.8330 hn        1 BAH      0.345200
     36 HC2'        6.8720   -2.3150    8.7120 ha        1 BAH      0.154500
     37 HC3'        4.7590   -3.3610    7.9220 ha        1 BAH      0.182000
     38 HC6'        5.4020    1.6800    7.7480 ha        1 BAH      0.157500
     39 H1'1        7.3660   -0.7140   10.5570 hn        1 BAH      0.329200
     40 H1'2        8.7810    0.2430   10.4410 hn        1 BAH      0.329200
     41 H2'1        7.8460    1.3910    7.1230 hn        1 BAH      0.329200
     42 H2'2        9.0470    1.6080    8.3230 hn        1 BAH      0.329200
     43 HN4'        2.6710    1.4870    6.6540 hn        1 BAH      0.345200
     44 H91        -0.9100    0.6780    6.6720 ho        1 BAH      0.464000
     45 H92        -0.0430   -1.8700    7.1260 ho        1 BAH      0.464000
@<TRIPOS>BOND
     1    1    2 ar  
     2    1    6 ar  
     3    1    7 1   
     4    2    3 ar  
     5    2   28 1   
     6    3    4 ar  
     7    3   29 1   
     8    4    5 ar  
     9    4   12 1   
    10    5    6 ar  
    11    5   13 1   
    12    6   30 1   
    13    7   10 2   
    14    7   11 1   
    15    8    9 1   
    16    8   12 2   
    17    8   13 1   
    18    9   21 1   
    19    9   26 1   
    20    9   27 1   
    21   10   31 1   
    22   10   32 1   
    23   11   33 1   
    24   11   34 1   
    25   13   35 1   
    26   14   15 ar  
    27   14   19 ar  
    28   14   20 1   
    29   15   16 ar  
    30   15   36 1   
    31   16   17 ar  
    32   16   37 1   
    33   17   18 ar  
    34   17   24 1   
    35   18   19 ar  
    36   18   25 1   
    37   19   38 1   
    38   20   22 2   
    39   20   23 1   
    40   21   24 2   
    41   21   25 1   
    42   22   39 1   
    43   22   40 1   
    44   23   41 1   
    45   23   42 1   
    46   25   43 1   
    47   26   44 1   
    48   27   45 1   
@<TRIPOS>SUBSTRUCTURE
     1 BAH         1 TEMP              0 ****  ****    0 ROOT
