@<TRIPOS>MOLECULE
BAH
   45    48     1     0     0
SMALL
bcc


@<TRIPOS>ATOM
      1 C1          5.0850    0.9280    0.4940 ca        1 BAH     -0.239900
      2 C2          4.2960    1.4940    1.5200 ca        1 BAH     -0.118500
      3 C3          2.9780    1.1110    1.7100 ca        1 BAH     -0.047000
      4 C4          2.4290    0.1460    0.8510 ca        1 BAH      0.118400
      5 C5          3.2580   -0.4250   -0.2080 ca        1 BAH     -0.080200
      6 C6          4.5890   -0.0360   -0.3840 ca        1 BAH     -0.067000
      7 C7          6.5000    1.3750    0.3540 ce        1 BAH      0.519400
      8 C8          1.2000   -1.3130   -0.2250 cc        1 BAH      0.417300
      9 C9          0.0380   -2.2240   -0.6140 c3        1 BAH      0.353000
     10 N1          7.4710    0.4380    0.2860 nh        1 BAH     -0.465100
     11 N2          6.7550    2.7010    0.3000 nh        1 BAH     -0.449200
     12 N3          1.1530   -0.4340    0.8040 nd        1 BAH     -0.550600
     13 N4          2.4480   -1.3480   -0.8690 na        1 BAH     -0.223800
     14 C1'        -5.1140    0.8920   -0.1570 ca        1 BAH     -0.239900
     15 C2'        -5.0770    0.8350   -1.5690 ca        1 BAH     -0.118500
     16 C3'        -4.0370    0.2110   -2.2370 ca        1 BAH     -0.047000
     17 C4'        -3.0050   -0.3650   -1.4800 ca        1 BAH      0.118400
     18 C5'        -3.0500   -0.2850   -0.0210 ca        1 BAH     -0.080200
     19 C6'        -4.1100    0.3420    0.6400 ca        1 BAH     -0.067000
     20 C7'        -6.2790    1.5530    0.4940 ce        1 BAH      0.519400
     21 C8'        -1.2390   -1.4060   -0.7130 cc        1 BAH      0.417300
     22 N1'        -6.6390    2.7870    0.0760 nh        1 BAH     -0.465100
     23 N2'        -6.9300    0.8940    1.4780 nh        1 BAH     -0.449200
     24 N3'        -1.8590   -1.0700   -1.8700 nd        1 BAH     -0.550600
     25 N4'        -1.9070   -0.9430    0.4330 na        1 BAH     -0.223800
     26 O91         0.3920   -2.9240   -1.7770 oh        1 BAH     -0.608800
     27 O92        -0.1740   -3.2090    0.3700 oh        1 BAH     -0.608800
     28 HC2         4.7370    2.2380    2.2030 ha        1 BAH      0.154500
     29 HC3         2.3720    1.5470    2.5210 ha        1 BAH      0.182000
     30 HC6         5.2020   -0.4650   -1.1910 ha        1 BAH      0.157500
     31 HN11        7.2180   -0.5250    0.3680 hn        1 BAH      0.329200
     32 HN12        8.4380    0.6610    0.1870 hn        1 BAH      0.329200
     33 HN21        7.6760    3.0770    0.2300 hn        1 BAH      0.329200
     34 HN22        5.9880    3.3400    0.3320 hn        1 BAH      0.329200
     35 HN4         2.6680   -1.8850   -1.6730 hn        1 BAH      0.345200
     36 HC2'       -5.9020    1.2690   -2.1580 ha        1 BAH      0.154500
     37 HC3'       -4.0180    0.1580   -3.3390 ha        1 BAH      0.182000
     38 HC6'       -4.1340    0.4050    1.7380 ha        1 BAH      0.157500
     39 H1'1       -6.1030    3.2260   -0.6450 hn        1 BAH      0.329200
     40 H1'2       -7.4260    3.2790    0.4410 hn        1 BAH      0.329200
     41 H2'1       -7.7190    1.2710    1.9580 hn        1 BAH      0.329200
     42 H2'2       -6.6370   -0.0310    1.7130 hn        1 BAH      0.329200
     43 HN4'       -1.6180   -1.0880    1.3690 hn        1 BAH      0.345200
     44 H91        -0.4080   -3.2320   -2.2300 ho        1 BAH      0.464000
     45 H92         0.4940   -3.9030    0.2560 ho        1 BAH      0.464000
@<TRIPOS>BOND
     1    1    2 ar  
     2    1    6 ar  
     3    1    7 1   
     4    2    3 ar  
     5    2   28 1   
     6    3    4 ar  
     7    3   29 1   
     8    4    5 ar  
     9    4   12 1   
    10    5    6 ar  
    11    5   13 1   
    12    6   30 1   
    13    7   10 2   
    14    7   11 1   
    15    8    9 1   
    16    8   12 2   
    17    8   13 1   
    18    9   21 1   
    19    9   26 1   
    20    9   27 1   
    21   10   31 1   
    22   10   32 1   
    23   11   33 1   
    24   11   34 1   
    25   13   35 1   
    26   14   15 ar  
    27   14   19 ar  
    28   14   20 1   
    29   15   16 ar  
    30   15   36 1   
    31   16   17 ar  
    32   16   37 1   
    33   17   18 ar  
    34   17   24 1   
    35   18   19 ar  
    36   18   25 1   
    37   19   38 1   
    38   20   22 2   
    39   20   23 1   
    40   21   24 2   
    41   21   25 1   
    42   22   39 1   
    43   22   40 1   
    44   23   41 1   
    45   23   42 1   
    46   25   43 1   
    47   26   44 1   
    48   27   45 1   
@<TRIPOS>SUBSTRUCTURE
     1 BAH         1 TEMP              0 ****  ****    0 ROOT
