@<TRIPOS>MOLECULE
BAH
   45    33     1     0     0
SMALL
bcc


@<TRIPOS>ATOM
      1 C1         -0.9930    1.2880   -5.4700 c1        1 BAH     -0.154500
      2 C2          0.3680    1.4700   -5.2840 c1        1 BAH     -0.082250
      3 C3          0.9360    1.2280   -4.0430 c1        1 BAH     -0.082250
      4 C4          0.1310    0.7960   -2.9720 c1        1 BAH     -0.027250
      5 C5         -1.2090    0.6160   -3.1560 c1        1 BAH     -0.027250
      6 C6         -1.7860    0.8630   -4.4160 c1        1 BAH     -0.070500
      7 C7         -1.4640    1.9020   -6.7710 c2        1 BAH      0.342000
      8 C8         -0.7350    0.1250   -1.0670 c1        1 BAH      0.019000
      9 C9         -0.0910   -0.7620   -0.0240 c2        1 BAH      0.353000
     10 N1         -1.8350    3.2710   -6.8160 n3        1 BAH     -0.309000
     11 N2         -1.5290    1.1700   -7.8540 n2        1 BAH     -0.313000
     12 N3          0.4200    0.4920   -1.6830 n1        1 BAH     -0.147500
     13 N4         -1.7410    0.2030   -1.9790 n1        1 BAH     -0.147500
     14 C1'         1.0120   -0.4890    5.6970 c1        1 BAH     -0.154500
     15 C2'        -0.3660   -0.6160    5.7550 c1        1 BAH     -0.082250
     16 C3'        -1.1190   -0.5270    4.5950 c1        1 BAH     -0.082250
     17 C4'        -0.4830   -0.3090    3.3570 c1        1 BAH     -0.027250
     18 C5'         0.8740   -0.1850    3.3010 c1        1 BAH     -0.027250
     19 C6'         1.6380   -0.2740    4.4800 c1        1 BAH     -0.070500
     20 C7'         1.7360   -1.5210    6.5350 c2        1 BAH      0.342000
     21 C8'         0.0850    0.0170    1.2600 c2        1 BAH      0.020000
     22 N1'         1.0320   -2.2500    7.5280 n3        1 BAH     -0.309000
     23 N2'         3.0130   -1.7420    6.3430 n2        1 BAH     -0.313000
     24 N3'        -0.9670   -0.1840    2.0970 n1        1 BAH     -0.148500
     25 N4'         1.2220    0.0170    2.0060 n1        1 BAH     -0.148500
     26 O91        -0.9130   -1.8790    0.2130 oh        1 BAH     -0.321500
     27 O92         1.1650   -1.1940   -0.4870 oh        1 BAH     -0.321500
     28 HC2         0.9270    1.7700   -6.0260 ha        1 BAH      0.169250
     29 HC3         1.8950    1.3560   -3.9120 ha        1 BAH      0.169250
     30 HC6        -2.7450    0.7350   -4.5480 ha        1 BAH      0.157000
     31 HN11       -1.7900    3.7810   -6.0590 hn        1 BAH      0.280500
     32 HN12       -2.0920    3.6480   -7.6080 hn        1 BAH      0.280500
     33 HN21       -1.2900    0.2870   -7.8250 DU        1 BAH      0.286250
     34 HN22       -1.8140    1.5420   -8.6410 hn        1 BAH      0.272500
     35 HN4        -2.6180    0.0030   -1.8270 DU        1 BAH      0.286250
     36 HC2'       -0.8070   -0.7670    6.6130 ha        1 BAH      0.169250
     37 HC3'       -2.0910   -0.6170    4.6350 ha        1 BAH      0.169250
     38 HC6'        2.6090   -0.1850    4.4390 ha        1 BAH      0.157000
     39 H1'1        0.9680   -3.1600    7.4670 hn        1 BAH      0.280500
     40 H1'2        0.6890   -1.8160    8.2560 hn        1 BAH      0.280500
     41 H2'1        3.4670   -1.2720    5.7030 DU        1 BAH      0.286250
     42 H2'2        3.4510   -2.3670    6.8500 hn        1 BAH      0.272500
     43 HN4'        2.0710    0.1210    1.6890 DU        1 BAH      0.286250
     44 H91        -0.5770   -2.5880   -0.2040 ho        1 BAH      0.245000
     45 H92         1.3480   -1.9940   -0.1450 ho        1 BAH      0.245000
@<TRIPOS>BOND
     1    1    6 1   
     2    1    7 1   
     3    2    3 1   
     4    2   28 1   
     5    3   29 1   
     6    4    5 1   
     7    6   30 1   
     8    7   10 1   
     9    7   11 1   
    10    8   12 1   
    11    8   13 1   
    12    9   21 1   
    13    9   26 1   
    14    9   27 1   
    15   10   31 1   
    16   10   32 1   
    17   11   34 1   
    18   14   19 1   
    19   14   20 1   
    20   15   16 1   
    21   15   36 1   
    22   16   37 1   
    23   17   18 1   
    24   19   38 1   
    25   20   22 1   
    26   20   23 1   
    27   21   24 1   
    28   21   25 1   
    29   22   39 1   
    30   22   40 1   
    31   23   42 1   
    32   26   44 1   
    33   27   45 1   
@<TRIPOS>SUBSTRUCTURE
     1 BAH         1 TEMP              0 ****  ****    0 ROOT
