@<TRIPOS>MOLECULE
BAI
   37    40     1     0     0
SMALL
bcc


@<TRIPOS>ATOM
      1 C1         -0.2390    0.0900   -0.0770 ca        1 BAI     -0.295900
      2 C2          0.8730   -0.7650   -0.2440 ca        1 BAI     -0.090000
      3 C3          1.6580   -1.1430    0.8320 ca        1 BAI     -0.106000
      4 C4          1.3110   -0.6500    2.0980 ca        1 BAI     -0.031200
      5 C5          0.1610    0.2350    2.2760 ca        1 BAI      0.065400
      6 C6         -0.6050    0.6030    1.1690 ca        1 BAI     -0.039000
      7 C7         -1.0080    0.4730   -1.2750 ce        1 BAI      0.602800
      8 C8          1.0600   -0.0620    4.2550 cc        1 BAI      0.462800
      9 C9          1.3630    0.0200    5.7190 c3        1 BAI     -0.113000
     10 N1         -2.4230   -0.0540   -1.2110 n4        1 BAI     -0.827600
     11 N2         -0.6970    1.1360   -2.3200 n2        1 BAI     -0.720100
     12 N3          1.8690   -0.8030    3.3590 na        1 BAI     -0.239300
     13 N4          0.0400    0.5750    3.6350 nd        1 BAI     -0.559100
     14 C1'         2.0310   -5.5600    7.8710 ca        1 BAI     -0.141000
     15 C2'         1.2200   -5.0860    8.9210 ca        1 BAI     -0.099000
     16 C3'         0.7340   -3.7890    8.9410 ca        1 BAI     -0.130000
     17 C4'         1.0820   -2.9560    7.8690 ca        1 BAI     -0.066200
     18 C5'         1.9180   -3.4330    6.7800 ca        1 BAI      0.066400
     19 C6'         2.3880   -4.7560    6.8010 ca        1 BAI     -0.070000
     20 C8'         1.4250   -1.3350    6.3460 cc        1 BAI      0.388800
     21 N3'         0.7770   -1.6270    7.5650 na        1 BAI     -0.264300
     22 N4'         2.1080   -2.3940    5.8540 nd        1 BAI     -0.597100
     23 H2          1.1240   -1.1370   -1.2500 ha        1 BAI      0.147000
     24 H3          2.5250   -1.8060    0.6960 ha        1 BAI      0.168000
     25 H6         -1.4490    1.2980    1.2900 ha        1 BAI      0.149000
     26 H91         0.5840    0.6580    6.2220 hc        1 BAI      0.102700
     27 H92         2.3610    0.5280    5.8540 hc        1 BAI      0.102700
     28 HH11       -2.3830   -1.0770   -1.2470 hn        1 BAI      0.468467
     29 HH12       -3.0050    0.2940   -1.9820 hn        1 BAI      0.468467
     30 HH21        0.2290    1.5080   -2.3860 hn        1 BAI      0.489400
     31 HN3         2.6060   -1.4180    3.6100 hn        1 BAI      0.349700
     32 H3'         0.1040   -3.4260    9.7640 ha        1 BAI      0.145000
     33 H6'         3.0260   -5.1330    5.9890 ha        1 BAI      0.148000
     34 HN3'        0.2530   -1.0020    8.1180 hn        1 BAI      0.313700
     35 H1'         2.3910   -6.6000    7.9100 ha        1 BAI      0.143000
     36 H13        -2.8270    0.2340   -0.3130 hn        1 BAI      0.468467
     37 H2'         0.9690   -5.7690    9.7480 ha        1 BAI      0.144000
@<TRIPOS>BOND
     1    1    2 ar  
     2    1    6 ar  
     3    1    7 1   
     4    2    3 ar  
     5    2   23 1   
     6    3    4 ar  
     7    3   24 1   
     8    4    5 ar  
     9    4   12 1   
    10    5    6 ar  
    11    5   13 1   
    12    6   25 1   
    13    7   10 1   
    14    7   11 2   
    15    8    9 1   
    16    8   12 1   
    17    8   13 2   
    18    9   20 1   
    19    9   26 1   
    20    9   27 1   
    21   10   28 1   
    22   10   29 1   
    23   10   36 1   
    24   11   30 1   
    25   12   31 1   
    26   14   15 ar  
    27   14   19 ar  
    28   14   35 1   
    29   15   16 ar  
    30   15   37 1   
    31   16   17 ar  
    32   16   32 1   
    33   17   18 ar  
    34   17   21 1   
    35   18   19 ar  
    36   18   22 1   
    37   19   33 1   
    38   20   21 1   
    39   20   22 2   
    40   21   34 1   
@<TRIPOS>SUBSTRUCTURE
     1 BAI         1 TEMP              0 ****  ****    0 ROOT
