@<TRIPOS>MOLECULE
BAI
   36    39     1     0     0
SMALL
bcc


@<TRIPOS>ATOM
      1 C1          1.4970   -0.4530    0.7700 ca        1 BAI     -0.164900
      2 C2          0.3650   -1.2630    1.0030 ca        1 BAI     -0.090000
      3 C3          0.1730   -1.9130    2.2120 ca        1 BAI     -0.139000
      4 C4          1.1470   -1.7340    3.2030 ca        1 BAI     -0.060200
      5 C5          2.3190   -0.9070    2.9710 ca        1 BAI      0.058400
      6 C6          2.4860   -0.2740    1.7310 ca        1 BAI     -0.027000
      7 C7          1.6460    0.2200   -0.5620 ce        1 BAI      0.651800
      8 C8          2.4830   -1.6960    5.0150 cc        1 BAI      0.408800
      9 C9          2.9640   -2.0050    6.3980 c3        1 BAI     -0.108000
     10 N1          0.5000    0.9340   -0.9790 nh        1 BAI     -0.957800
     11 N2          2.7490    0.0440   -1.2250 n2        1 BAI     -0.824100
     12 N3          1.2780   -2.2280    4.5020 na        1 BAI     -0.270300
     13 N4          3.1250   -0.9080    4.1250 nd        1 BAI     -0.577100
     14 C1'         2.1730    2.4990   10.3070 ca        1 BAI     -0.154000
     15 C2'         2.9580    3.2260    9.3910 ca        1 BAI     -0.112000
     16 C3'         3.4460    2.6500    8.2290 ca        1 BAI     -0.133000
     17 C4'         3.1280    1.3060    7.9940 ca        1 BAI     -0.071200
     18 C5'         2.3170    0.5460    8.9310 ca        1 BAI      0.062400
     19 C6'         1.8460    1.1700   10.0970 ca        1 BAI     -0.069000
     20 C8'         2.8290   -0.8050    7.2800 cc        1 BAI      0.403800
     21 N3'         3.4520    0.4230    6.9630 na        1 BAI     -0.263300
     22 N4'         2.1520   -0.7650    8.4490 nd        1 BAI     -0.567100
     23 H2         -0.3770   -1.3940    0.1990 ha        1 BAI      0.147000
     24 H3         -0.7060   -2.5460    2.3840 ha        1 BAI      0.141000
     25 H6          3.3790    0.3350    1.5300 ha        1 BAI      0.163000
     26 H91         4.0470   -2.3090    6.3510 hc        1 BAI      0.093700
     27 H92         2.3870   -2.8630    6.8390 hc        1 BAI      0.093700
     28 HH11       -0.1270    1.1910   -0.2530 hn        1 BAI      0.397800
     29 HH12        0.6400    1.6390   -1.6650 hn        1 BAI      0.397800
     30 HH21        2.8180    0.5070   -2.1060 hn        1 BAI      0.382400
     31 HN3         0.6250   -2.7780    4.9930 hn        1 BAI      0.312700
     32 H2'         3.1880    4.2800    9.6080 ha        1 BAI      0.132000
     33 H3'         4.0590    3.2220    7.5200 ha        1 BAI      0.137000
     34 H6'         1.2340    0.6090   10.8180 ha        1 BAI      0.146000
     35 HN3'        3.9300    0.6380    6.1270 hn        1 BAI      0.324700
     36 H1'         1.8130    3.0080   11.2140 ha        1 BAI      0.132000
@<TRIPOS>BOND
     1    1    2 ar  
     2    1    6 ar  
     3    1    7 1   
     4    2    3 ar  
     5    2   23 1   
     6    3    4 ar  
     7    3   24 1   
     8    4    5 ar  
     9    4   12 1   
    10    5    6 ar  
    11    5   13 1   
    12    6   25 1   
    13    7   10 1   
    14    7   11 2   
    15    8    9 1   
    16    8   12 1   
    17    8   13 2   
    18    9   20 1   
    19    9   26 1   
    20    9   27 1   
    21   10   28 1   
    22   10   29 1   
    23   11   30 1   
    24   12   31 1   
    25   14   15 ar  
    26   14   19 ar  
    27   14   36 1   
    28   15   16 ar  
    29   15   32 1   
    30   16   17 ar  
    31   16   33 1   
    32   17   18 ar  
    33   17   21 1   
    34   18   19 ar  
    35   18   22 1   
    36   19   34 1   
    37   20   21 1   
    38   20   22 2   
    39   21   35 1   
@<TRIPOS>SUBSTRUCTURE
     1 BAI         1 TEMP              0 ****  ****    0 ROOT
