@<TRIPOS>MOLECULE
BAI
   37    40     1     0     0
SMALL
bcc


@<TRIPOS>ATOM
      1 C1         -0.1670    0.1230   -0.0790 ca        1 BAI     -0.295900
      2 C2          1.0020   -0.6580   -0.2130 ca        1 BAI     -0.090000
      3 C3          1.7610   -1.0120    0.8890 ca        1 BAI     -0.106000
      4 C4          1.3290   -0.5720    2.1490 ca        1 BAI     -0.031200
      5 C5          0.1180    0.2370    2.2920 ca        1 BAI      0.065400
      6 C6         -0.6190    0.5820    1.1590 ca        1 BAI     -0.039000
      7 C7         -0.9050    0.4870   -1.3020 ce        1 BAI      0.602800
      8 C8          0.9450   -0.0520    4.3040 cc        1 BAI      0.462800
      9 C9          1.1780    0.0140    5.7810 c3        1 BAI     -0.113000
     10 N1         -2.2850   -0.1280   -1.3140 n4        1 BAI     -0.827600
     11 N2         -0.5890    1.1920   -2.3180 n2        1 BAI     -0.720100
     12 N3          1.8390   -0.7200    3.4300 na        1 BAI     -0.239300
     13 N4         -0.0830    0.5360    3.6510 nd        1 BAI     -0.559100
     14 C1'         2.1030   -5.5630    7.8430 ca        1 BAI     -0.141000
     15 C2'         1.2160   -5.1670    8.8640 ca        1 BAI     -0.099000
     16 C3'         0.6470   -3.9040    8.8890 ca        1 BAI     -0.130000
     17 C4'         0.9900   -3.0250    7.8520 ca        1 BAI     -0.066200
     18 C5'         1.9030   -3.4220    6.7940 ca        1 BAI      0.066400
     19 C6'         2.4560   -4.7130    6.8090 ca        1 BAI     -0.070000
     20 C8'         1.2980   -1.3490    6.3820 cc        1 BAI      0.388800
     21 N3'         0.6150   -1.7110    7.5630 na        1 BAI     -0.264300
     22 N4'         2.0680   -2.3510    5.9000 nd        1 BAI     -0.597100
     23 H2          1.3210   -0.9890   -1.2140 ha        1 BAI      0.147000
     24 H3          2.6740   -1.6170    0.7790 ha        1 BAI      0.168000
     25 H6         -1.5100    1.2200    1.2570 ha        1 BAI      0.149000
     26 H91         2.1350    0.5800    5.9720 hc        1 BAI      0.102700
     27 H92         0.3390    0.5900    6.2610 hc        1 BAI      0.102700
     28 HH11       -2.7460    0.1130   -0.4300 hn        1 BAI      0.468467
     29 HH12       -2.8530    0.2010   -2.1040 hn        1 BAI      0.468467
     30 HH21        0.3130    1.6220   -2.3340 hn        1 BAI      0.489400
     31 HN3         2.6020   -1.2940    3.7010 hn        1 BAI      0.349700
     32 H3'        -0.0410   -3.6010    9.6890 ha        1 BAI      0.145000
     33 H6'         3.1520   -5.0300    6.0200 ha        1 BAI      0.148000
     34 HN3'        0.0280   -1.1340    8.1030 hn        1 BAI      0.313700
     35 H1'         2.5260   -6.5800    7.8770 ha        1 BAI      0.143000
     36 H13        -2.1790   -1.1460   -1.3700 hn        1 BAI      0.468467
     37 H2'         0.9720   -5.8840    9.6630 ha        1 BAI      0.144000
@<TRIPOS>BOND
     1    1    2 ar  
     2    1    6 ar  
     3    1    7 1   
     4    2    3 ar  
     5    2   23 1   
     6    3    4 ar  
     7    3   24 1   
     8    4    5 ar  
     9    4   12 1   
    10    5    6 ar  
    11    5   13 1   
    12    6   25 1   
    13    7   10 1   
    14    7   11 2   
    15    8    9 1   
    16    8   12 1   
    17    8   13 2   
    18    9   20 1   
    19    9   26 1   
    20    9   27 1   
    21   10   28 1   
    22   10   29 1   
    23   10   36 1   
    24   11   30 1   
    25   12   31 1   
    26   14   15 ar  
    27   14   19 ar  
    28   14   35 1   
    29   15   16 ar  
    30   15   37 1   
    31   16   17 ar  
    32   16   32 1   
    33   17   18 ar  
    34   17   21 1   
    35   18   19 ar  
    36   18   22 1   
    37   19   33 1   
    38   20   21 1   
    39   20   22 2   
    40   21   34 1   
@<TRIPOS>SUBSTRUCTURE
     1 BAI         1 TEMP              0 ****  ****    0 ROOT
