@<TRIPOS>MOLECULE
BAI
   37    40     1     0     0
SMALL
bcc


@<TRIPOS>ATOM
      1 C1         -0.3580    0.1560   -0.0040 ca        1 BAI     -0.302900
      2 C2          0.6280   -0.8330   -0.2220 ca        1 BAI     -0.108000
      3 C3          1.4400   -1.2790    0.8050 ca        1 BAI     -0.104000
      4 C4          1.2470   -0.7200    2.0780 ca        1 BAI     -0.035200
      5 C5          0.2270    0.3020    2.3080 ca        1 BAI      0.063400
      6 C6         -0.5690    0.7360    1.2460 ca        1 BAI     -0.015000
      7 C7         -1.1670    0.6180   -1.1460 ce        1 BAI      0.602800
      8 C8          1.2250   -0.0610    4.2290 cc        1 BAI      0.458800
      9 C9          1.6410    0.0140    5.6650 c3        1 BAI     -0.113000
     10 N1         -2.1490   -0.4460   -1.5810 nz        1 BAI     -0.827600
     11 N2         -1.1890    1.7130   -1.8010 n2        1 BAI     -0.718100
     12 N3          1.8720   -0.9140    3.3000 na        1 BAI     -0.238300
     13 N4          0.2470    0.6820    3.6610 nd        1 BAI     -0.554100
     14 C1'         1.8330   -5.5610    7.9210 ca        1 BAI     -0.141000
     15 C2'         1.1310   -4.9830    8.9980 ca        1 BAI     -0.099000
     16 C3'         0.7850   -3.6420    9.0100 ca        1 BAI     -0.129000
     17 C4'         1.1620   -2.8720    7.9010 ca        1 BAI     -0.066200
     18 C5'         1.8850   -3.4570    6.7840 ca        1 BAI      0.066400
     19 C6'         2.2160   -4.8210    6.8160 ca        1 BAI     -0.071000
     20 C8'         1.5930   -1.3270    6.3230 cc        1 BAI      0.389800
     21 N3'         0.9830   -1.5240    7.5800 na        1 BAI     -0.264300
     22 N4'         2.1340   -2.4620    5.8240 nd        1 BAI     -0.598100
     23 H2          0.7750   -1.2400   -1.2350 ha        1 BAI      0.135000
     24 H3          2.2140   -2.0420    0.6290 ha        1 BAI      0.166000
     25 H6         -1.3310    1.5140    1.4060 ha        1 BAI      0.163000
     26 H91         2.6970    0.4060    5.7160 hc        1 BAI      0.102700
     27 H92         0.9780    0.7480    6.2020 hc        1 BAI      0.102700
     28 HH11       -2.8180   -0.5910   -0.8180 hn        1 BAI      0.467800
     29 HH12       -2.6550   -0.1870   -2.4360 hn        1 BAI      0.467800
     30 HH21       -0.5450    2.4330   -1.5430 hn        1 BAI      0.490400
     31 HN3         2.5510   -1.6050    3.5170 hn        1 BAI      0.348700
     32 H3'         0.2400   -3.1980    9.8540 ha        1 BAI      0.145000
     33 H6'         2.7670   -5.2790    5.9820 ha        1 BAI      0.148000
     34 HN3'        0.5530   -0.8380    8.1400 hn        1 BAI      0.313700
     35 H1'         2.0830   -6.6320    7.9690 ha        1 BAI      0.143000
     36 H13        -1.6250   -1.3130   -1.7360 hn        1 BAI      0.467800
     37 H2'         0.8530   -5.6200    9.8530 ha        1 BAI      0.144000
@<TRIPOS>BOND
     1    1    2 ar  
     2    1    6 ar  
     3    1    7 1   
     4    2    3 ar  
     5    2   23 1   
     6    3    4 ar  
     7    3   24 1   
     8    4    5 ar  
     9    4   12 1   
    10    5    6 ar  
    11    5   13 1   
    12    6   25 1   
    13    7   10 1   
    14    7   11 2   
    15    8    9 1   
    16    8   12 1   
    17    8   13 2   
    18    9   20 1   
    19    9   26 1   
    20    9   27 1   
    21   10   28 1   
    22   10   29 1   
    23   10   36 1   
    24   11   30 1   
    25   12   31 1   
    26   14   15 ar  
    27   14   19 ar  
    28   14   35 1   
    29   15   16 ar  
    30   15   37 1   
    31   16   17 ar  
    32   16   32 1   
    33   17   18 ar  
    34   17   21 1   
    35   18   19 ar  
    36   18   22 1   
    37   19   33 1   
    38   20   21 1   
    39   20   22 2   
    40   21   34 1   
@<TRIPOS>SUBSTRUCTURE
     1 BAI         1 TEMP              0 ****  ****    0 ROOT
