@<TRIPOS>MOLECULE
BAI
   36    25     1     0     0
SMALL
bcc


@<TRIPOS>ATOM
      1 C1         -0.2150    1.2950   -4.1230 c1        1 BAI     -0.142000
      2 C2          1.1680    1.2120   -4.0970 c1        1 BAI     -0.115667
      3 C3          1.8370    1.1860   -2.8830 c1        1 BAI     -0.115667
      4 C4          1.1120    1.2440   -1.6780 c1        1 BAI     -0.049750
      5 C5         -0.2490    1.3260   -1.7040 c1        1 BAI     -0.049750
      6 C6         -0.9290    1.3520   -2.9370 c1        1 BAI     -0.030000
      7 C7         -0.9110    1.2550   -5.4660 c2        1 BAI      0.120000
      8 C8          0.3930    1.3120    0.3970 c1        1 BAI      0.006000
      9 C9          0.3850    1.4290    1.9050 c2        1 BAI     -0.036000
     10 N1         -1.3330    2.4600   -6.0830 n3        1 BAI     -0.334000
     11 N2         -1.1230    0.1090   -6.0580 n1        1 BAI     -0.307000
     12 N3          1.5050    1.2360   -0.3800 n1        1 BAI     -0.176000
     13 N4         -0.6900    1.3680   -0.4230 n1        1 BAI     -0.176000
     14 C1'        -1.0620   -3.8320    4.5620 c1        1 BAI     -0.115667
     15 C2'        -0.0950   -3.4060    5.4600 c1        1 BAI     -0.115667
     16 C3'         0.5720   -2.2110    5.2440 c1        1 BAI     -0.115667
     17 C4'         0.2690   -1.4290    4.1130 c1        1 BAI     -0.049750
     18 C5'        -0.6820   -1.8480    3.2290 c1        1 BAI     -0.049750
     19 C6'        -1.3600   -3.0620    3.4490 c1        1 BAI     -0.115667
     20 C8'         0.1140    0.0710    2.5150 c2        1 BAI      0.004000
     21 N3'         0.7590   -0.2450    3.6690 n1        1 BAI     -0.192000
     22 N4'        -0.7750   -0.9210    2.2440 n1        1 BAI     -0.192000
     23 H2          1.6700    1.1720   -4.9320 ha        1 BAI      0.139500
     24 H3          2.8110    1.1280   -2.8650 ha        1 BAI      0.139500
     25 H6         -1.9030    1.4100   -2.9560 ha        1 BAI      0.164000
     26 H91        -0.3150    2.0550    2.1800 ha        1 BAI      0.133500
     27 H92         1.2540    1.7560    2.2120 ha        1 BAI      0.133500
     28 HH11       -1.9990    2.4450   -6.7090 hn        1 BAI      0.194000
     29 HH12       -0.9280    3.2510   -5.8660 hn        1 BAI      0.194000
     30 HH21       -0.8510   -0.6680   -5.6610 DU        1 BAI      0.230000
     31 HN3         2.3660    1.1950   -0.0810 DU        1 BAI      0.230000
     32 H1'        -1.5320   -4.6730    4.7140 ha        1 BAI      0.139500
     33 H2'         0.1150   -3.9480    6.2440 ha        1 BAI      0.139500
     34 H3'         1.2530   -1.9110    5.8760 ha        1 BAI      0.139500
     35 H6'        -2.0410   -3.3620    2.8170 ha        1 BAI      0.139500
     36 HN3'        1.4110    0.2490    4.0710 DU        1 BAI      0.230000
@<TRIPOS>BOND
     1    1    6 1   
     2    1    7 1   
     3    2    3 1   
     4    2   23 1   
     5    3   24 1   
     6    4    5 1   
     7    6   25 1   
     8    7   10 1   
     9    7   11 1   
    10    8   12 1   
    11    8   13 1   
    12    9   20 1   
    13    9   26 1   
    14    9   27 1   
    15   10   28 1   
    16   10   29 1   
    17   14   19 1   
    18   14   32 1   
    19   15   16 1   
    20   15   33 1   
    21   16   34 1   
    22   17   18 1   
    23   19   35 1   
    24   20   21 1   
    25   20   22 1   
@<TRIPOS>SUBSTRUCTURE
     1 BAI         1 TEMP              0 ****  ****    0 ROOT
