@<TRIPOS>MOLECULE
BAK
   42    30     1     0     0
SMALL
bcc


@<TRIPOS>ATOM
      1 C1         -2.4330    0.4890   -4.9600 c1        1 BAK     -0.145000
      2 C2         -1.7360   -0.7070   -5.0020 c1        1 BAK     -0.080000
      3 C3         -1.3450   -1.3230   -3.8240 c1        1 BAK     -0.080000
      4 C4         -1.6560   -0.7330   -2.5840 c1        1 BAK     -0.030000
      5 C5         -2.3420    0.4450   -2.5430 c1        1 BAK     -0.030000
      6 C6         -2.7400    1.0710   -3.7400 c1        1 BAK     -0.073000
      7 C7         -2.7800    1.0430   -6.3250 c2        1 BAK      0.340000
      8 C8         -1.9250   -0.1740   -0.4770 c1        1 BAK     -0.016000
      9 C9         -1.7990   -0.3190    1.0240 c1        1 BAK      0.366000
     10 N1         -3.9070    0.7100   -6.9000 n2        1 BAK     -0.309000
     11 N2         -1.8830    1.9250   -6.9810 n3        1 BAK     -0.309500
     12 N3         -1.4000   -1.1120   -1.3080 n1        1 BAK     -0.124000
     13 N4         -2.5070    0.7870   -1.2410 n1        1 BAK     -0.124000
     14 C1'         3.0570   -0.3990    4.6050 c1        1 BAK     -0.145000
     15 C2'         3.7650   -0.1260    3.4460 c1        1 BAK     -0.080000
     16 C3'         3.0940    0.0210    2.2420 c1        1 BAK     -0.080000
     17 C4'         1.6930   -0.1060    2.1970 c1        1 BAK     -0.030000
     18 C5'         0.9950   -0.3750    3.3390 c1        1 BAK     -0.030000
     19 C6'         1.6770   -0.5240    4.5620 c1        1 BAK     -0.073000
     20 C7'         3.7670   -0.4910    5.9390 c2        1 BAK      0.340000
     21 C8'        -0.4400   -0.2210    1.6830 c2        1 BAK     -0.016000
     22 N1'         4.0210    0.5970    6.6210 n2        1 BAK     -0.309000
     23 N2'         4.1560   -1.7560    6.4500 n3        1 BAK     -0.309500
     24 N3'         0.8040   -0.0120    1.1770 n1        1 BAK     -0.124000
     25 N4'        -0.3200   -0.4450    3.0180 n1        1 BAK     -0.124000
     26 O9         -2.7890   -0.5150    1.7000 o         1 BAK     -0.228000
     27 H2         -1.5210   -1.1170   -5.8620 ha        1 BAK      0.170500
     28 H3         -0.8540   -2.1660   -3.8540 ha        1 BAK      0.170500
     29 H6         -3.2310    1.9140   -3.7110 ha        1 BAK      0.159000
     30 HH11       -4.4860    0.1410   -6.4760 DU        1 BAK      0.288750
     31 HH12       -4.1160    1.0450   -7.7260 hn        1 BAK      0.273500
     32 HH21       -1.0580    2.0870   -6.6220 hn        1 BAK      0.280000
     33 HH22       -2.1390    2.3500   -7.7480 hn        1 BAK      0.280000
     34 HN4        -2.9340    1.5320   -0.9320 DU        1 BAK      0.288750
     35 H2'         4.7370   -0.0380    3.4770 ha        1 BAK      0.170500
     36 H3'         3.5930    0.2130    1.4260 ha        1 BAK      0.170500
     37 H6'         1.1780   -0.7160    5.3780 ha        1 BAK      0.159000
     38 H1'1        3.7700    1.4130    6.2920 DU        1 BAK      0.288750
     39 H1'2        4.4510    0.5410    7.4280 hn        1 BAK      0.273500
     40 H2'1        4.6340   -1.8080    7.2270 hn        1 BAK      0.280000
     41 H2'2        3.9510   -2.5180    5.9880 hn        1 BAK      0.280000
     42 HN4'       -1.0040   -0.6210    3.5950 DU        1 BAK      0.288750
@<TRIPOS>BOND
     1    1    6 1   
     2    1    7 1   
     3    2    3 1   
     4    2   27 1   
     5    3   28 1   
     6    4    5 1   
     7    6   29 1   
     8    7   10 1   
     9    7   11 1   
    10    8   12 1   
    11    8   13 1   
    12    9   21 1   
    13    9   26 1   
    14   10   31 1   
    15   11   32 1   
    16   11   33 1   
    17   14   19 1   
    18   14   20 1   
    19   15   16 1   
    20   15   35 1   
    21   16   36 1   
    22   17   18 1   
    23   19   37 1   
    24   20   22 1   
    25   20   23 1   
    26   21   24 1   
    27   21   25 1   
    28   22   39 1   
    29   23   40 1   
    30   23   41 1   
@<TRIPOS>SUBSTRUCTURE
     1 BAK         1 TEMP              0 ****  ****    0 ROOT
