@<TRIPOS>MOLECULE
BAK
   42    45     1     0     0
SMALL
bcc


@<TRIPOS>ATOM
      1 C1         -0.0860    0.1810   -0.0050 ca        1 BAK     -0.228900
      2 C2          1.1300    0.9020    0.0190 ca        1 BAK     -0.126000
      3 C3          1.8270    1.0990    1.1980 ca        1 BAK     -0.034000
      4 C4          1.3050    0.5550    2.3830 ca        1 BAK      0.102400
      5 C5          0.0490   -0.1900    2.3420 ca        1 BAK     -0.068200
      6 C6         -0.6500   -0.3730    1.1430 ca        1 BAK     -0.073000
      7 C7         -0.7850    0.0120   -1.3100 ce        1 BAK      0.517400
      8 C8          0.8740   -0.1030    4.4280 cc        1 BAK      0.379800
      9 C9          0.9080   -0.3220    5.8970 c         1 BAK      0.466500
     10 N1         -2.0940    0.3430   -1.3910 nh        1 BAK     -0.463350
     11 N2         -0.0820   -0.4660   -2.3600 nh        1 BAK     -0.447450
     12 N3          1.7850    0.5870    3.7000 nd        1 BAK     -0.483100
     13 N4         -0.1990   -0.5960    3.6500 na        1 BAK     -0.235300
     14 C1'         5.8320   -0.0650    9.3250 ca        1 BAK     -0.228900
     15 C2'         6.4870   -0.4230    8.1250 ca        1 BAK     -0.126000
     16 C3'         5.7820   -0.6040    6.9470 ca        1 BAK     -0.034000
     17 C4'         4.3880   -0.4350    6.9680 ca        1 BAK      0.102400
     18 C5'         3.7260   -0.0670    8.2170 ca        1 BAK     -0.068200
     19 C6'         4.4530    0.1260    9.3980 ca        1 BAK     -0.073000
     20 C7'         6.6540    0.1100   10.5570 ce        1 BAK      0.517400
     21 C8'         2.2440   -0.2850    6.5460 cc        1 BAK      0.379800
     22 N1'         7.5020   -0.8790   10.9100 nh        1 BAK     -0.463350
     23 N2'         6.5160    1.2500   11.2710 nh        1 BAK     -0.447450
     24 N3'         3.4300   -0.5600    5.9520 nd        1 BAK     -0.483100
     25 N4'         2.3690    0.0220    7.9200 na        1 BAK     -0.235300
     26 O9         -0.1200   -0.5240    6.5440 o         1 BAK     -0.467100
     27 H2          1.5250    1.3390   -0.9130 ha        1 BAK      0.156000
     28 H3          2.7720    1.6680    1.2150 ha        1 BAK      0.185000
     29 H6         -1.5880   -0.9470    1.1170 ha        1 BAK      0.159000
     30 HH11       -2.5450    0.7240   -0.5860 hn        1 BAK      0.329950
     31 HH12       -2.6280    0.2540   -2.2290 hn        1 BAK      0.329950
     32 HH21        0.8770   -0.7110   -2.2250 hn        1 BAK      0.329950
     33 HH22       -0.4740   -0.5860   -3.2700 hn        1 BAK      0.329950
     34 HN4        -0.9820   -1.0950    3.9900 hn        1 BAK      0.339700
     35 H2'         7.5830   -0.5410    8.1140 ha        1 BAK      0.156000
     36 H3'         6.2970   -0.8750    6.0100 ha        1 BAK      0.185000
     37 H6'         3.9460    0.3930   10.3370 ha        1 BAK      0.159000
     38 H1'1        7.5380   -1.7060   10.3490 hn        1 BAK      0.329950
     39 H1'2        8.0990   -0.8280   11.7080 hn        1 BAK      0.329950
     40 H2'1        7.0280    1.4350   12.1070 hn        1 BAK      0.329950
     41 H2'2        5.8950    1.9570   10.9340 hn        1 BAK      0.329950
     42 HN4'        1.6240    0.2070    8.5450 hn        1 BAK      0.339700
@<TRIPOS>BOND
     1    1    2 ar  
     2    1    6 ar  
     3    1    7 1   
     4    2    3 ar  
     5    2   27 1   
     6    3    4 ar  
     7    3   28 1   
     8    4    5 ar  
     9    4   12 1   
    10    5    6 ar  
    11    5   13 1   
    12    6   29 1   
    13    7   10 2   
    14    7   11 1   
    15    8    9 1   
    16    8   12 2   
    17    8   13 1   
    18    9   21 1   
    19    9   26 2   
    20   10   30 1   
    21   10   31 1   
    22   11   32 1   
    23   11   33 1   
    24   13   34 1   
    25   14   15 ar  
    26   14   19 ar  
    27   14   20 1   
    28   15   16 ar  
    29   15   35 1   
    30   16   17 ar  
    31   16   36 1   
    32   17   18 ar  
    33   17   24 1   
    34   18   19 ar  
    35   18   25 1   
    36   19   37 1   
    37   20   22 2   
    38   20   23 1   
    39   21   24 2   
    40   21   25 1   
    41   22   38 1   
    42   22   39 1   
    43   23   40 1   
    44   23   41 1   
    45   25   42 1   
@<TRIPOS>SUBSTRUCTURE
     1 BAK         1 TEMP              0 ****  ****    0 ROOT
