@<TRIPOS>MOLECULE
BAK
   42    45     1     0     0
SMALL
bcc


@<TRIPOS>ATOM
      1 C1          5.5250    0.5480    0.1130 ca        1 BAK     -0.228900
      2 C2          4.8590    1.6440    0.7090 ca        1 BAK     -0.126000
      3 C3          3.4890    1.6300    0.9110 ca        1 BAK     -0.034000
      4 C4          2.7630    0.4990    0.5010 ca        1 BAK      0.102400
      5 C5          3.4660   -0.6230   -0.1150 ca        1 BAK     -0.068200
      6 C6          4.8530   -0.5980   -0.3060 ca        1 BAK     -0.073000
      7 C7          7.0020    0.6310   -0.0700 ce        1 BAK      0.517400
      8 C8          1.2620   -1.0220    0.0250 cc        1 BAK      0.379800
      9 C9          0.0000   -1.7970   -0.1010 c         1 BAK      0.466500
     10 N1          7.7680   -0.3860    0.3840 nh        1 BAK     -0.463100
     11 N2          7.5150    1.7190   -0.6840 nh        1 BAK     -0.447200
     12 N3          1.3930    0.2100    0.5700 nd        1 BAK     -0.483100
     13 N4          2.4910   -1.5710   -0.4080 na        1 BAK     -0.235300
     14 C1'        -5.5250    0.5570   -0.0930 ca        1 BAK     -0.228900
     15 C2'        -4.8590    1.7040   -0.5830 ca        1 BAK     -0.126000
     16 C3'        -3.4900    1.7100   -0.7850 ca        1 BAK     -0.034000
     17 C4'        -2.7630    0.5450   -0.4840 ca        1 BAK      0.102400
     18 C5'        -3.4660   -0.6300    0.0240 ca        1 BAK     -0.068200
     19 C6'        -4.8530   -0.6240    0.2160 ca        1 BAK     -0.073000
     20 C7'        -7.0020    0.6220    0.0970 ce        1 BAK      0.517400
     21 C8'        -1.2610   -1.0140   -0.1530 cc        1 BAK      0.379800
     22 N1'        -7.5150    1.6470    0.8110 nh        1 BAK     -0.463100
     23 N2'        -7.7680   -0.3480   -0.4510 nh        1 BAK     -0.447200
     24 N3'        -1.3930    0.2640   -0.5800 nd        1 BAK     -0.483100
     25 N4'        -2.4900   -1.6010    0.2260 na        1 BAK     -0.235300
     26 O9          0.0000   -3.0270   -0.1590 o         1 BAK     -0.467100
     27 H2          5.4370    2.5210    1.0420 ha        1 BAK      0.156000
     28 H3          2.9730    2.4830    1.3820 ha        1 BAK      0.185000
     29 H6          5.3730   -1.4420   -0.7830 ha        1 BAK      0.159000
     30 HH11        7.3270   -1.1450    0.8610 hn        1 BAK      0.329700
     31 HH12        8.7610   -0.4030    0.2950 hn        1 BAK      0.329700
     32 HH21        8.4930    1.8570   -0.8240 hn        1 BAK      0.329700
     33 HH22        6.8890    2.4240   -1.0160 hn        1 BAK      0.329700
     34 HN4         2.6190   -2.4690   -0.8040 hn        1 BAK      0.339700
     35 H2'        -5.4380    2.6080   -0.8310 ha        1 BAK      0.156000
     36 H3'        -2.9730    2.6030   -1.1750 ha        1 BAK      0.185000
     37 H6'        -5.3730   -1.5090    0.6120 ha        1 BAK      0.159000
     38 H1'1       -6.8890    2.3180    1.2080 hn        1 BAK      0.329700
     39 H1'2       -8.4930    1.7710    0.9640 hn        1 BAK      0.329700
     40 H2'1       -8.7610   -0.3730   -0.3630 hn        1 BAK      0.329700
     41 H2'2       -7.3270   -1.0580   -0.9970 hn        1 BAK      0.329700
     42 HN4'       -2.6190   -2.5330    0.5360 hn        1 BAK      0.339700
@<TRIPOS>BOND
     1    1    2 ar  
     2    1    6 ar  
     3    1    7 1   
     4    2    3 ar  
     5    2   27 1   
     6    3    4 ar  
     7    3   28 1   
     8    4    5 ar  
     9    4   12 1   
    10    5    6 ar  
    11    5   13 1   
    12    6   29 1   
    13    7   10 2   
    14    7   11 1   
    15    8    9 1   
    16    8   12 2   
    17    8   13 1   
    18    9   21 1   
    19    9   26 2   
    20   10   30 1   
    21   10   31 1   
    22   11   32 1   
    23   11   33 1   
    24   13   34 1   
    25   14   15 ar  
    26   14   19 ar  
    27   14   20 1   
    28   15   16 ar  
    29   15   35 1   
    30   16   17 ar  
    31   16   36 1   
    32   17   18 ar  
    33   17   24 1   
    34   18   19 ar  
    35   18   25 1   
    36   19   37 1   
    37   20   22 2   
    38   20   23 1   
    39   21   24 2   
    40   21   25 1   
    41   22   38 1   
    42   22   39 1   
    43   23   40 1   
    44   23   41 1   
    45   25   42 1   
@<TRIPOS>SUBSTRUCTURE
     1 BAK         1 TEMP              0 ****  ****    0 ROOT
