@<TRIPOS>MOLECULE
BAL
   12    11     1     0     0
SMALL
bcc


@<TRIPOS>ATOM
      1 N           2.8000    0.0220   -0.0030 n3        1 BAL     -0.911800
      2 CB          1.4220    0.4140   -0.2170 c3        1 BAL      0.144800
      3 CA          0.3600   -0.5930    0.2010 c3        1 BAL     -0.232400
      4 C          -1.0450    0.0270    0.0960 c         1 BAL      0.911600
      5 O          -1.2490    1.1480    0.6450 o         1 BAL     -0.849800
      6 OXT        -1.9330   -0.6290   -0.5210 o         1 BAL     -0.849800
      7 H           2.9650   -0.1120    0.9780 hn        1 BAL      0.319300
      8 H2          2.9760   -0.8570   -0.4550 hn        1 BAL      0.319300
      9 HB3         1.2340    1.3750    0.3440 h1        1 BAL      0.056700
     10 HB2         1.3000    0.6350   -1.3140 h1        1 BAL      0.056700
     11 HA1         0.4110   -1.5070   -0.4400 hc        1 BAL      0.018200
     12 HA2         0.5150   -0.9040    1.2650 hc        1 BAL      0.018200
@<TRIPOS>BOND
     1    1    2 1   
     2    1    7 1   
     3    1    8 1   
     4    2    3 1   
     5    2    9 1   
     6    2   10 1   
     7    3    4 1   
     8    3   11 1   
     9    3   12 1   
    10    4    5 1   
    11    4    6 1   
@<TRIPOS>SUBSTRUCTURE
     1 BAL         1 TEMP              0 ****  ****    0 ROOT
