@<TRIPOS>MOLECULE
BAM
   18    18     1     0     0
SMALL
bcc


@<TRIPOS>ATOM
      1 C1         -0.0110   -0.0010   -0.0130 ca        1 BAM     -0.261900
      2 C2          1.3880   -0.0900   -0.0130 ca        1 BAM     -0.082000
      3 C3          2.0750   -0.0770    1.2000 ca        1 BAM     -0.116000
      4 C4          1.3750    0.0330    2.4030 ca        1 BAM     -0.058000
      5 C5         -0.0190    0.1260    2.3980 ca        1 BAM     -0.116000
      6 C6         -0.7190    0.1050    1.1930 ca        1 BAM     -0.082000
      7 C          -0.7500   -0.0200   -1.3020 ce        1 BAM      0.522400
      8 N1         -0.3260    0.7830   -2.3040 nh        1 BAM     -0.469100
      9 N2         -1.8190   -0.8390   -1.4240 nh        1 BAM     -0.453200
     10 HC21        1.9500   -0.1930   -0.9540 ha        1 BAM      0.149000
     11 HC31        3.1750   -0.1550    1.2060 ha        1 BAM      0.170000
     12 HC41        1.9230    0.0470    3.3600 ha        1 BAM      0.170000
     13 HC51       -0.5700    0.2170    3.3490 ha        1 BAM      0.170000
     14 HC61       -1.8160    0.1940    1.2000 ha        1 BAM      0.149000
     15 HN11        0.4550    1.3840   -2.1390 hn        1 BAM      0.326700
     16 HN12       -0.7600    0.8130   -3.2000 hn        1 BAM      0.326700
     17 HN21       -2.0640   -1.4260   -0.6540 hn        1 BAM      0.326700
     18 HN22       -2.3730   -0.8930   -2.2510 hn        1 BAM      0.326700
@<TRIPOS>BOND
     1    1    2 ar  
     2    1    6 ar  
     3    1    7 1   
     4    2    3 ar  
     5    2   10 1   
     6    3    4 ar  
     7    3   11 1   
     8    4    5 ar  
     9    4   12 1   
    10    5    6 ar  
    11    5   13 1   
    12    6   14 1   
    13    7    8 2   
    14    7    9 1   
    15    8   15 1   
    16    8   16 1   
    17    9   17 1   
    18    9   18 1   
@<TRIPOS>SUBSTRUCTURE
     1 BAM         1 TEMP              0 ****  ****    0 ROOT
