@<TRIPOS>MOLECULE
BAM
   18    18     1     0     0
SMALL
bcc


@<TRIPOS>ATOM
      1 C1         -0.1930   -0.0000   -0.0000 ca        1 BAM     -0.261900
      2 C2          0.5020    1.1680   -0.3440 ca        1 BAM     -0.082000
      3 C3          1.8950    1.1600   -0.3460 ca        1 BAM     -0.116000
      4 C4          2.5920   -0.0000    0.0010 ca        1 BAM     -0.058000
      5 C5          1.8950   -1.1600    0.3470 ca        1 BAM     -0.116000
      6 C6          0.5020   -1.1680    0.3440 ca        1 BAM     -0.082000
      7 C          -1.6790   -0.0000   -0.0010 ce        1 BAM      0.522400
      8 N1         -2.3280    1.0140    0.6150 nh        1 BAM     -0.469100
      9 N2         -2.3270   -1.0140   -0.6180 nh        1 BAM     -0.453200
     10 HC21       -0.0360    2.0840   -0.6340 ha        1 BAM      0.149000
     11 HC31        2.4470    2.0740   -0.6230 ha        1 BAM      0.170000
     12 HC41        3.6950   -0.0000    0.0010 ha        1 BAM      0.170000
     13 HC51        2.4470   -2.0740    0.6250 ha        1 BAM      0.170000
     14 HC61       -0.0370   -2.0840    0.6330 ha        1 BAM      0.149000
     15 HN11       -1.7890    1.7190    1.0750 hn        1 BAM      0.326700
     16 HN12       -3.3210    1.0910    0.6420 hn        1 BAM      0.326700
     17 HN21       -3.3200   -1.0910   -0.6450 hn        1 BAM      0.326700
     18 HN22       -1.7880   -1.7190   -1.0770 hn        1 BAM      0.326700
@<TRIPOS>BOND
     1    1    2 ar  
     2    1    6 ar  
     3    1    7 1   
     4    2    3 ar  
     5    2   10 1   
     6    3    4 ar  
     7    3   11 1   
     8    4    5 ar  
     9    4   12 1   
    10    5    6 ar  
    11    5   13 1   
    12    6   14 1   
    13    7    8 2   
    14    7    9 1   
    15    8   15 1   
    16    8   16 1   
    17    9   17 1   
    18    9   18 1   
@<TRIPOS>SUBSTRUCTURE
     1 BAM         1 TEMP              0 ****  ****    0 ROOT
