@<TRIPOS>MOLECULE
BAM
   18    14     1     0     0
SMALL
bcc


@<TRIPOS>ATOM
      1 C1         -0.0550   -0.0390   -0.0970 cg        1 BAM     -0.208200
      2 C2          1.3310   -0.0290   -0.0700 c1        1 BAM     -0.035500
      3 C3          2.0000    0.0010    1.1440 c1        1 BAM     -0.035500
      4 C4          1.2830    0.0220    2.3300 c1        1 BAM     -0.035500
      5 C5         -0.1030    0.0120    2.3030 c1        1 BAM     -0.035500
      6 C6         -0.7720   -0.0180    1.0890 c1        1 BAM     -0.024500
      7 C          -0.7850   -0.0360   -1.4220 ce        1 BAM      0.815100
      8 N1         -1.1070    1.1940   -2.0520 nh        1 BAM     -0.876800
      9 N2         -1.1200   -1.1680   -1.9870 n2        1 BAM     -0.847100
     10 HC21        1.8360   -0.0440   -0.9050 ha        1 BAM      0.107250
     11 HC31        2.9760    0.0080    1.1630 ha        1 BAM      0.107250
     12 HC41        1.7540    0.0430    3.1850 ha        1 BAM      0.107250
     13 HC51       -0.6080    0.0270    3.1380 ha        1 BAM      0.107250
     14 HC61       -1.7480   -0.0250    1.0700 ha        1 BAM      0.091500
     15 HN11       -0.8380    1.9830   -1.6770 hn        1 BAM      0.481800
     16 HN12       -1.5690    1.1960   -2.8410 hn        1 BAM      0.481800
     17 HN21       -0.9130   -1.9620   -1.5810 DU        1 BAM      0.286000
     18 HN22       -1.5620   -1.1660   -2.7890 hn        1 BAM      0.512400
@<TRIPOS>BOND
     1    1    6 3   
     2    1    7 1   
     3    2    3 3   
     4    2   10 1   
     5    3   11 1   
     6    4    5 3   
     7    4   12 1   
     8    5   13 1   
     9    6   14 1   
    10    7    8 1   
    11    7    9 2   
    12    8   15 1   
    13    8   16 1   
    14    9   18 1   
@<TRIPOS>SUBSTRUCTURE
     1 BAM         1 TEMP              0 ****  ****    0 ROOT
