@<TRIPOS>MOLECULE
BAN
   59    60     1     0     0
SMALL
bcc


@<TRIPOS>ATOM
      1 OH1         2.3670    1.4680    2.0070 oh        1 BAN     -0.378300
      2 N1          3.2350    1.7770    2.9960 n4        1 BAN     -0.447300
      3 C1          4.3840    0.7520    2.9680 c         1 BAN      0.566100
      4 O1          4.8730    0.5210    4.0560 o         1 BAN     -0.339100
      5 CA2         4.7930    0.1950    1.6180 c3        1 BAN     -0.182700
      6 CB2         5.8790    1.0950    1.0230 c3        1 BAN     -0.044100
      7 CG2         6.1680    0.7790   -0.4010 ca        1 BAN     -0.217300
      8 CD1         7.4890    0.5100   -0.7920 ca        1 BAN     -0.140500
      9 CD2         5.1710    0.9030   -1.3790 ca        1 BAN     -0.140500
     10 CE1         7.8040    0.3700   -2.1430 ca        1 BAN     -0.102000
     11 CE2         5.4890    0.7560   -2.7280 ca        1 BAN     -0.102000
     12 CZ2         6.8060    0.4950   -3.1140 ca        1 BAN     -0.069000
     13 C2          5.1860   -1.2640    1.8120 c         1 BAN      0.552100
     14 O2          4.6330   -2.0400    2.5750 o         1 BAN     -0.376100
     15 N3          6.3160   -1.7920    0.9670 n4        1 BAN     -0.669800
     16 CA3         6.4120   -3.3000    0.9720 c3        1 BAN      0.099500
     17 CB3         5.3390   -3.9600    0.1150 c3        1 BAN     -0.152100
     18 C3          7.7910   -3.7170    0.4360 c         1 BAN      0.543100
     19 O3          8.3990   -3.1400   -0.4520 o         1 BAN     -0.384100
     20 N4          8.4190   -4.9540    1.0240 n4        1 BAN     -0.646800
     21 CA4         9.7240   -4.6400    1.6940 c3        1 BAN      0.016800
     22 C4          9.6140   -3.3990    2.6090 c         1 BAN      0.675100
     23 O4          8.5910   -2.6690    2.4560 o         1 BAN     -0.746100
     24 C10        10.6740   -2.0630    4.3740 ca        1 BAN      0.013600
     25 C5         11.9320   -1.5020    4.6770 ca        1 BAN     -0.133000
     26 C6         12.0170   -0.4180    5.5480 ca        1 BAN     -0.049500
     27 C7         10.8470    0.1100    6.1120 ca        1 BAN     -0.150200
     28 C8          9.5960   -0.4660    5.8430 ca        1 BAN     -0.049500
     29 C9          9.5090   -1.5470    4.9740 ca        1 BAN     -0.133000
     30 N5         10.9190    1.3080    7.0080 no        1 BAN      0.315200
     31 O5         11.9920    1.6840    7.3730 o         1 BAN     -0.164000
     32 O6          9.8850    1.8450    7.2970 o         1 BAN     -0.164000
     33 N2         10.6140   -3.1760    3.4860 n         1 BAN     -0.369100
     34 H1          1.5300    1.9870    2.1270 ho        1 BAN      0.515000
     35 H2          2.7810    1.7400    3.9370 hn        1 BAN      0.498800
     36 H5          3.9040    0.1780    0.9050 hc        1 BAN      0.177700
     37 H6          6.8110    1.0360    1.6480 hc        1 BAN      0.095700
     38 H7          5.5180    2.1630    1.0750 hc        1 BAN      0.095700
     39 H9          8.2960    0.4800   -0.0420 ha        1 BAN      0.138000
     40 H11         4.1390    1.1600   -1.0950 ha        1 BAN      0.138000
     41 H13         8.8500    0.1940   -2.4490 ha        1 BAN      0.179500
     42 H15         4.7040    0.8750   -3.4960 ha        1 BAN      0.179500
     43 H17         7.0630    0.4140   -4.1860 ha        1 BAN      0.188000
     44 H21         6.2120   -1.4400   -0.0080 hn        1 BAN      0.504800
     45 H22         6.3030   -3.6190    2.0590 hx        1 BAN      0.159700
     46 H23         4.3180   -3.7100    0.5050 hc        1 BAN      0.107700
     47 H24         5.4070   -3.6510   -0.9590 hc        1 BAN      0.107700
     48 H25         5.4520   -5.0730    0.1710 hc        1 BAN      0.107700
     49 H28         8.6070   -5.6330    0.2640 hn        1 BAN      0.489300
     50 H29        10.4920   -4.4230    0.8890 hx        1 BAN      0.158700
     51 H39        10.0410   -5.5580    2.2750 hx        1 BAN      0.158700
     52 H33        12.8630   -1.9060    4.2430 ha        1 BAN      0.157000
     53 H34        13.0050    0.0220    5.7930 ha        1 BAN      0.197000
     54 H36         8.6870   -0.0660    6.3280 ha        1 BAN      0.197000
     55 H37         8.5260   -1.9990    4.7730 ha        1 BAN      0.157000
     56 H8         11.4070   -3.7900    3.5060 hn        1 BAN      0.365500
     57 H12         3.6260    2.7310    2.8480 hn        1 BAN      0.498800
     58 H32         7.2040   -1.4010    1.3450 hn        1 BAN      0.504800
     59 H42         7.7800   -5.3840    1.7050 hn        1 BAN      0.489300
@<TRIPOS>BOND
     1    1    2 1   
     2    1   34 1   
     3    2    3 1   
     4    2   35 1   
     5    2   57 1   
     6    3    4 2   
     7    3    5 1   
     8    5    6 1   
     9    5   13 1   
    10    5   36 1   
    11    6    7 1   
    12    6   37 1   
    13    6   38 1   
    14    7    8 ar  
    15    7    9 ar  
    16    8   10 ar  
    17    8   39 1   
    18    9   11 ar  
    19    9   40 1   
    20   10   12 ar  
    21   10   41 1   
    22   11   12 ar  
    23   11   42 1   
    24   12   43 1   
    25   13   14 2   
    26   13   15 1   
    27   15   16 1   
    28   15   44 1   
    29   15   58 1   
    30   16   17 1   
    31   16   18 1   
    32   16   45 1   
    33   17   46 1   
    34   17   47 1   
    35   17   48 1   
    36   18   19 2   
    37   18   20 1   
    38   20   21 1   
    39   20   49 1   
    40   20   59 1   
    41   21   22 1   
    42   21   50 1   
    43   21   51 1   
    44   22   23 2   
    45   22   33 1   
    46   24   25 ar  
    47   24   29 ar  
    48   24   33 1   
    49   25   26 ar  
    50   25   52 1   
    51   26   27 ar  
    52   26   53 1   
    53   27   28 ar  
    54   27   30 1   
    55   28   29 ar  
    56   28   54 1   
    57   29   55 1   
    58   30   31 1   
    59   30   32 1   
    60   33   56 1   
@<TRIPOS>SUBSTRUCTURE
     1 BAN         1 TEMP              0 ****  ****    0 ROOT
