@<TRIPOS>MOLECULE
BAN
   59    60     1     0     0
SMALL
bcc


@<TRIPOS>ATOM
      1 OH1         2.3670    1.4530    2.1500 oh        1 BAN     -0.378300
      2 N1          3.2630    1.7680    3.1120 ny        1 BAN     -0.447300
      3 C1          4.4140    0.7470    3.0540 c         1 BAN      0.566100
      4 O1          4.9350    0.5210    4.1280 o         1 BAN     -0.339100
      5 CA2         4.7840    0.1840    1.6950 c3        1 BAN     -0.182700
      6 CB2         5.8490    1.0840    1.0640 c3        1 BAN     -0.044100
      7 CG2         6.0970    0.7620   -0.3660 ca        1 BAN     -0.217300
      8 CD1         7.4070    0.4940   -0.7950 ca        1 BAN     -0.140500
      9 CD2         5.0720    0.8790   -1.3150 ca        1 BAN     -0.140500
     10 CE1         7.6820    0.3490   -2.1540 ca        1 BAN     -0.102000
     11 CE2         5.3500    0.7260   -2.6730 ca        1 BAN     -0.102000
     12 CZ2         6.6560    0.4670   -3.0950 ca        1 BAN     -0.069000
     13 C2          5.1860   -1.2730    1.8830 c         1 BAN      0.552100
     14 O2          4.6580   -2.0470    2.6660 o         1 BAN     -0.376100
     15 N3          6.2910   -1.8020    1.0070 ny        1 BAN     -0.669800
     16 CA3         6.3910   -3.3100    1.0170 c3        1 BAN      0.099500
     17 CB3         5.2940   -3.9770    0.1960 c3        1 BAN     -0.152100
     18 C3          7.7550   -3.7260    0.4410 c         1 BAN      0.543100
     19 O3          8.3340   -3.1530   -0.4680 o         1 BAN     -0.384100
     20 N4          8.4030   -4.9590    1.0160 ny        1 BAN     -0.646800
     21 CA4         9.7270   -4.6380    1.6450 c3        1 BAN      0.017800
     22 C4          9.6420   -3.3930    2.5570 c         1 BAN      0.675100
     23 O4          8.6120   -2.6670    2.4310 o         1 BAN     -0.746100
     24 C10        10.7510   -2.0450    4.2810 ca        1 BAN      0.013600
     25 C5         12.0160   -1.4790    4.5430 ca        1 BAN     -0.133000
     26 C6         12.1250   -0.3900    5.4060 ca        1 BAN     -0.049500
     27 C7         10.9710    0.1370    6.0020 ca        1 BAN     -0.150200
     28 C8          9.7140   -0.4430    5.7740 ca        1 BAN     -0.049500
     29 C9          9.6030   -1.5290    4.9140 ca        1 BAN     -0.133000
     30 N5         11.0660    1.3410    6.8890 no        1 BAN      0.315200
     31 O5         12.1490    1.7210    7.2190 o         1 BAN     -0.164000
     32 O6         10.0400    1.8760    7.2060 o         1 BAN     -0.164000
     33 N2         10.6670   -3.1630    3.4020 ns        1 BAN     -0.369100
     34 H1          1.5330    1.9710    2.2930 ho        1 BAN      0.515000
     35 H2          2.8380    1.7340    4.0660 hn        1 BAN      0.498800
     36 H5          3.8740    0.1620    1.0090 hc        1 BAN      0.177700
     37 H6          5.4870    2.1510    1.1220 hc        1 BAN      0.095700
     38 H7          6.8000    1.0300    1.6620 hc        1 BAN      0.095700
     39 H9          8.2350    0.4700   -0.0690 ha        1 BAN      0.138000
     40 H11         4.0470    1.1340   -1.0020 ha        1 BAN      0.138000
     41 H13         8.7190    0.1740   -2.4900 ha        1 BAN      0.179500
     42 H15         4.5420    0.8390   -3.4170 ha        1 BAN      0.179500
     43 H17         6.8810    0.3810   -4.1740 ha        1 BAN      0.188000
     44 H21         6.1570   -1.4560    0.0340 hn        1 BAN      0.504800
     45 H22         6.3160   -3.6240    2.1080 hx        1 BAN      0.159700
     46 H23         5.4120   -5.0900    0.2540 hc        1 BAN      0.107700
     47 H24         4.2850   -3.7280    0.6160 hc        1 BAN      0.107700
     48 H25         5.3290   -3.6740   -0.8810 hc        1 BAN      0.107700
     49 H28         7.7860   -5.3870    1.7180 hn        1 BAN      0.489300
     50 H29        10.0640   -5.5520    2.2200 hx        1 BAN      0.159200
     51 H39        10.4700   -4.4240    0.8160 hx        1 BAN      0.159200
     52 H33        12.9340   -1.8830    4.0820 ha        1 BAN      0.157000
     53 H34        13.1180    0.0540    5.6170 ha        1 BAN      0.197000
     54 H36         8.8190   -0.0430    6.2850 ha        1 BAN      0.197000
     55 H37         8.6160   -1.9850    4.7460 ha        1 BAN      0.157000
     56 H8         11.4620   -3.7740    3.4000 hn        1 BAN      0.365500
     57 H12         3.6480    2.7230    2.9480 hn        1 BAN      0.498800
     58 H32         7.1890   -1.4080    1.3570 hn        1 BAN      0.504800
     59 H42         8.5700   -5.6410    0.2550 hn        1 BAN      0.489300
@<TRIPOS>BOND
     1    1    2 1   
     2    1   34 1   
     3    2    3 1   
     4    2   35 1   
     5    2   57 1   
     6    3    4 2   
     7    3    5 1   
     8    5    6 1   
     9    5   13 1   
    10    5   36 1   
    11    6    7 1   
    12    6   37 1   
    13    6   38 1   
    14    7    8 ar  
    15    7    9 ar  
    16    8   10 ar  
    17    8   39 1   
    18    9   11 ar  
    19    9   40 1   
    20   10   12 ar  
    21   10   41 1   
    22   11   12 ar  
    23   11   42 1   
    24   12   43 1   
    25   13   14 2   
    26   13   15 1   
    27   15   16 1   
    28   15   44 1   
    29   15   58 1   
    30   16   17 1   
    31   16   18 1   
    32   16   45 1   
    33   17   46 1   
    34   17   47 1   
    35   17   48 1   
    36   18   19 2   
    37   18   20 1   
    38   20   21 1   
    39   20   49 1   
    40   20   59 1   
    41   21   22 1   
    42   21   50 1   
    43   21   51 1   
    44   22   23 2   
    45   22   33 1   
    46   24   25 ar  
    47   24   29 ar  
    48   24   33 1   
    49   25   26 ar  
    50   25   52 1   
    51   26   27 ar  
    52   26   53 1   
    53   27   28 ar  
    54   27   30 1   
    55   28   29 ar  
    56   28   54 1   
    57   29   55 1   
    58   30   31 1   
    59   30   32 1   
    60   33   56 1   
@<TRIPOS>SUBSTRUCTURE
     1 BAN         1 TEMP              0 ****  ****    0 ROOT
