@<TRIPOS>MOLECULE
BAN
   56    57     1     0     0
SMALL
bcc


@<TRIPOS>ATOM
      1 OH1         6.3460   -1.8480   -0.4040 oh        1 BAN     -0.429100
      2 N1          5.2340   -2.5840   -0.3810 n         1 BAN     -0.349400
      3 C1          4.3220   -2.3220   -1.4400 c         1 BAN      0.597100
      4 O1          4.7040   -1.8570   -2.5260 o         1 BAN     -0.555100
      5 CA2         2.8820   -2.7950   -1.2590 c3        1 BAN     -0.205700
      6 CB2         2.8400   -4.2840   -0.9260 c3        1 BAN     -0.028100
      7 CG2         1.5780   -4.9300   -1.3810 ca        1 BAN     -0.099300
      8 CD1         0.6860   -5.4770   -0.4520 ca        1 BAN     -0.123000
      9 CD2         1.2950   -5.0340   -2.7490 ca        1 BAN     -0.123000
     10 CE1        -0.4740   -6.1160   -0.8860 ca        1 BAN     -0.129500
     11 CE2         0.1350   -5.6730   -3.1800 ca        1 BAN     -0.129500
     12 CZ2        -0.7520   -6.2150   -2.2490 ca        1 BAN     -0.124000
     13 C2          2.2440   -1.9760   -0.1370 c         1 BAN      0.673100
     14 O2          2.7340   -1.9690    1.0120 o         1 BAN     -0.626100
     15 N3          1.1440   -1.2100   -0.4510 n         1 BAN     -0.546900
     16 CA3         0.5120   -0.3440    0.5130 c3        1 BAN      0.042700
     17 CB3         0.5360    1.1290    0.0930 c3        1 BAN     -0.111100
     18 C3         -0.9740   -0.7220    0.7310 c         1 BAN      0.641100
     19 O3         -1.6530   -1.2990   -0.1420 o         1 BAN     -0.623100
     20 N4         -1.5410   -0.3360    1.9290 n         1 BAN     -0.565900
     21 CA4        -2.9360   -0.4860    2.2010 c3        1 BAN      0.022000
     22 C4         -3.3390   -1.8680    2.7600 c         1 BAN      0.640100
     23 O4         -3.8020   -1.9520    3.9090 o         1 BAN     -0.575100
     24 C10        -3.4990   -4.2790    2.1460 ca        1 BAN      0.119600
     25 C5         -3.2860   -5.2230    1.1070 ca        1 BAN     -0.190500
     26 C6         -3.5890   -6.5620    1.2900 ca        1 BAN     -0.040500
     27 C7         -4.1140   -6.9970    2.5180 ca        1 BAN     -0.215200
     28 C8         -4.3320   -6.0790    3.5580 ca        1 BAN     -0.040500
     29 C9         -4.0280   -4.7370    3.3750 ca        1 BAN     -0.190500
     30 N5         -4.4390   -8.4290    2.7140 no        1 BAN      0.319200
     31 O5         -4.2380   -9.2010    1.8140 o         1 BAN     -0.214500
     32 O6         -4.8940   -8.7860    3.7680 o         1 BAN     -0.214500
     33 N2         -3.1710   -2.9420    1.9010 n         1 BAN     -0.464100
     34 H1          6.8980   -2.2190   -1.1220 ho        1 BAN      0.432000
     35 H2          4.8100   -2.4900    0.5420 hn        1 BAN      0.331500
     36 H5          2.3610   -2.6230   -2.2440 hc        1 BAN      0.103700
     37 H6          2.9810   -4.4220    0.1800 hc        1 BAN      0.076200
     38 H7          3.7030   -4.7920   -1.4390 hc        1 BAN      0.076200
     39 H9          0.9040   -5.4090    0.6250 ha        1 BAN      0.136500
     40 H11         1.9990   -4.6190   -3.4860 ha        1 BAN      0.136500
     41 H13        -1.1700   -6.5470   -0.1490 ha        1 BAN      0.136000
     42 H15        -0.0790   -5.7530   -4.2560 ha        1 BAN      0.136000
     43 H17        -1.6650   -6.7250   -2.5910 ha        1 BAN      0.136000
     44 H21         0.6740   -1.3360   -1.3180 hn        1 BAN      0.337500
     45 H22         1.0730   -0.4530    1.4930 h1        1 BAN      0.105700
     46 H23        -0.0450    1.2880   -0.8470 hc        1 BAN      0.056700
     47 H24         0.0870    1.7500    0.9040 hc        1 BAN      0.056700
     48 H25         1.5870    1.4650   -0.0740 hc        1 BAN      0.056700
     49 H28        -0.9600   -0.0100    2.6630 hn        1 BAN      0.328500
     50 H29        -3.2400    0.2730    2.9790 h1        1 BAN      0.092200
     51 H39        -3.5270   -0.3020    1.2570 h1        1 BAN      0.092200
     52 H33        -2.8720   -4.9020    0.1370 ha        1 BAN      0.169500
     53 H34        -3.4190   -7.2860    0.4730 ha        1 BAN      0.170500
     54 H36        -4.7460   -6.4220    4.5230 ha        1 BAN      0.170500
     55 H37        -4.2090   -4.0350    4.2080 ha        1 BAN      0.169500
     56 H8         -2.8110   -2.7400    0.9860 hn        1 BAN      0.351500
@<TRIPOS>BOND
     1    1    2 1   
     2    1   34 1   
     3    2    3 1   
     4    2   35 1   
     5    3    4 2   
     6    3    5 1   
     7    5    6 1   
     8    5   13 1   
     9    5   36 1   
    10    6    7 1   
    11    6   37 1   
    12    6   38 1   
    13    7    8 ar  
    14    7    9 ar  
    15    8   10 ar  
    16    8   39 1   
    17    9   11 ar  
    18    9   40 1   
    19   10   12 ar  
    20   10   41 1   
    21   11   12 ar  
    22   11   42 1   
    23   12   43 1   
    24   13   14 2   
    25   13   15 1   
    26   15   16 1   
    27   15   44 1   
    28   16   17 1   
    29   16   18 1   
    30   16   45 1   
    31   17   46 1   
    32   17   47 1   
    33   17   48 1   
    34   18   19 2   
    35   18   20 1   
    36   20   21 1   
    37   20   49 1   
    38   21   22 1   
    39   21   50 1   
    40   21   51 1   
    41   22   23 2   
    42   22   33 1   
    43   24   25 ar  
    44   24   29 ar  
    45   24   33 1   
    46   25   26 ar  
    47   25   52 1   
    48   26   27 ar  
    49   26   53 1   
    50   27   28 ar  
    51   27   30 1   
    52   28   29 ar  
    53   28   54 1   
    54   29   55 1   
    55   30   31 1   
    56   30   32 1   
    57   33   56 1   
@<TRIPOS>SUBSTRUCTURE
     1 BAN         1 TEMP              0 ****  ****    0 ROOT
