@<TRIPOS>MOLECULE
BAN
   56    52     1     0     0
SMALL
bcc


@<TRIPOS>ATOM
      1 OH1         1.5040    3.7510   -3.1810 oh        1 BAN     -0.231000
      2 N1          0.3430    3.9590   -2.5060 n         1 BAN     -0.192000
      3 C1         -0.0910    3.0170   -1.5530 c2        1 BAN      0.271000
      4 O1          0.6100    2.0420   -1.2920 o         1 BAN     -0.373000
      5 CA2        -1.3980    3.2670   -0.7480 c3        1 BAN     -0.153000
      6 CB2        -2.4110    2.1500   -1.0580 c3        1 BAN     -0.112000
      7 CG2        -3.0120    2.3760   -2.4860 c2        1 BAN     -0.094000
      8 CD1        -2.2200    2.1910   -3.5990 c2        1 BAN     -0.118000
      9 CD2        -4.3900    2.5880   -2.6350 c1        1 BAN     -0.125000
     10 CE1        -2.7910    2.2150   -4.8760 c1        1 BAN     -0.127000
     11 CE2        -4.9580    2.6120   -3.9020 c1        1 BAN     -0.114750
     12 CZ2        -4.1640    2.4260   -5.0220 c1        1 BAN     -0.114750
     13 C2         -1.0940    3.2680    0.6820 c2        1 BAN      0.305000
     14 O2         -1.9630    3.4990    1.4820 o         1 BAN     -0.337000
     15 N3          0.2210    3.1220    1.1090 n         1 BAN     -0.380000
     16 CA3         0.5200    2.2830    2.2150 c3        1 BAN      0.015000
     17 CB3        -0.2460    1.0100    2.1010 c3        1 BAN     -0.229000
     18 C3          2.0270    1.9740    2.2240 c2        1 BAN      0.288000
     19 O3          2.8570    2.8950    2.0410 o         1 BAN     -0.353000
     20 N4          2.4890    0.6240    2.4970 n         1 BAN     -0.379000
     21 CA4         2.8180   -0.2370    1.4230 c3        1 BAN     -0.033000
     22 C4          2.6560   -1.7310    1.8780 c2        1 BAN      0.303000
     23 O4          2.9420   -2.0560    3.0280 o         1 BAN     -0.330000
     24 C10         1.9610   -4.0800    1.3830 c1        1 BAN      0.129000
     25 C5          1.0470   -4.3760    2.4040 c1        1 BAN     -0.114750
     26 C6          0.8640   -5.6920    2.8110 c1        1 BAN     -0.114750
     27 C7          1.5810   -6.7070    2.2090 c1        1 BAN     -0.169000
     28 C8          2.4970   -6.4080    1.1850 c1        1 BAN     -0.038000
     29 C9          2.6780   -5.0920    0.7810 c1        1 BAN     -0.202000
     30 N5          1.3450   -8.0230    2.5600 no        1 BAN      0.574000
     31 O5          2.3210   -8.9310    2.4380 o         1 BAN     -0.364000
     32 O6          0.3140   -8.3250    3.0650 o         1 BAN     -0.364000
     33 N2          2.1340   -2.7280    0.9490 n         1 BAN     -0.323000
     34 H1          1.4180    4.0440   -4.0200 ho        1 BAN      0.232000
     35 H2         -0.1950    4.6750   -2.7270 hn        1 BAN      0.232000
     36 H5         -1.7730    4.1190   -0.9970 hc        1 BAN      0.152000
     37 H6         -3.1190    2.1650   -0.4040 hc        1 BAN      0.109000
     38 H7         -1.9610    1.2850   -1.0280 hc        1 BAN      0.109000
     39 H9         -1.2740    2.0450   -3.4960 ha        1 BAN      0.134000
     40 H11        -4.9570    2.7220   -1.8380 ha        1 BAN      0.136000
     41 H13        -2.2630    2.0910   -5.6190 ha        1 BAN      0.136000
     42 H15        -5.9470    2.7630   -4.0060 ha        1 BAN      0.158750
     43 H17        -4.5760    2.4440   -5.9390 ha        1 BAN      0.158750
     44 H21         0.8660    3.6470    0.7580 hn        1 BAN      0.239000
     45 H22         0.2660    2.7530    3.0740 h1        1 BAN      0.163000
     46 H23        -1.0390    1.0880    2.5540 hc        1 BAN      0.095333
     47 H24        -0.4250    0.8200    1.1560 hc        1 BAN      0.095333
     48 H25         0.2580    0.3090    2.4710 hc        1 BAN      0.095333
     49 H28         2.6770    0.3610    3.3880 hn        1 BAN      0.257000
     50 H29         3.7720   -0.0720    1.1420 h1        1 BAN      0.105500
     51 H39         2.2180   -0.0570    0.6650 h1        1 BAN      0.105500
     52 H33         0.5350   -3.6490    2.8340 ha        1 BAN      0.158750
     53 H34         0.1990   -5.9070    3.5550 ha        1 BAN      0.158750
     54 H36         3.0170   -7.1410    0.7470 ha        1 BAN      0.170000
     55 H37         3.3140   -4.8830    0.0690 ha        1 BAN      0.145000
     56 H8          2.0000   -2.5060    0.0530 hn        1 BAN      0.255000
@<TRIPOS>BOND
     1    1    2 1   
     2    1   34 1   
     3    2    3 1   
     4    2   35 1   
     5    3    4 1   
     6    3    5 1   
     7    5    6 1   
     8    5   13 1   
     9    5   36 1   
    10    6    7 1   
    11    6   37 1   
    12    6   38 1   
    13    7    8 1   
    14    7    9 1   
    15    8   10 1   
    16    8   39 1   
    17    9   40 1   
    18   10   41 1   
    19   11   12 1   
    20   11   42 1   
    21   12   43 1   
    22   13   14 1   
    23   13   15 1   
    24   15   16 1   
    25   15   44 1   
    26   16   17 1   
    27   16   18 1   
    28   16   45 1   
    29   17   46 1   
    30   17   47 1   
    31   17   48 1   
    32   18   19 1   
    33   18   20 1   
    34   20   21 1   
    35   20   49 1   
    36   21   22 1   
    37   21   50 1   
    38   21   51 1   
    39   22   23 1   
    40   22   33 1   
    41   24   29 1   
    42   24   33 1   
    43   25   26 1   
    44   25   52 1   
    45   26   53 1   
    46   27   28 1   
    47   27   30 1   
    48   28   54 1   
    49   29   55 1   
    50   30   31 1   
    51   30   32 1   
    52   33   56 1   
@<TRIPOS>SUBSTRUCTURE
     1 BAN         1 TEMP              0 ****  ****    0 ROOT
