@<TRIPOS>MOLECULE
BAN
   56    57     1     0     0
SMALL
bcc


@<TRIPOS>ATOM
      1 OH1         0.7300   -0.1080    0.1040 oh        1 BAN     -0.430100
      2 N1          1.8810    0.2140    0.6960 n         1 BAN     -0.351400
      3 C1          3.0150    0.2140   -0.1620 c         1 BAN      0.596100
      4 O1          2.9080    0.4100   -1.3820 o         1 BAN     -0.554100
      5 CA2         4.3880    0.1300    0.5010 c3        1 BAN     -0.204700
      6 CB2         4.5520    1.2320    1.5440 c3        1 BAN     -0.027100
      7 CG2         5.9790    1.5640    1.8010 ca        1 BAN     -0.100300
      8 CD1         6.5540    1.2960    3.0490 ca        1 BAN     -0.124500
      9 CD2         6.7460    2.1910    0.8110 ca        1 BAN     -0.124500
     10 CE1         7.8780    1.6530    3.3020 ca        1 BAN     -0.128000
     11 CE2         8.0690    2.5450    1.0660 ca        1 BAN     -0.128000
     12 CZ2         8.6370    2.2790    2.3130 ca        1 BAN     -0.124000
     13 C2          4.5130   -1.2470    1.1520 c         1 BAN      0.672100
     14 O2          3.7800   -1.5700    2.1110 o         1 BAN     -0.626100
     15 N3          5.4380   -2.1230    0.6310 n         1 BAN     -0.551900
     16 CA3         5.5770   -3.4710    1.1210 c3        1 BAN      0.046700
     17 CB3         5.0310   -4.5330    0.1620 c3        1 BAN     -0.115100
     18 C3          7.0700   -3.8160    1.3430 c         1 BAN      0.647100
     19 O3          7.9480   -3.4780    0.5210 o         1 BAN     -0.625100
     20 N4          7.3850   -4.5680    2.4540 n         1 BAN     -0.562900
     21 CA4         8.6940   -5.0910    2.6850 c3        1 BAN      0.021000
     22 C4          9.6750   -4.1040    3.3570 c         1 BAN      0.640100
     23 O4         10.0730   -4.3260    4.5120 o         1 BAN     -0.576100
     24 C10        10.9950   -2.0330    2.9250 ca        1 BAN      0.118600
     25 C5         11.3260   -1.0590    1.9450 ca        1 BAN     -0.188000
     26 C6         12.2340   -0.0510    2.2230 ca        1 BAN     -0.039000
     27 C7         12.8370    0.0130    3.4900 ca        1 BAN     -0.217200
     28 C8         12.5260   -0.9410    4.4710 ca        1 BAN     -0.039000
     29 C9         11.6160   -1.9520    4.1930 ca        1 BAN     -0.188000
     30 N5         13.8050    1.0940    3.7900 no        1 BAN      0.319200
     31 O5         14.0410    1.9170    2.9450 o         1 BAN     -0.215000
     32 O6         14.3290    1.1260    4.8720 o         1 BAN     -0.215000
     33 N2         10.0700   -3.0230    2.5840 n         1 BAN     -0.464100
     34 H1          0.4670    0.6790   -0.4150 ho        1 BAN      0.433000
     35 H2          1.9980   -0.3840    1.5130 hn        1 BAN      0.330500
     36 H5          5.1550    0.2780   -0.3120 hc        1 BAN      0.102700
     37 H6          4.0300    2.1560    1.1710 hc        1 BAN      0.076200
     38 H7          4.0420    0.9180    2.4950 hc        1 BAN      0.076200
     39 H9          5.9580    0.8080    3.8350 ha        1 BAN      0.135500
     40 H11         6.2960    2.4130   -0.1690 ha        1 BAN      0.135500
     41 H13         8.3230    1.4450    4.2860 ha        1 BAN      0.136500
     42 H15         8.6630    3.0420    0.2850 ha        1 BAN      0.136500
     43 H17         9.6780    2.5680    2.5160 ha        1 BAN      0.138000
     44 H21         6.0260   -1.8530   -0.1230 hn        1 BAN      0.338500
     45 H22         5.0050   -3.5410    2.0980 h1        1 BAN      0.101700
     46 H23         5.1560   -5.5410    0.6250 hc        1 BAN      0.058367
     47 H24         5.5780   -4.5120   -0.8110 hc        1 BAN      0.058367
     48 H25         3.9450   -4.3580   -0.0290 hc        1 BAN      0.058367
     49 H28         6.7080   -4.6860    3.1720 hn        1 BAN      0.330500
     50 H29         8.6150   -5.9790    3.3770 h1        1 BAN      0.091700
     51 H39         9.1440   -5.4260    1.7060 h1        1 BAN      0.091700
     52 H33        10.8600   -1.0930    0.9460 ha        1 BAN      0.168000
     53 H34        12.4830    0.6980    1.4510 ha        1 BAN      0.170500
     54 H36        13.0040   -0.8910    5.4650 ha        1 BAN      0.170500
     55 H37        11.3880   -2.6920    4.9800 ha        1 BAN      0.168000
     56 H8          9.6790   -2.9580    1.6620 hn        1 BAN      0.352500
@<TRIPOS>BOND
     1    1    2 1   
     2    1   34 1   
     3    2    3 1   
     4    2   35 1   
     5    3    4 2   
     6    3    5 1   
     7    5    6 1   
     8    5   13 1   
     9    5   36 1   
    10    6    7 1   
    11    6   37 1   
    12    6   38 1   
    13    7    8 ar  
    14    7    9 ar  
    15    8   10 ar  
    16    8   39 1   
    17    9   11 ar  
    18    9   40 1   
    19   10   12 ar  
    20   10   41 1   
    21   11   12 ar  
    22   11   42 1   
    23   12   43 1   
    24   13   14 2   
    25   13   15 1   
    26   15   16 1   
    27   15   44 1   
    28   16   17 1   
    29   16   18 1   
    30   16   45 1   
    31   17   46 1   
    32   17   47 1   
    33   17   48 1   
    34   18   19 2   
    35   18   20 1   
    36   20   21 1   
    37   20   49 1   
    38   21   22 1   
    39   21   50 1   
    40   21   51 1   
    41   22   23 2   
    42   22   33 1   
    43   24   25 ar  
    44   24   29 ar  
    45   24   33 1   
    46   25   26 ar  
    47   25   52 1   
    48   26   27 ar  
    49   26   53 1   
    50   27   28 ar  
    51   27   30 1   
    52   28   29 ar  
    53   28   54 1   
    54   29   55 1   
    55   30   31 1   
    56   30   32 1   
    57   33   56 1   
@<TRIPOS>SUBSTRUCTURE
     1 BAN         1 TEMP              0 ****  ****    0 ROOT
