@<TRIPOS>MOLECULE
BAO
   42    45     1     0     0
SMALL
bcc


@<TRIPOS>ATOM
      1 C1         -0.0770   -0.2400   -0.0410 ca        1 BAO     -0.234900
      2 C2          1.2480   -0.7320   -0.0820 ca        1 BAO     -0.145000
      3 C3          2.0010   -0.8750    1.0710 ca        1 BAO     -0.030000
      4 C4          1.4190   -0.5150    2.2980 ca        1 BAO      0.092400
      5 C5          0.0500   -0.0090    2.3240 ca        1 BAO     -0.065200
      6 C6         -0.6990    0.1300    1.1480 ca        1 BAO     -0.074000
      7 C7         -0.8510   -0.1690   -1.3000 ce        1 BAO      0.585800
      8 N1         -1.8700   -0.8180   -1.7090 n2        1 BAO     -0.700100
      9 N2         -0.2940    0.8700   -2.2410 n4        1 BAO     -0.823600
     10 N3          1.9250   -0.5590    3.6050 nc        1 BAO     -0.481100
     11 N4         -0.2380    0.2480    3.6600 na        1 BAO     -0.234300
     12 C8          0.9210   -0.1040    4.3910 cd        1 BAO      0.374800
     13 C1'         5.8230    0.2400    9.3540 ca        1 BAO     -0.234900
     14 C2'         6.4360    0.7290    8.1780 ca        1 BAO     -0.145000
     15 C3'         5.7260    0.8720    6.9990 ca        1 BAO     -0.030000
     16 C4'         4.3670    0.5160    6.9900 ca        1 BAO      0.092400
     17 C5'         3.7480    0.0120    8.2130 ca        1 BAO     -0.065200
     18 C6'         4.4820   -0.1270    9.3980 ca        1 BAO     -0.074000
     19 C7'         6.6220    0.1690   10.5980 ce        1 BAO      0.585800
     20 N1'         6.5480    0.8210   11.6920 n2        1 BAO     -0.700100
     21 N2'         7.7080   -0.8720   10.5070 n4        1 BAO     -0.823600
     22 N3'         3.4100    0.5600    5.9660 nc        1 BAO     -0.481100
     23 N4'         2.4180   -0.2420    7.8920 na        1 BAO     -0.234300
     24 C8'         2.2640    0.1090    6.5300 cd        1 BAO      0.374800
     25 C9          0.9360    0.0030    5.8730 c         1 BAO      0.467500
     26 O9         -0.1070    0.0050    6.5280 o         1 BAO     -0.471100
     27 H2          1.6830   -1.0410   -1.0450 ha        1 BAO      0.144000
     28 H3          3.0310   -1.2660    1.0370 ha        1 BAO      0.181000
     29 H6         -1.7320    0.5070    1.1720 ha        1 BAO      0.161000
     30 HN1        -2.2630   -1.5250   -1.1210 hn        1 BAO      0.493400
     31 HN21       -0.7550    0.8450   -3.1610 hn        1 BAO      0.472800
     32 HN22       -0.4300    1.7950   -1.8190 hn        1 BAO      0.472800
     33 HN4        -1.0970    0.5530    4.0460 hn        1 BAO      0.339700
     34 H2'         7.4940    1.0360    8.2030 ha        1 BAO      0.144000
     35 H3'         6.2050    1.2610    6.0850 ha        1 BAO      0.181000
     36 H6'         4.0100   -0.5010   10.3190 ha        1 BAO      0.161000
     37 H1'         5.8490    1.5290   11.7890 hn        1 BAO      0.493400
     38 H2'1        7.2680   -1.7960   10.4470 hn        1 BAO      0.472800
     39 H2'2        8.3370   -0.8470   11.3210 hn        1 BAO      0.472800
     40 HN4'        1.6970   -0.5450    8.4980 hn        1 BAO      0.339700
     41 H23         0.7100    0.6940   -2.3540 hn        1 BAO      0.472800
     42 H2'3        8.2460   -0.6980    9.6510 hn        1 BAO      0.472800
@<TRIPOS>BOND
     1    1    2 ar  
     2    1    6 ar  
     3    1    7 1   
     4    2    3 ar  
     5    2   27 1   
     6    3    4 ar  
     7    3   28 1   
     8    4    5 ar  
     9    4   10 1   
    10    5    6 ar  
    11    5   11 1   
    12    6   29 1   
    13    7    8 2   
    14    7    9 1   
    15    8   30 1   
    16    9   31 1   
    17    9   32 1   
    18    9   41 1   
    19   10   12 2   
    20   11   12 1   
    21   11   33 1   
    22   12   25 1   
    23   13   14 ar  
    24   13   18 ar  
    25   13   19 1   
    26   14   15 ar  
    27   14   34 1   
    28   15   16 ar  
    29   15   35 1   
    30   16   17 ar  
    31   16   22 1   
    32   17   18 ar  
    33   17   23 1   
    34   18   36 1   
    35   19   20 2   
    36   19   21 1   
    37   20   37 1   
    38   21   38 1   
    39   21   39 1   
    40   21   42 1   
    41   22   24 2   
    42   23   24 1   
    43   23   40 1   
    44   24   25 1   
    45   25   26 2   
@<TRIPOS>SUBSTRUCTURE
     1 BAO         1 TEMP              0 ****  ****    0 ROOT
