@<TRIPOS>MOLECULE
BAO
   40    27     1     0     0
SMALL
bcc


@<TRIPOS>ATOM
      1 C1         -2.3570    0.5000   -4.9560 c1        1 BAO     -0.084000
      2 C2         -1.6950   -0.7020   -4.9780 c1        1 BAO     -0.097500
      3 C3         -1.3170   -1.3090   -3.7860 c1        1 BAO     -0.097500
      4 C4         -1.6130   -0.6920   -2.5580 c1        1 BAO     -0.048750
      5 C5         -2.2690    0.4990   -2.5370 c1        1 BAO     -0.048750
      6 C6         -2.6500    1.1110   -3.7410 c1        1 BAO     -0.111000
      7 C7         -2.7670    1.1570   -6.2650 c2        1 BAO      0.113500
      8 N1         -3.9360    0.8150   -6.8580 n1        1 BAO     -0.299000
      9 N2         -1.9160    2.1370   -6.8710 n3        1 BAO     -0.332000
     10 N3         -1.3660   -1.0560   -1.2710 n1        1 BAO     -0.132500
     11 N4         -2.4260    0.8700   -1.2340 n1        1 BAO     -0.132500
     12 C8         -1.8690   -0.0890   -0.4550 c1        1 BAO     -0.053000
     13 C1'         3.0570   -0.3100    4.5450 c1        1 BAO     -0.084000
     14 C2'         3.6420    0.1400    3.3800 c1        1 BAO     -0.097500
     15 C3'         2.8770    0.3110    2.2450 c1        1 BAO     -0.097500
     16 C4'         1.5020    0.0280    2.2740 c1        1 BAO     -0.048750
     17 C5'         0.9230   -0.4170    3.4250 c1        1 BAO     -0.048750
     18 C6'         1.7000   -0.5900    4.5760 c1        1 BAO     -0.111000
     19 C7'         3.9140   -0.5350    5.7660 c2        1 BAO      0.113500
     20 N1'         4.0760    0.4210    6.6310 n1        1 BAO     -0.299000
     21 N2'         4.5520   -1.8080    5.9710 n3        1 BAO     -0.332000
     22 N3'         0.5400    0.1060    1.3240 n1        1 BAO     -0.132500
     23 N4'        -0.3910   -0.6110    3.1820 n1        1 BAO     -0.132500
     24 C8'        -0.6320   -0.2870    1.8810 c1        1 BAO     -0.053000
     25 C9         -1.9110   -0.3200    1.0830 c1        1 BAO      0.377000
     26 O9         -2.9670   -0.6830    1.6230 o         1 BAO     -0.279000
     27 H2         -1.4910   -1.1280   -5.8260 ha        1 BAO      0.153250
     28 H3         -0.8500   -2.1550   -3.8020 ha        1 BAO      0.153250
     29 H6         -3.1210    1.9690   -3.7250 ha        1 BAO      0.152500
     30 HN1        -4.4960    0.1700   -6.4580 DU        1 BAO      0.212250
     31 HN21       -2.2400    2.6820   -7.5100 hn        1 BAO      0.195250
     32 HN22       -1.0290    2.1820   -6.6360 hn        1 BAO      0.195250
     33 HN4        -2.8350    1.6340   -0.9370 DU        1 BAO      0.212250
     34 H2'         4.5880    0.3350    3.3580 ha        1 BAO      0.153250
     35 H3'         3.2920    0.6280    1.4220 ha        1 BAO      0.153250
     36 H6'         1.2900   -0.9070    5.3940 ha        1 BAO      0.152500
     37 H1'         3.6680    1.2340    6.5000 DU        1 BAO      0.212250
     38 H2'1        4.2440   -2.5540    5.5280 hn        1 BAO      0.195250
     39 H2'2        5.2920   -1.8680    6.5090 hn        1 BAO      0.195250
     40 HN4'       -1.0090   -0.9070    3.7860 DU        1 BAO      0.212250
@<TRIPOS>BOND
     1    1    6 1   
     2    1    7 1   
     3    2    3 1   
     4    2   27 1   
     5    3   28 1   
     6    4    5 1   
     7    6   29 1   
     8    7    8 1   
     9    7    9 1   
    10    9   31 1   
    11    9   32 1   
    12   10   12 1   
    13   11   12 1   
    14   13   18 1   
    15   13   19 1   
    16   14   15 1   
    17   14   34 1   
    18   15   35 1   
    19   16   17 1   
    20   18   36 1   
    21   19   20 1   
    22   19   21 1   
    23   21   38 1   
    24   21   39 1   
    25   22   24 1   
    26   23   24 1   
    27   25   26 1   
@<TRIPOS>SUBSTRUCTURE
     1 BAO         1 TEMP              0 ****  ****    0 ROOT
