@<TRIPOS>MOLECULE
BAO
   42    45     1     0     0
SMALL
bcc


@<TRIPOS>ATOM
      1 C1         -0.0800   -0.2480   -0.0390 ca        1 BAO     -0.234900
      2 C2          1.2410   -0.7500   -0.0760 ca        1 BAO     -0.145000
      3 C3          1.9930   -0.8920    1.0760 ca        1 BAO     -0.030000
      4 C4          1.4140   -0.5210    2.3020 ca        1 BAO      0.092400
      5 C5          0.0490   -0.0030    2.3250 ca        1 BAO     -0.065200
      6 C6         -0.6980    0.1350    1.1480 ca        1 BAO     -0.074000
      7 C7         -0.8530   -0.1770   -1.2990 ce        1 BAO      0.585800
      8 N1         -1.8770   -0.8220   -1.7030 n2        1 BAO     -0.700100
      9 N2         -0.2880    0.8510   -2.2460 nz        1 BAO     -0.823600
     10 N3          1.9200   -0.5600    3.6090 nc        1 BAO     -0.481100
     11 N4         -0.2360    0.2650    3.6590 na        1 BAO     -0.234300
     12 C8          0.9200   -0.0920    4.3920 cd        1 BAO      0.374800
     13 C1'         5.8260    0.2430    9.3520 ca        1 BAO     -0.234900
     14 C2'         6.4430    0.7200    8.1720 ca        1 BAO     -0.145000
     15 C3'         5.7330    0.8620    6.9930 ca        1 BAO     -0.030000
     16 C4'         4.3710    0.5160    6.9870 ca        1 BAO      0.092400
     17 C5'         3.7480    0.0250    8.2120 ca        1 BAO     -0.065200
     18 C6'         4.4820   -0.1130    9.3980 ca        1 BAO     -0.074000
     19 C7'         6.6240    0.1730   10.5960 ce        1 BAO      0.585800
     20 N1'         6.5570    0.8310   11.6860 n2        1 BAO     -0.700100
     21 N2'         7.7020   -0.8780   10.5110 nz        1 BAO     -0.823600
     22 N3'         3.4140    0.5620    5.9630 nc        1 BAO     -0.481100
     23 N4'         2.4170   -0.2210    7.8930 na        1 BAO     -0.234300
     24 C8'         2.2650    0.1230    6.5290 cd        1 BAO      0.374800
     25 C9          0.9360    0.0240    5.8730 c         1 BAO      0.467500
     26 O9         -0.1070    0.0380    6.5290 o         1 BAO     -0.471100
     27 H2          1.6740   -1.0700   -1.0380 ha        1 BAO      0.144000
     28 H3          3.0190   -1.2930    1.0450 ha        1 BAO      0.181000
     29 H6         -1.7280    0.5200    1.1700 ha        1 BAO      0.161000
     30 HN1        -2.2760   -1.5210   -1.1110 hn        1 BAO      0.493400
     31 HN21        0.7150    0.6660   -2.3570 hn        1 BAO      0.472800
     32 HN22       -0.4160    1.7790   -1.8300 hn        1 BAO      0.472800
     33 HN4        -1.0930    0.5800    4.0440 hn        1 BAO      0.339700
     34 H2'         7.5030    1.0190    8.1960 ha        1 BAO      0.144000
     35 H3'         6.2140    1.2420    6.0770 ha        1 BAO      0.181000
     36 H6'         4.0070   -0.4780   10.3210 ha        1 BAO      0.161000
     37 H1'         5.8630    1.5460   11.7800 hn        1 BAO      0.493400
     38 H2'1        7.2540   -1.7980   10.4570 hn        1 BAO      0.472800
     39 H2'2        8.3320   -0.8520   11.3250 hn        1 BAO      0.472800
     40 HN4'        1.6930   -0.5150    8.5020 hn        1 BAO      0.339700
     41 H23        -0.7490    0.8230   -3.1660 hn        1 BAO      0.472800
     42 H2'3        8.2410   -0.7130    9.6530 hn        1 BAO      0.472800
@<TRIPOS>BOND
     1    1    2 ar  
     2    1    6 ar  
     3    1    7 1   
     4    2    3 ar  
     5    2   27 1   
     6    3    4 ar  
     7    3   28 1   
     8    4    5 ar  
     9    4   10 1   
    10    5    6 ar  
    11    5   11 1   
    12    6   29 1   
    13    7    8 2   
    14    7    9 1   
    15    8   30 1   
    16    9   31 1   
    17    9   32 1   
    18    9   41 1   
    19   10   12 2   
    20   11   12 1   
    21   11   33 1   
    22   12   25 1   
    23   13   14 ar  
    24   13   18 ar  
    25   13   19 1   
    26   14   15 ar  
    27   14   34 1   
    28   15   16 ar  
    29   15   35 1   
    30   16   17 ar  
    31   16   22 1   
    32   17   18 ar  
    33   17   23 1   
    34   18   36 1   
    35   19   20 2   
    36   19   21 1   
    37   20   37 1   
    38   21   38 1   
    39   21   39 1   
    40   21   42 1   
    41   22   24 2   
    42   23   24 1   
    43   23   40 1   
    44   24   25 1   
    45   25   26 2   
@<TRIPOS>SUBSTRUCTURE
     1 BAO         1 TEMP              0 ****  ****    0 ROOT
