@<TRIPOS>MOLECULE
BAO
   42    45     1     0     0
SMALL
bcc


@<TRIPOS>ATOM
      1 C1         -0.0770   -0.2410   -0.0410 ca        1 BAO     -0.234900
      2 C2          1.2490   -0.7300   -0.0820 ca        1 BAO     -0.145000
      3 C3          2.0020   -0.8730    1.0700 ca        1 BAO     -0.030000
      4 C4          1.4190   -0.5150    2.2980 ca        1 BAO      0.092400
      5 C5          0.0500   -0.0110    2.3240 ca        1 BAO     -0.065200
      6 C6         -0.6990    0.1270    1.1480 ca        1 BAO     -0.074000
      7 C7         -0.8500   -0.1700   -1.3010 ce        1 BAO      0.585800
      8 N1         -1.8670   -0.8210   -1.7100 n2        1 BAO     -0.700100
      9 N2         -0.2960    0.8710   -2.2400 n4        1 BAO     -0.823600
     10 N3          1.9260   -0.5590    3.6050 nc        1 BAO     -0.481100
     11 N4         -0.2380    0.2440    3.6600 na        1 BAO     -0.234300
     12 C8          0.9210   -0.1070    4.3910 cd        1 BAO      0.374800
     13 C1'         5.8220    0.2420    9.3540 ca        1 BAO     -0.234900
     14 C2'         6.4350    0.7320    8.1780 ca        1 BAO     -0.145000
     15 C3'         5.7250    0.8750    6.9990 ca        1 BAO     -0.030000
     16 C4'         4.3660    0.5170    6.9900 ca        1 BAO      0.092400
     17 C5'         3.7470    0.0120    8.2130 ca        1 BAO     -0.065200
     18 C6'         4.4820   -0.1270    9.3980 ca        1 BAO     -0.074000
     19 C7'         6.6210    0.1710   10.5980 ce        1 BAO      0.585800
     20 N1'         6.5470    0.8220   11.6930 n2        1 BAO     -0.700100
     21 N2'         7.7090   -0.8690   10.5070 n4        1 BAO     -0.823600
     22 N3'         3.4090    0.5600    5.9660 nc        1 BAO     -0.481100
     23 N4'         2.4190   -0.2440    7.8920 na        1 BAO     -0.234300
     24 C8'         2.2640    0.1070    6.5300 cd        1 BAO      0.374800
     25 C9          0.9360   -0.0000    5.8730 c         1 BAO      0.467500
     26 O9         -0.1070   -0.0010    6.5280 o         1 BAO     -0.471100
     27 H2          1.6850   -1.0390   -1.0460 ha        1 BAO      0.144000
     28 H3          3.0330   -1.2630    1.0360 ha        1 BAO      0.181000
     29 H6         -1.7330    0.5020    1.1730 ha        1 BAO      0.161000
     30 HN1        -2.2590   -1.5290   -1.1220 hn        1 BAO      0.493400
     31 HN21        0.7090    0.6970   -2.3530 hn        1 BAO      0.472800
     32 HN22       -0.4330    1.7950   -1.8180 hn        1 BAO      0.472800
     33 HN4        -1.0980    0.5480    4.0470 hn        1 BAO      0.339700
     34 H2'         7.4920    1.0410    8.2040 ha        1 BAO      0.144000
     35 H3'         6.2030    1.2660    6.0860 ha        1 BAO      0.181000
     36 H6'         4.0100   -0.5020   10.3190 ha        1 BAO      0.161000
     37 H1'         5.8480    1.5300   11.7900 hn        1 BAO      0.493400
     38 H2'1        7.2690   -1.7930   10.4460 hn        1 BAO      0.472800
     39 H2'2        8.3380   -0.8430   11.3210 hn        1 BAO      0.472800
     40 HN4'        1.6980   -0.5490    8.4980 hn        1 BAO      0.339700
     41 H23        -0.7560    0.8450   -3.1600 hn        1 BAO      0.472800
     42 H2'3        8.2470   -0.6940    9.6510 hn        1 BAO      0.472800
@<TRIPOS>BOND
     1    1    2 ar  
     2    1    6 ar  
     3    1    7 1   
     4    2    3 ar  
     5    2   27 1   
     6    3    4 ar  
     7    3   28 1   
     8    4    5 ar  
     9    4   10 1   
    10    5    6 ar  
    11    5   11 1   
    12    6   29 1   
    13    7    8 2   
    14    7    9 1   
    15    8   30 1   
    16    9   31 1   
    17    9   32 1   
    18    9   41 1   
    19   10   12 2   
    20   11   12 1   
    21   11   33 1   
    22   12   25 1   
    23   13   14 ar  
    24   13   18 ar  
    25   13   19 1   
    26   14   15 ar  
    27   14   34 1   
    28   15   16 ar  
    29   15   35 1   
    30   16   17 ar  
    31   16   22 1   
    32   17   18 ar  
    33   17   23 1   
    34   18   36 1   
    35   19   20 2   
    36   19   21 1   
    37   20   37 1   
    38   21   38 1   
    39   21   39 1   
    40   21   42 1   
    41   22   24 2   
    42   23   24 1   
    43   23   40 1   
    44   24   25 1   
    45   25   26 2   
@<TRIPOS>SUBSTRUCTURE
     1 BAO         1 TEMP              0 ****  ****    0 ROOT
