@<TRIPOS>MOLECULE
BAO
   40    43     1     0     0
SMALL
bcc


@<TRIPOS>ATOM
      1 C1          0.5820    0.1580    5.5170 ca        1 BAO     -0.136400
      2 C2          1.6860    0.7230    4.8410 ca        1 BAO     -0.140000
      3 C3          1.6740    0.9310    3.4740 ca        1 BAO     -0.058000
      4 C4          0.5260    0.5630    2.7510 ca        1 BAO      0.058900
      5 C5         -0.6070   -0.0160    3.4590 ca        1 BAO     -0.062200
      6 C6         -0.5750   -0.2170    4.8460 ca        1 BAO     -0.104500
      7 C7          0.6390   -0.0250    7.0050 ce        1 BAO      0.645300
      8 N1         -0.2580    0.4280    7.8300 n2        1 BAO     -0.831100
      9 N2          1.7980   -0.6860    7.4630 nh        1 BAO     -0.927800
     10 N3          0.2310    0.6440    1.3810 nc        1 BAO     -0.486100
     11 N4         -1.5720   -0.2750    2.4910 na        1 BAO     -0.248800
     12 C8         -1.0190    0.1420    1.2560 cd        1 BAO      0.341800
     13 C1'         0.5250   -0.1750   -5.5270 ca        1 BAO     -0.136400
     14 C2'         1.6380   -0.7290   -4.8530 ca        1 BAO     -0.140000
     15 C3'         1.6410   -0.9120   -3.4830 ca        1 BAO     -0.058000
     16 C4'         0.5000   -0.5300   -2.7550 ca        1 BAO      0.058900
     17 C5'        -0.6420    0.0300   -3.4620 ca        1 BAO     -0.062200
     18 C6'        -0.6260    0.2070   -4.8560 ca        1 BAO     -0.104500
     19 C7'         0.5910   -0.0070   -7.0170 ce        1 BAO      0.645300
     20 N1'        -0.3600   -0.5220   -7.7360 n2        1 BAO     -0.831100
     21 N2'         1.6720    0.7800   -7.4620 nh        1 BAO     -0.927800
     22 N3'         0.2190   -0.5880   -1.3810 nc        1 BAO     -0.486100
     23 N4'        -1.5990    0.3020   -2.4910 na        1 BAO     -0.248800
     24 C8'        -1.0330   -0.0890   -1.2530 cd        1 BAO      0.341800
     25 C9         -1.8040    0.0360    0.0040 c         1 BAO      0.477500
     26 O9         -3.0390    0.0490    0.0110 o         1 BAO     -0.519100
     27 H2          2.5750    1.0090    5.4260 ha        1 BAO      0.144500
     28 H3          2.5370    1.3720    2.9530 ha        1 BAO      0.155500
     29 H6         -1.4320   -0.6560    5.3770 ha        1 BAO      0.152500
     30 HN1        -0.9770    0.9660    7.3960 hn        1 BAO      0.389900
     31 HN21        1.7830   -0.9670    8.4190 hn        1 BAO      0.402050
     32 HN22        2.1210   -1.3930    6.8420 hn        1 BAO      0.402050
     33 HN4        -2.4840   -0.6240    2.6270 hn        1 BAO      0.322200
     34 H2'         2.5180   -1.0390   -5.4370 ha        1 BAO      0.144500
     35 H3'         2.5080   -1.3440   -2.9630 ha        1 BAO      0.155500
     36 H6'        -1.4930    0.6210   -5.3910 ha        1 BAO      0.152500
     37 H1'        -0.2900   -0.3980   -8.7240 hn        1 BAO      0.389900
     38 H2'1        1.9600    0.6650   -8.4050 hn        1 BAO      0.402050
     39 H2'2        2.4120    0.9120   -6.8130 hn        1 BAO      0.402050
     40 HN4'       -2.5160    0.6390   -2.6260 hn        1 BAO      0.322200
@<TRIPOS>BOND
     1    1    2 ar  
     2    1    6 ar  
     3    1    7 1   
     4    2    3 ar  
     5    2   27 1   
     6    3    4 ar  
     7    3   28 1   
     8    4    5 ar  
     9    4   10 1   
    10    5    6 ar  
    11    5   11 1   
    12    6   29 1   
    13    7    8 2   
    14    7    9 1   
    15    8   30 1   
    16    9   31 1   
    17    9   32 1   
    18   10   12 2   
    19   11   12 1   
    20   11   33 1   
    21   12   25 1   
    22   13   14 ar  
    23   13   18 ar  
    24   13   19 1   
    25   14   15 ar  
    26   14   34 1   
    27   15   16 ar  
    28   15   35 1   
    29   16   17 ar  
    30   16   22 1   
    31   17   18 ar  
    32   17   23 1   
    33   18   36 1   
    34   19   20 2   
    35   19   21 1   
    36   20   37 1   
    37   21   38 1   
    38   21   39 1   
    39   22   24 2   
    40   23   24 1   
    41   23   40 1   
    42   24   25 1   
    43   25   26 2   
@<TRIPOS>SUBSTRUCTURE
     1 BAO         1 TEMP              0 ****  ****    0 ROOT
