@<TRIPOS>MOLECULE
BAP
   39    43     1     0     0
SMALL
bcc


@<TRIPOS>ATOM
      1 C1          0.0300    0.0320   -0.0330 ca        1 BAP     -0.113000
      2 C2          1.4230    0.0300   -0.0460 ca        1 BAP     -0.126000
      3 C3          2.1430    0.0190    1.1460 ca        1 BAP     -0.113000
      4 C3A         1.4740    0.0100    2.3770 ca        1 BAP     -0.035000
      5 C4          2.1790   -0.0090    3.6290 ca        1 BAP     -0.110000
      6 C5          1.5170   -0.0150    4.8130 ca        1 BAP     -0.122000
      7 C5A         0.0770    0.0000    4.8780 ca        1 BAP     -0.031000
      8 C6         -0.6240    0.0020    6.1030 ca        1 BAP     -0.063300
      9 C7         -2.0260    0.0030    6.0930 ca        1 BAP     -0.085300
     10 C8         -2.7330    0.0020    4.8890 ca        1 BAP     -0.080000
     11 C8A        -2.0610    0.0060    3.6640 ca        1 BAP     -0.038000
     12 C9         -2.7700    0.0110    2.4120 ca        1 BAP     -0.110000
     13 C10        -2.1080    0.0200    1.2280 ca        1 BAP     -0.116000
     14 C1A        -0.6690    0.0230    1.1800 ca        1 BAP     -0.031000
     15 C3B         0.0560    0.0140    2.4010 ca        1 BAP     -0.017000
     16 C5B        -0.6420    0.0080    3.6550 ca        1 BAP     -0.009000
     17 C1'        -2.8070    0.0490    7.3730 c3        1 BAP      0.161400
     18 O1'        -4.0320   -0.6480    7.1940 oh        1 BAP     -0.595800
     19 C2'        -2.0110   -0.5520    8.5430 c3        1 BAP      0.076100
     20 O2'        -2.7590   -0.4160    9.7360 oh        1 BAP     -0.599800
     21 C3'        -0.6430    0.1270    8.6520 c3        1 BAP      0.113100
     22 O3'        -0.8010    1.4850    9.0320 oh        1 BAP     -0.601800
     23 C4'         0.1600   -0.0310    7.3700 c3        1 BAP     -0.072100
     24 H1         -0.5290    0.0390   -0.9810 ha        1 BAP      0.135000
     25 H2          1.9590    0.0380   -1.0070 ha        1 BAP      0.134000
     26 H3          3.2430    0.0160    1.1260 ha        1 BAP      0.134000
     27 H4          3.2800   -0.0190    3.5960 ha        1 BAP      0.134000
     28 H5          2.0830   -0.0370    5.7570 ha        1 BAP      0.132000
     29 H8         -3.8360   -0.0140    4.9130 ha        1 BAP      0.157000
     30 H9         -3.8710    0.0050    2.4500 ha        1 BAP      0.137000
     31 H10        -2.6510    0.0240    0.2710 ha        1 BAP      0.135000
     32 H1'        -3.0520    1.1280    7.6120 h1        1 BAP      0.040700
     33 HO1        -4.3760   -0.8290    8.0800 ho        1 BAP      0.422000
     34 H2'        -1.8920   -1.6620    8.4000 h1        1 BAP      0.099700
     35 HO2        -2.6500    0.4960   10.0430 ho        1 BAP      0.418000
     36 H3'        -0.0760   -0.3220    9.5200 h1        1 BAP      0.090700
     37 HO3        -1.0960    1.9750    8.2540 ho        1 BAP      0.408000
     38 H4'1        0.7070   -1.0130    7.4180 hc        1 BAP      0.070700
     39 H4'2        0.9340    0.7870    7.3510 hc        1 BAP      0.070700
@<TRIPOS>BOND
     1    1    2 ar  
     2    1   14 ar  
     3    1   24 1   
     4    2    3 ar  
     5    2   25 1   
     6    3    4 ar  
     7    3   26 1   
     8    4    5 ar  
     9    4   15 ar  
    10    5    6 ar  
    11    5   27 1   
    12    6    7 ar  
    13    6   28 1   
    14    7    8 ar  
    15    7   16 ar  
    16    8    9 ar  
    17    8   23 1   
    18    9   10 ar  
    19    9   17 1   
    20   10   11 ar  
    21   10   29 1   
    22   11   12 ar  
    23   11   16 ar  
    24   12   13 ar  
    25   12   30 1   
    26   13   14 ar  
    27   13   31 1   
    28   14   15 ar  
    29   15   16 ar  
    30   17   18 1   
    31   17   19 1   
    32   17   32 1   
    33   18   33 1   
    34   19   20 1   
    35   19   21 1   
    36   19   34 1   
    37   20   35 1   
    38   21   22 1   
    39   21   23 1   
    40   21   36 1   
    41   22   37 1   
    42   23   38 1   
    43   23   39 1   
@<TRIPOS>SUBSTRUCTURE
     1 BAP         1 TEMP              0 ****  ****    0 ROOT
