@<TRIPOS>MOLECULE
BAP
   39    43     1     0     0
SMALL
bcc


@<TRIPOS>ATOM
      1 C1         -0.8080    0.0130   -4.8540 ca        1 BAP     -0.112000
      2 C2          0.4960   -0.0910   -5.3320 ca        1 BAP     -0.127000
      3 C3          1.5710   -0.1680   -4.4490 ca        1 BAP     -0.112000
      4 C3A         1.3530   -0.1400   -3.0660 ca        1 BAP     -0.035000
      5 C4          2.4330   -0.2210   -2.1200 ca        1 BAP     -0.111000
      6 C5          2.2070   -0.1900   -0.7830 ca        1 BAP     -0.121000
      7 C5A         0.8760   -0.0720   -0.2410 ca        1 BAP     -0.031000
      8 C6          0.6270   -0.0320    1.1480 ca        1 BAP     -0.042300
      9 C7         -0.6940    0.0700    1.6110 ca        1 BAP     -0.093300
     10 C8         -1.7580    0.1350    0.7090 ca        1 BAP     -0.105000
     11 C8A        -1.5360    0.1050   -0.6700 ca        1 BAP     -0.032000
     12 C9         -2.6220    0.1760   -1.6130 ca        1 BAP     -0.114000
     13 C10        -2.3950    0.1490   -2.9500 ca        1 BAP     -0.113000
     14 C1A        -1.0600    0.0440   -3.4770 ca        1 BAP     -0.033000
     15 C3B         0.0290   -0.0310   -2.5690 ca        1 BAP     -0.015000
     16 C5B        -0.2080    0.0020   -1.1540 ca        1 BAP     -0.011000
     17 C1'        -0.9740    0.1500    3.0840 c3        1 BAP      0.149400
     18 O1'        -2.2030   -0.4620    3.4550 oh        1 BAP     -0.604800
     19 C2'         0.1120   -0.5970    3.8770 c3        1 BAP      0.161100
     20 O2'        -0.1020   -0.5150    5.2720 oh        1 BAP     -0.589800
     21 C3'         1.4670    0.0480    3.5620 c3        1 BAP      0.143100
     22 O3'         1.3850    1.4210    3.9180 oh        1 BAP     -0.585800
     23 C4'         1.7880   -0.1210    2.0790 c3        1 BAP     -0.072100
     24 H1         -1.6500    0.0720   -5.5610 ha        1 BAP      0.135000
     25 H2          0.6790   -0.1140   -6.4170 ha        1 BAP      0.134000
     26 H3          2.5970   -0.2520   -4.8360 ha        1 BAP      0.134000
     27 H4          3.4560   -0.3110   -2.5200 ha        1 BAP      0.133000
     28 H5          3.0530   -0.2610   -0.0820 ha        1 BAP      0.131000
     29 H8         -2.7910    0.2040    1.0820 ha        1 BAP      0.130000
     30 H9         -3.6440    0.2540   -1.2110 ha        1 BAP      0.133000
     31 H10        -3.2260    0.2040   -3.6700 ha        1 BAP      0.134000
     32 H1'        -0.9760    1.2350    3.4010 h1        1 BAP      0.080700
     33 HO1        -2.9110    0.1300    3.1760 ho        1 BAP      0.408000
     34 H2'         0.1340   -1.6790    3.5670 h1        1 BAP      0.056700
     35 HO2        -1.0350   -0.7250    5.4200 ho        1 BAP      0.420000
     36 H3'         2.2640   -0.4520    4.1830 h1        1 BAP      0.053700
     37 HO3         2.2830    1.7700    3.8810 ho        1 BAP      0.401000
     38 H4'1        2.5420    0.6660    1.7970 hc        1 BAP      0.061200
     39 H4'2        2.2740   -1.1260    1.9380 hc        1 BAP      0.061200
@<TRIPOS>BOND
     1    1    2 ar  
     2    1   14 ar  
     3    1   24 1   
     4    2    3 ar  
     5    2   25 1   
     6    3    4 ar  
     7    3   26 1   
     8    4    5 ar  
     9    4   15 ar  
    10    5    6 ar  
    11    5   27 1   
    12    6    7 ar  
    13    6   28 1   
    14    7    8 ar  
    15    7   16 ar  
    16    8    9 ar  
    17    8   23 1   
    18    9   10 ar  
    19    9   17 1   
    20   10   11 ar  
    21   10   29 1   
    22   11   12 ar  
    23   11   16 ar  
    24   12   13 ar  
    25   12   30 1   
    26   13   14 ar  
    27   13   31 1   
    28   14   15 ar  
    29   15   16 ar  
    30   17   18 1   
    31   17   19 1   
    32   17   32 1   
    33   18   33 1   
    34   19   20 1   
    35   19   21 1   
    36   19   34 1   
    37   20   35 1   
    38   21   22 1   
    39   21   23 1   
    40   21   36 1   
    41   22   37 1   
    42   23   38 1   
    43   23   39 1   
@<TRIPOS>SUBSTRUCTURE
     1 BAP         1 TEMP              0 ****  ****    0 ROOT
