@<TRIPOS>MOLECULE
BAP
   39    36     1     0     0
SMALL
bcc


@<TRIPOS>ATOM
      1 C1          0.8530   -0.0570   -4.9260 c1        1 BAP     -0.117750
      2 C2          2.2630   -0.0440   -4.9020 c1        1 BAP     -0.117750
      3 C3          2.9500    0.0370   -3.6670 c1        1 BAP     -0.114000
      4 C3A         2.2200    0.1040   -2.4520 c1        1 BAP     -0.034000
      5 C4          2.9130    0.1840   -1.2100 c1        1 BAP     -0.117750
      6 C5          2.1970    0.2390   -0.0140 c1        1 BAP     -0.117750
      7 C5A         0.7900    0.2160   -0.0360 c1        1 BAP     -0.022000
      8 C6          0.0920    0.0550    1.1650 c1        1 BAP     -0.054000
      9 C7         -1.4130   -0.1440    1.1420 c1        1 BAP     -0.080000
     10 C8         -2.0910   -0.1650   -0.0740 c1        1 BAP     -0.078000
     11 C8A        -1.3620    0.0020   -1.3110 c1        1 BAP     -0.039000
     12 C9         -2.0360   -0.0840   -2.5260 c2        1 BAP     -0.111000
     13 C10        -1.3200   -0.0810   -3.7230 c1        1 BAP     -0.117000
     14 C1A         0.1160    0.0100   -3.7020 c1        1 BAP     -0.032000
     15 C3B         0.7980    0.1020   -2.4750 c2        1 BAP     -0.016000
     16 C5B         0.0900    0.1270   -1.2920 c2        1 BAP     -0.011000
     17 C1'        -2.1850   -0.2160    2.5610 c3        1 BAP      0.080000
     18 O1'        -2.7340   -1.5390    2.7010 oh        1 BAP     -0.324000
     19 C2'        -1.3930    0.0680    3.7450 c3        1 BAP     -0.038000
     20 O2'        -1.3850    1.5570    3.9450 oh        1 BAP     -0.344000
     21 C3'         0.0290   -0.4010    3.7340 c3        1 BAP      0.004000
     22 O3'         0.6950    0.1200    4.9760 oh        1 BAP     -0.327000
     23 C4'         0.8390   -0.0070    2.5970 c3        1 BAP     -0.152000
     24 H1          0.3780   -0.1130   -5.7830 ha        1 BAP      0.133750
     25 H2          2.7680   -0.1080   -5.7410 ha        1 BAP      0.133750
     26 H3          3.9310    0.0460   -3.6520 ha        1 BAP      0.134000
     27 H4          3.8940    0.1480   -1.1930 ha        1 BAP      0.133750
     28 H5          2.6730    0.3300    0.8380 ha        1 BAP      0.133750
     29 H8         -3.0640   -0.2980   -0.0910 ha        1 BAP      0.159000
     30 H9         -3.0170   -0.1280   -2.5400 ha        1 BAP      0.137000
     31 H10        -1.7930   -0.1790   -4.5780 ha        1 BAP      0.134000
     32 H1'        -2.9320    0.4240    2.5340 h1        1 BAP      0.098000
     33 HO1        -3.6250   -1.4900    2.7340 ho        1 BAP      0.220000
     34 H2'        -1.8430   -0.3420    4.5160 h1        1 BAP      0.102000
     35 HO2        -1.8550    1.7610    4.6750 ho        1 BAP      0.222000
     36 H3'         0.0250   -1.3840    3.7770 h1        1 BAP      0.126000
     37 HO3         0.7370    1.0100    4.9400 ho        1 BAP      0.209000
     38 H4'1        1.5870   -0.6410    2.5230 hc        1 BAP      0.102500
     39 H4'2        1.2110    0.8850    2.7840 hc        1 BAP      0.102500
@<TRIPOS>BOND
     1    1    2 1   
     2    1   24 1   
     3    2   25 1   
     4    3    4 1   
     5    3   26 1   
     6    4   15 1   
     7    5    6 1   
     8    5   27 1   
     9    6   28 1   
    10    7    8 1   
    11    7   16 1   
    12    8   23 1   
    13    9   10 1   
    14    9   17 1   
    15   10   29 1   
    16   11   12 1   
    17   11   16 1   
    18   12   13 1   
    19   12   30 1   
    20   13   31 1   
    21   14   15 1   
    22   15   16 1   
    23   17   18 1   
    24   17   19 1   
    25   17   32 1   
    26   18   33 1   
    27   19   20 1   
    28   19   21 1   
    29   19   34 1   
    30   20   35 1   
    31   21   22 1   
    32   21   23 1   
    33   21   36 1   
    34   22   37 1   
    35   23   38 1   
    36   23   39 1   
@<TRIPOS>SUBSTRUCTURE
     1 BAP         1 TEMP              0 ****  ****    0 ROOT
