@<TRIPOS>MOLECULE
BAQ
   13    13     1     0     0
SMALL
bcc


@<TRIPOS>ATOM
      1 OAA        -0.0420    0.2030   -0.0270 o         1 BAQ     -0.631500
      2 CAF         1.1900    0.0670    0.0060 c         1 BAQ      0.697500
      3 CAD         2.0400   -0.1860    1.2470 c3        1 BAQ     -0.159400
      4 CAB         3.4790   -0.2750    0.7440 c3        1 BAQ     -0.094400
      5 CAC         3.4040   -0.0670   -0.7870 c3        1 BAQ      0.093000
      6 NAE         2.0110    0.1260   -1.1100 n         1 BAQ     -0.592900
      7 H1          1.7060   -1.1330    1.7360 hc        1 BAQ      0.080700
      8 H2          1.8980    0.6550    1.9690 hc        1 BAQ      0.080700
      9 H3          3.9280   -1.2700    0.9780 hc        1 BAQ      0.055700
     10 H4          4.1190    0.5120    1.2100 hc        1 BAQ      0.055700
     11 H5          3.8120   -0.9620   -1.3310 h1        1 BAQ      0.040700
     12 H6          4.0050    0.8320   -1.0970 h1        1 BAQ      0.040700
     13 H7          1.6940    0.2770   -2.0300 hn        1 BAQ      0.332500
@<TRIPOS>BOND
     1    1    2 2   
     2    2    3 1   
     3    2    6 1   
     4    3    4 1   
     5    3    7 1   
     6    3    8 1   
     7    4    5 1   
     8    4    9 1   
     9    4   10 1   
    10    5    6 1   
    11    5   11 1   
    12    5   12 1   
    13    6   13 1   
@<TRIPOS>SUBSTRUCTURE
     1 BAQ         1 TEMP              0 ****  ****    0 ROOT
