@<TRIPOS>MOLECULE
BAQ
   13    12     1     0     0
SMALL
bcc


@<TRIPOS>ATOM
      1 OAA        -2.5640   -0.0060   -0.0310 o         1 BAQ     -0.356000
      2 CAF        -1.3420   -0.0060   -0.0310 c1        1 BAQ      0.305000
      3 CAD        -0.4700   -0.0060    1.1700 c2        1 BAQ     -0.188000
      4 CAB         0.9260   -0.0060    0.5620 c3        1 BAQ     -0.173000
      5 CAC         0.7590   -0.0060   -0.9440 c3        1 BAQ     -0.023000
      6 NAE        -0.4450   -0.0060   -1.2190 n3        1 BAQ     -0.402000
      7 H1         -0.7020   -0.7220    1.7910 ha        1 BAQ      0.120000
      8 H2         -0.5860    0.7860    1.7290 ha        1 BAQ      0.120000
      9 H3          1.4110   -0.8050    0.8430 hc        1 BAQ      0.095000
     10 H4          1.4110    0.7930    0.8430 hc        1 BAQ      0.095000
     11 H5          1.1800   -0.8030   -1.3190 h1        1 BAQ      0.080000
     12 H6          1.1800    0.7920   -1.3190 h1        1 BAQ      0.080000
     13 H7         -0.7580   -0.0060   -2.0760 hn        1 BAQ      0.246000
@<TRIPOS>BOND
     1    1    2 1   
     2    2    6 1   
     3    3    4 1   
     4    3    7 1   
     5    3    8 1   
     6    4    5 1   
     7    4    9 1   
     8    4   10 1   
     9    5    6 1   
    10    5   11 1   
    11    5   12 1   
    12    6   13 1   
@<TRIPOS>SUBSTRUCTURE
     1 BAQ         1 TEMP              0 ****  ****    0 ROOT
