@<TRIPOS>MOLECULE
BAQ
   13    13     1     0     0
SMALL
bcc


@<TRIPOS>ATOM
      1 OAA        -0.0420    0.2390    0.0070 o         1 BAQ     -0.631500
      2 CAF         1.1890    0.0860    0.0280 c         1 BAQ      0.697500
      3 CAD         2.0520   -0.1350    1.2660 c3        1 BAQ     -0.159400
      4 CAB         3.4830   -0.2640    0.7470 c3        1 BAQ     -0.094400
      5 CAC         3.3890   -0.1110   -0.7900 c3        1 BAQ      0.093000
      6 NAE         1.9940    0.0890   -1.1000 n         1 BAQ     -0.592900
      7 H1          1.7120   -1.0590    1.7940 hc        1 BAQ      0.080700
      8 H2          1.9330    0.7340    1.9590 hc        1 BAQ      0.080700
      9 H3          3.9200   -1.2570    1.0110 hc        1 BAQ      0.055700
     10 H4          4.1410    0.5300    1.1750 hc        1 BAQ      0.055700
     11 H5          3.9980    0.7660   -1.1410 h1        1 BAQ      0.040700
     12 H6          3.7760   -1.0320   -1.3060 h1        1 BAQ      0.040700
     13 H7          1.6670    0.2140   -2.0210 hn        1 BAQ      0.332500
@<TRIPOS>BOND
     1    1    2 2   
     2    2    3 1   
     3    2    6 1   
     4    3    4 1   
     5    3    7 1   
     6    3    8 1   
     7    4    5 1   
     8    4    9 1   
     9    4   10 1   
    10    5    6 1   
    11    5   11 1   
    12    5   12 1   
    13    6   13 1   
@<TRIPOS>SUBSTRUCTURE
     1 BAQ         1 TEMP              0 ****  ****    0 ROOT
