@<TRIPOS>MOLECULE
BAQ
   13    13     1     0     0
SMALL
bcc


@<TRIPOS>ATOM
      1 OAA        -0.0450    0.1790   -0.0220 o         1 BAQ     -0.631500
      2 CAF         1.1880    0.0530    0.0080 c         1 BAQ      0.697500
      3 CAD         2.0490   -0.1330    1.2540 c3        1 BAQ     -0.159400
      4 CAB         3.4850   -0.2380    0.7450 c3        1 BAQ     -0.094400
      5 CAC         3.3970   -0.1060   -0.7940 c3        1 BAQ      0.093000
      6 NAE         2.0010    0.0610   -1.1150 ns        1 BAQ     -0.592900
      7 H1          1.9070    0.7410    1.9350 hc        1 BAQ      0.080700
      8 H2          1.7250   -1.0580    1.7920 hc        1 BAQ      0.080700
      9 H3          3.9410   -1.2180    1.0240 hc        1 BAQ      0.055700
     10 H4          4.1230    0.5750    1.1670 hc        1 BAQ      0.055700
     11 H5          3.8070   -1.0250   -1.2960 h1        1 BAQ      0.040700
     12 H6          3.9890    0.7800   -1.1520 h1        1 BAQ      0.040700
     13 H7          1.6760    0.1660   -2.0390 hn        1 BAQ      0.332500
@<TRIPOS>BOND
     1    1    2 2   
     2    2    3 1   
     3    2    6 1   
     4    3    4 1   
     5    3    7 1   
     6    3    8 1   
     7    4    5 1   
     8    4    9 1   
     9    4   10 1   
    10    5    6 1   
    11    5   11 1   
    12    5   12 1   
    13    6   13 1   
@<TRIPOS>SUBSTRUCTURE
     1 BAQ         1 TEMP              0 ****  ****    0 ROOT
