@<TRIPOS>MOLECULE
BAQ
   13    13     1     0     0
SMALL
bcc


@<TRIPOS>ATOM
      1 OAA        -2.0640   -0.0390    0.1750 o         1 BAQ     -0.631500
      2 CAF        -0.8260   -0.0310    0.1010 c         1 BAQ      0.697500
      3 CAD         0.0830   -1.2530    0.0240 c3        1 BAQ     -0.159400
      4 CAB         1.5050   -0.6990   -0.0510 c3        1 BAQ     -0.094400
      5 CAC         1.3590    0.8410   -0.0130 c3        1 BAQ      0.093000
      6 NAE        -0.0540    1.1200    0.0770 n         1 BAQ     -0.592900
      7 H1         -0.0730   -1.8880    0.9300 hc        1 BAQ      0.080700
      8 H2         -0.1810   -1.8540   -0.8800 hc        1 BAQ      0.080700
      9 H3          2.1200   -1.0500    0.8110 hc        1 BAQ      0.055700
     10 H4          2.0120   -1.0160   -0.9930 hc        1 BAQ      0.055700
     11 H5          1.8990    1.2700    0.8740 h1        1 BAQ      0.040700
     12 H6          1.7900    1.3050   -0.9420 h1        1 BAQ      0.040700
     13 H7         -0.4140    2.0360    0.1160 hn        1 BAQ      0.332500
@<TRIPOS>BOND
     1    1    2 2   
     2    2    3 1   
     3    2    6 1   
     4    3    4 1   
     5    3    7 1   
     6    3    8 1   
     7    4    5 1   
     8    4    9 1   
     9    4   10 1   
    10    5    6 1   
    11    5   11 1   
    12    5   12 1   
    13    6   13 1   
@<TRIPOS>SUBSTRUCTURE
     1 BAQ         1 TEMP              0 ****  ****    0 ROOT
