@<TRIPOS>MOLECULE
BAR
   26    27     1     0     0
SMALL
bcc


@<TRIPOS>ATOM
      1 C'         -0.0340   -0.6310   -0.0380 c2        1 BAR     -0.259200
      2 C1          1.2980   -0.5220   -0.0320 c2        1 BAR     -0.076200
      3 C2          2.0500   -0.1180    1.1950 c3        1 BAR     -0.139800
      4 C3          1.2780   -0.6270    2.4090 c3        1 BAR     -0.080400
      5 C4         -0.8830   -0.2260    1.1220 c3        1 BAR      0.124300
      6 C5         -0.0870    0.0430    2.4160 c3        1 BAR      0.163100
      7 C6          2.1620    1.4050    1.2860 c3        1 BAR     -0.062400
      8 C7          0.9440    2.1640    1.8100 c3        1 BAR      0.034100
      9 C8          3.4810   -0.7360    1.1980 c         1 BAR      0.921600
     10 C9          0.2020    2.9580    0.7060 c         1 BAR      0.900600
     11 O1         -1.8530   -1.2350    1.4420 oh        1 BAR     -0.633800
     12 O2         -1.0300    2.7730    0.4800 o         1 BAR     -0.859800
     13 O3          0.8770    3.8420    0.0950 o         1 BAR     -0.859800
     14 O4          4.1360   -0.7190    2.2820 o         1 BAR     -0.859800
     15 O5          3.9410   -1.2400    0.1320 o         1 BAR     -0.859800
     16 O'          0.0440    1.4380    2.6500 os        1 BAR     -0.425600
     17 H'         -0.5860   -0.9560   -0.9310 ha        1 BAR      0.082000
     18 H1          1.9230   -0.7500   -0.9100 ha        1 BAR      0.138000
     19 H31         1.8460   -0.3710    3.3380 hc        1 BAR      0.044200
     20 H32         1.1610   -1.7370    2.3570 hc        1 BAR      0.044200
     21 H4         -1.4310    0.7330    0.8520 h1        1 BAR      0.120700
     22 H5         -0.7010   -0.3080    3.2950 h1        1 BAR      0.040700
     23 H61         2.4160    1.8190    0.2750 hc        1 BAR      0.051200
     24 H62         3.0280    1.6220    1.9690 hc        1 BAR      0.051200
     25 H7          1.3260    2.9570    2.5270 h1        1 BAR      0.027700
     26 HO1        -2.2450   -1.4980    0.6040 ho        1 BAR      0.372000
@<TRIPOS>BOND
     1    1    2 2   
     2    1    5 1   
     3    1   17 1   
     4    2    3 1   
     5    2   18 1   
     6    3    4 1   
     7    3    7 1   
     8    3    9 1   
     9    4    6 1   
    10    4   19 1   
    11    4   20 1   
    12    5    6 1   
    13    5   11 1   
    14    5   21 1   
    15    6   16 1   
    16    6   22 1   
    17    7    8 1   
    18    7   23 1   
    19    7   24 1   
    20    8   10 1   
    21    8   16 1   
    22    8   25 1   
    23    9   14 1   
    24    9   15 1   
    25   10   12 1   
    26   10   13 1   
    27   11   26 1   
@<TRIPOS>SUBSTRUCTURE
     1 BAR         1 TEMP              0 ****  ****    0 ROOT
