@<TRIPOS>MOLECULE
BAR
   26    27     1     0     0
SMALL
bcc


@<TRIPOS>ATOM
      1 C'          0.3690   -1.7010    0.7430 c2        1 BAR     -0.256200
      2 C1         -0.0560   -1.3930   -0.4860 c2        1 BAR     -0.082200
      3 C2          0.1470   -0.0350   -1.0770 c3        1 BAR     -0.138800
      4 C3          1.4320    0.5490   -0.4960 c3        1 BAR     -0.084400
      5 C4          0.9760   -0.7010    1.6720 c3        1 BAR      0.130300
      6 C5          1.2570    0.6660    1.0100 c3        1 BAR      0.132100
      7 C6         -1.0170    0.8860   -0.7130 c3        1 BAR     -0.061400
      8 C7         -1.0180    1.4740    0.6970 c3        1 BAR      0.033100
      9 C8          0.2780   -0.1130   -2.6270 c         1 BAR      0.921600
     10 C9         -2.0540    0.8150    1.6410 c         1 BAR      0.901600
     11 O1          2.1840   -1.2130    2.2400 oh        1 BAR     -0.630800
     12 O2         -1.7000    0.3150    2.7470 o         1 BAR     -0.858800
     13 O3         -3.2680    0.8720    1.2760 o         1 BAR     -0.858800
     14 O4          0.7270    0.9010   -3.2390 o         1 BAR     -0.859300
     15 O5         -0.0520   -1.1780   -3.2250 o         1 BAR     -0.859300
     16 O'          0.2590    1.6230    1.3260 os        1 BAR     -0.420600
     17 H'          0.2370   -2.7040    1.1730 ha        1 BAR      0.096000
     18 H1         -0.5570   -2.1190   -1.1460 ha        1 BAR      0.139000
     19 H31         2.3010   -0.1140   -0.7310 hc        1 BAR      0.039200
     20 H32         1.6180    1.5530   -0.9530 hc        1 BAR      0.039200
     21 H4          0.2810   -0.5310    2.5540 h1        1 BAR      0.146700
     22 H5          2.1840    1.1020    1.4850 h1        1 BAR      0.029700
     23 H61        -0.9980    1.7360   -1.4480 hc        1 BAR      0.051200
     24 H62        -1.9850    0.3360   -0.8530 hc        1 BAR      0.051200
     25 H7         -1.3490    2.5560    0.6110 h1        1 BAR      0.027700
     26 HO1         2.7630   -1.4210    1.5000 ho        1 BAR      0.373000
@<TRIPOS>BOND
     1    1    2 2   
     2    1    5 1   
     3    1   17 1   
     4    2    3 1   
     5    2   18 1   
     6    3    4 1   
     7    3    7 1   
     8    3    9 1   
     9    4    6 1   
    10    4   19 1   
    11    4   20 1   
    12    5    6 1   
    13    5   11 1   
    14    5   21 1   
    15    6   16 1   
    16    6   22 1   
    17    7    8 1   
    18    7   23 1   
    19    7   24 1   
    20    8   10 1   
    21    8   16 1   
    22    8   25 1   
    23    9   14 1   
    24    9   15 1   
    25   10   12 1   
    26   10   13 1   
    27   11   26 1   
@<TRIPOS>SUBSTRUCTURE
     1 BAR         1 TEMP              0 ****  ****    0 ROOT
