@<TRIPOS>MOLECULE
BAR
   26    27     1     0     0
SMALL
bcc


@<TRIPOS>ATOM
      1 C'         -0.0470   -0.5810   -0.0550 c2        1 BAR     -0.259200
      2 C1          1.2870   -0.4960   -0.0500 c2        1 BAR     -0.076200
      3 C2          2.0490   -0.1350    1.1840 c3        1 BAR     -0.139800
      4 C3          1.2700   -0.6580    2.3880 c3        1 BAR     -0.080400
      5 C4         -0.8860   -0.1880    1.1170 c3        1 BAR      0.124300
      6 C5         -0.0820    0.0360    2.4150 c3        1 BAR      0.163100
      7 C6          2.1880    1.3830    1.3120 c3        1 BAR     -0.062400
      8 C7          0.9860    2.1520    1.8570 c3        1 BAR      0.034100
      9 C8          3.4680   -0.7780    1.1690 c         1 BAR      0.921600
     10 C9          0.2550    2.9850    0.7740 c         1 BAR      0.900600
     11 O1         -1.8730   -1.1860    1.4150 oh        1 BAR     -0.633800
     12 O2         -0.9800    2.8280    0.5470 o         1 BAR     -0.859800
     13 O3          0.9450    3.8720    0.1840 o         1 BAR     -0.859800
     14 O4          4.1260   -0.7990    2.2510 o         1 BAR     -0.859800
     15 O5          3.9170   -1.2640    0.0890 o         1 BAR     -0.859800
     16 O'          0.0740    1.4210    2.6820 os        1 BAR     -0.425600
     17 H'         -0.6070   -0.8730   -0.9540 ha        1 BAR      0.082000
     18 H1          1.9050   -0.7140   -0.9350 ha        1 BAR      0.138000
     19 H31         1.8450   -0.4350    3.3220 hc        1 BAR      0.044200
     20 H32         1.1330   -1.7650    2.3100 hc        1 BAR      0.044200
     21 H4         -1.4170    0.7870    0.8710 h1        1 BAR      0.120700
     22 H5         -0.7000   -0.3260    3.2860 h1        1 BAR      0.040700
     23 H61         2.4470    1.8170    0.3100 hc        1 BAR      0.051200
     24 H62         3.0600    1.5690    1.9970 hc        1 BAR      0.051200
     25 H7          1.3830    2.9200    2.5920 h1        1 BAR      0.027700
     26 HO1        -2.2730   -1.4210    0.5720 ho        1 BAR      0.372000
@<TRIPOS>BOND
     1    1    2 2   
     2    1    5 1   
     3    1   17 1   
     4    2    3 1   
     5    2   18 1   
     6    3    4 1   
     7    3    7 1   
     8    3    9 1   
     9    4    6 1   
    10    4   19 1   
    11    4   20 1   
    12    5    6 1   
    13    5   11 1   
    14    5   21 1   
    15    6   16 1   
    16    6   22 1   
    17    7    8 1   
    18    7   23 1   
    19    7   24 1   
    20    8   10 1   
    21    8   16 1   
    22    8   25 1   
    23    9   14 1   
    24    9   15 1   
    25   10   12 1   
    26   10   13 1   
    27   11   26 1   
@<TRIPOS>SUBSTRUCTURE
     1 BAR         1 TEMP              0 ****  ****    0 ROOT
