@<TRIPOS>MOLECULE
BAS
   25    22     1     0     0
SMALL
bcc


@<TRIPOS>ATOM
      1 C1          2.2770    1.2420    1.4310 c1        1 BAS      0.261000
      2 O1          2.9350    2.2440    1.2210 o         1 BAS     -0.368000
      3 N2          1.7820    0.4770    0.3430 n2        1 BAS     -0.387000
      4 C3          0.6090   -0.3070    0.5030 c3        1 BAS      0.069000
      5 C31         0.8280   -1.6720   -0.1120 c3        1 BAS     -0.164000
      6 C32         1.2150   -2.6560    0.9700 c3        1 BAS     -0.213000
      7 C4         -0.5520    0.3750   -0.1850 c2        1 BAS     -0.110000
      8 C5         -1.4300    1.1580    0.5490 c1        1 BAS     -0.122000
      9 C6         -2.5090    1.7620   -0.0770 c1        1 BAS     -0.126000
     10 C7         -2.7110    1.5830   -1.4360 c1        1 BAS     -0.126000
     11 C8         -1.8330    0.8010   -2.1700 c1        1 BAS     -0.127000
     12 C9         -0.7540    0.1970   -1.5450 c2        1 BAS     -0.115000
     13 HC11        2.0810    0.9700    2.3490 ha        1 BAS      0.124000
     14 HN2         2.2070    0.5030   -0.4630 hn        1 BAS      0.224000
     15 HC3         0.4110   -0.4070    1.4550 h1        1 BAS      0.098000
     16 H311        1.5430   -1.6190   -0.7770 hc        1 BAS      0.091000
     17 H312        0.0030   -1.9700   -0.5450 hc        1 BAS      0.091000
     18 H321        2.1120   -2.4420    1.3000 hc        1 BAS      0.078000
     19 H322        0.5730   -2.6000    1.7080 hc        1 BAS      0.078000
     20 H323        1.2110   -3.5640    0.6010 hc        1 BAS      0.078000
     21 HC5        -1.2880    1.2830    1.5060 ha        1 BAS      0.130000
     22 HC6        -3.1270    2.3120    0.4400 ha        1 BAS      0.134000
     23 HC7        -3.4710    2.0090   -1.8770 ha        1 BAS      0.134000
     24 HC8        -1.9750    0.6760   -3.1280 ha        1 BAS      0.135000
     25 HC9        -0.1360   -0.3540   -2.0620 ha        1 BAS      0.131000
@<TRIPOS>BOND
     1    1    2 1   
     2    1   13 1   
     3    3    4 1   
     4    3   14 1   
     5    4    5 1   
     6    4    7 1   
     7    4   15 1   
     8    5    6 1   
     9    5   16 1   
    10    5   17 1   
    11    6   18 1   
    12    6   19 1   
    13    6   20 1   
    14    7    8 1   
    15    7   12 1   
    16    8   21 1   
    17    9   10 1   
    18    9   22 1   
    19   10   23 1   
    20   11   12 1   
    21   11   24 1   
    22   12   25 1   
@<TRIPOS>SUBSTRUCTURE
     1 BAS         1 TEMP              0 ****  ****    0 ROOT
