@<TRIPOS>MOLECULE
BAS
   25    25     1     0     0
SMALL
bcc


@<TRIPOS>ATOM
      1 C1         -1.5670    0.8840    2.2310 c         1 BAS      0.660900
      2 O1         -2.1650   -0.1760    2.4830 o         1 BAS     -0.608100
      3 N2         -0.4160    0.9510    1.4850 n         1 BAS     -0.574900
      4 C3          0.1630   -0.1940    0.8150 c3        1 BAS      0.137000
      5 C31         1.6480   -0.4040    1.1670 c3        1 BAS     -0.085400
      6 C32         1.8460   -0.7840    2.6090 c3        1 BAS     -0.093100
      7 C4          0.0320   -0.0960   -0.6890 ca        1 BAS     -0.107300
      8 C5         -0.7230   -1.0470   -1.3830 ca        1 BAS     -0.119000
      9 C6         -0.8410   -0.9700   -2.7700 ca        1 BAS     -0.129500
     10 C7         -0.2120    0.0580   -3.4710 ca        1 BAS     -0.126000
     11 C8          0.5370    1.0120   -2.7830 ca        1 BAS     -0.129500
     12 C9          0.6590    0.9360   -1.3960 ca        1 BAS     -0.119000
     13 HC11       -1.9060    1.8730    2.6210 h5        1 BAS      0.025200
     14 HN2        -0.0410    1.8380    1.2490 hn        1 BAS      0.306500
     15 HC3        -0.4080   -1.1080    1.1710 h1        1 BAS      0.093700
     16 H311        2.2340    0.5220    0.9290 hc        1 BAS      0.046200
     17 H312        2.0350   -1.2230    0.5040 hc        1 BAS      0.046200
     18 H321        2.9230   -1.0130    2.8000 hc        1 BAS      0.037700
     19 H322        1.5380    0.0450    3.2900 hc        1 BAS      0.037700
     20 H323        1.2420   -1.6890    2.8660 hc        1 BAS      0.037700
     21 HC5        -1.2290   -1.8550   -0.8330 ha        1 BAS      0.133000
     22 HC6        -1.4350   -1.7220   -3.3110 ha        1 BAS      0.132500
     23 HC7        -0.3070    0.1170   -4.5650 ha        1 BAS      0.132000
     24 HC8         1.0340    1.8240   -3.3330 ha        1 BAS      0.132500
     25 HC9         1.2560    1.6870   -0.8580 ha        1 BAS      0.133000
@<TRIPOS>BOND
     1    1    2 2   
     2    1    3 1   
     3    1   13 1   
     4    3    4 1   
     5    3   14 1   
     6    4    5 1   
     7    4    7 1   
     8    4   15 1   
     9    5    6 1   
    10    5   16 1   
    11    5   17 1   
    12    6   18 1   
    13    6   19 1   
    14    6   20 1   
    15    7    8 ar  
    16    7   12 ar  
    17    8    9 ar  
    18    8   21 1   
    19    9   10 ar  
    20    9   22 1   
    21   10   11 ar  
    22   10   23 1   
    23   11   12 ar  
    24   11   24 1   
    25   12   25 1   
@<TRIPOS>SUBSTRUCTURE
     1 BAS         1 TEMP              0 ****  ****    0 ROOT
