@<TRIPOS>MOLECULE
BAS
   26    26     1     0     0
SMALL
bcc


@<TRIPOS>ATOM
      1 C1          0.3500    0.3350   -0.0100 c         1 BAS      0.539900
      2 O1          0.3030    1.3570   -0.6650 o         1 BAS     -0.377100
      3 N2         -0.6670    0.1520    1.0770 n4        1 BAS     -0.704800
      4 C3         -0.0170   -0.0980    2.4330 c3        1 BAS      0.205800
      5 C31         0.0470   -1.5910    2.7660 c3        1 BAS     -0.111400
      6 C32         0.9100   -2.3780    1.8170 c3        1 BAS     -0.122100
      7 C4         -0.7640    0.6650    3.4830 ca        1 BAS     -0.191300
      8 C5         -0.1330    1.7300    4.1370 ca        1 BAS     -0.103500
      9 C6         -0.8070    2.4290    5.1380 ca        1 BAS     -0.114500
     10 C7         -2.1120    2.0750    5.4820 ca        1 BAS     -0.076000
     11 C8         -2.7450    1.0160    4.8270 ca        1 BAS     -0.114500
     12 C9         -2.0750    0.3110    3.8300 ca        1 BAS     -0.103500
     13 HC11        1.0620   -0.5190   -0.0860 hx        1 BAS      0.134200
     14 HN2        -1.2660   -0.6470    0.8430 hn        1 BAS      0.461800
     15 HC3         1.0410    0.3030    2.3550 hx        1 BAS      0.102700
     16 H311        0.4730   -1.6600    3.8070 hc        1 BAS      0.093200
     17 H312       -0.9850   -2.0290    2.8110 hc        1 BAS      0.093200
     18 H321        1.9180   -1.9090    1.7000 hc        1 BAS      0.053700
     19 H322        0.4350   -2.4760    0.8110 hc        1 BAS      0.053700
     20 H323        1.0600   -3.4120    2.2200 hc        1 BAS      0.053700
     21 HC5         0.8990    2.0150    3.8760 ha        1 BAS      0.138000
     22 HC6        -0.3050    3.2620    5.6570 ha        1 BAS      0.162000
     23 HC7        -2.6430    2.6280    6.2740 ha        1 BAS      0.164000
     24 HC8        -3.7740    0.7340    5.1020 ha        1 BAS      0.162000
     25 HC9        -2.5750   -0.5330    3.3320 ha        1 BAS      0.138000
     26 H22        -1.2660    0.9890    1.1480 hn        1 BAS      0.461800
@<TRIPOS>BOND
     1    1    2 2   
     2    1    3 1   
     3    1   13 1   
     4    3    4 1   
     5    3   14 1   
     6    3   26 1   
     7    4    5 1   
     8    4    7 1   
     9    4   15 1   
    10    5    6 1   
    11    5   16 1   
    12    5   17 1   
    13    6   18 1   
    14    6   19 1   
    15    6   20 1   
    16    7    8 ar  
    17    7   12 ar  
    18    8    9 ar  
    19    8   21 1   
    20    9   10 ar  
    21    9   22 1   
    22   10   11 ar  
    23   10   23 1   
    24   11   12 ar  
    25   11   24 1   
    26   12   25 1   
@<TRIPOS>SUBSTRUCTURE
     1 BAS         1 TEMP              0 ****  ****    0 ROOT
