@<TRIPOS>MOLECULE
BAS
   26    26     1     0     0
SMALL
bcc


@<TRIPOS>ATOM
      1 C1          0.3800    0.3630    0.0010 c         1 BAS      0.539900
      2 O1          0.3610    1.3970   -0.6380 o         1 BAS     -0.377100
      3 N2         -0.6510    0.1860    1.0760 ny        1 BAS     -0.704800
      4 C3         -0.0180   -0.1020    2.4330 c3        1 BAS      0.205800
      5 C31         0.0090   -1.6010    2.7410 c3        1 BAS     -0.111400
      6 C32         0.8620   -2.3910    1.7870 c3        1 BAS     -0.122100
      7 C4         -0.7580    0.6610    3.4900 ca        1 BAS     -0.191300
      8 C5         -0.1080    1.6990    4.1670 ca        1 BAS     -0.103500
      9 C6         -0.7750    2.3970    5.1740 ca        1 BAS     -0.114500
     10 C7         -2.0910    2.0670    5.5010 ca        1 BAS     -0.076000
     11 C8         -2.7430    1.0340    4.8220 ca        1 BAS     -0.114500
     12 C9         -2.0790    0.3310    3.8190 ca        1 BAS     -0.103500
     13 HC11        1.0730   -0.5050   -0.0830 hx        1 BAS      0.134200
     14 HN2        -1.2650   -0.5960    0.8230 hn        1 BAS      0.462300
     15 HC3         1.0490    0.2770    2.3700 hx        1 BAS      0.102700
     16 H311       -1.0330   -2.0160    2.7700 hc        1 BAS      0.093200
     17 H312        0.4240   -1.6970    3.7840 hc        1 BAS      0.093200
     18 H321        1.8810   -1.9440    1.6850 hc        1 BAS      0.053700
     19 H322        0.9850   -3.4350    2.1730 hc        1 BAS      0.053700
     20 H323        0.3940   -2.4620    0.7750 hc        1 BAS      0.053700
     21 HC5         0.9320    1.9640    3.9200 ha        1 BAS      0.138000
     22 HC6        -0.2590    3.2080    5.7120 ha        1 BAS      0.162000
     23 HC7        -2.6170    2.6190    6.2980 ha        1 BAS      0.164000
     24 HC8        -3.7800    0.7710    5.0820 ha        1 BAS      0.162000
     25 HC9        -2.5950   -0.4920    3.3020 ha        1 BAS      0.138000
     26 H22        -1.2310    1.0340    1.1560 hn        1 BAS      0.462300
@<TRIPOS>BOND
     1    1    2 2   
     2    1    3 1   
     3    1   13 1   
     4    3    4 1   
     5    3   14 1   
     6    3   26 1   
     7    4    5 1   
     8    4    7 1   
     9    4   15 1   
    10    5    6 1   
    11    5   16 1   
    12    5   17 1   
    13    6   18 1   
    14    6   19 1   
    15    6   20 1   
    16    7    8 ar  
    17    7   12 ar  
    18    8    9 ar  
    19    8   21 1   
    20    9   10 ar  
    21    9   22 1   
    22   10   11 ar  
    23   10   23 1   
    24   11   12 ar  
    25   11   24 1   
    26   12   25 1   
@<TRIPOS>SUBSTRUCTURE
     1 BAS         1 TEMP              0 ****  ****    0 ROOT
