@<TRIPOS>MOLECULE
BAS
   26    26     1     0     0
SMALL
bcc


@<TRIPOS>ATOM
      1 C1          0.2680    0.3140   -0.0360 c         1 BAS      0.539900
      2 O1          0.1520    1.3170   -0.7130 o         1 BAS     -0.377100
      3 N2         -0.7130    0.1050    1.0790 n4        1 BAS     -0.704800
      4 C3         -0.0180   -0.0810    2.4240 c3        1 BAS      0.205800
      5 C31         0.1300   -1.5600    2.7870 c3        1 BAS     -0.111400
      6 C32         1.0080   -2.3250    1.8340 c3        1 BAS     -0.122100
      7 C4         -0.7770    0.6680    3.4760 ca        1 BAS     -0.191300
      8 C5         -0.1840    1.7770    4.0910 ca        1 BAS     -0.103500
      9 C6         -0.8690    2.4630    5.0930 ca        1 BAS     -0.114500
     10 C7         -2.1460    2.0530    5.4780 ca        1 BAS     -0.076000
     11 C8         -2.7410    0.9500    4.8600 ca        1 BAS     -0.114500
     12 C9         -2.0600    0.2570    3.8630 ca        1 BAS     -0.103500
     13 HC11        1.0200   -0.5050   -0.1110 hx        1 BAS      0.134200
     14 HN2        -1.3510    0.9120    1.1480 hn        1 BAS      0.462300
     15 HC3         1.0160    0.3710    2.3100 hx        1 BAS      0.102700
     16 H311        0.5840   -1.5850    3.8180 hc        1 BAS      0.093200
     17 H312       -0.8780   -2.0490    2.8680 hc        1 BAS      0.093200
     18 H321        1.2190   -3.3410    2.2550 hc        1 BAS      0.053700
     19 H322        0.5140   -2.4700    0.8420 hc        1 BAS      0.053700
     20 H323        1.9870   -1.8100    1.6810 hc        1 BAS      0.053700
     21 HC5         0.8250    2.1060    3.7990 ha        1 BAS      0.138000
     22 HC6        -0.3970    3.3310    5.5830 ha        1 BAS      0.162000
     23 HC7        -2.6860    2.5970    6.2710 ha        1 BAS      0.164000
     24 HC8        -3.7480    0.6230    5.1670 ha        1 BAS      0.162000
     25 HC9        -2.5300   -0.6220    3.3950 ha        1 BAS      0.138000
     26 H22        -1.2750   -0.7290    0.8780 hn        1 BAS      0.462300
@<TRIPOS>BOND
     1    1    2 2   
     2    1    3 1   
     3    1   13 1   
     4    3    4 1   
     5    3   14 1   
     6    3   26 1   
     7    4    5 1   
     8    4    7 1   
     9    4   15 1   
    10    5    6 1   
    11    5   16 1   
    12    5   17 1   
    13    6   18 1   
    14    6   19 1   
    15    6   20 1   
    16    7    8 ar  
    17    7   12 ar  
    18    8    9 ar  
    19    8   21 1   
    20    9   10 ar  
    21    9   22 1   
    22   10   11 ar  
    23   10   23 1   
    24   11   12 ar  
    25   11   24 1   
    26   12   25 1   
@<TRIPOS>SUBSTRUCTURE
     1 BAS         1 TEMP              0 ****  ****    0 ROOT
