@<TRIPOS>MOLECULE
BAT
   66    62     1     0     0
SMALL
bcc


@<TRIPOS>ATOM
      1 C1        -40.4490  117.6990  398.1770 c2        1 BAT     -0.417000
      2 C2        -41.3940  117.9500  397.2800 c1        1 BAT      0.328000
      3 C3        -40.0450  116.3580  398.5720 c3        1 BAT     -0.159000
      4 C4        -40.3110  114.6620  400.8320 c3        1 BAT     -0.407000
      5 C5        -41.2650  113.7150  401.3880 c2        1 BAT     -0.526000
      6 C6        -41.2180  112.3920  401.3560 c1        1 BAT      0.335000
      7 C7        -38.2860  115.3620  402.5630 c2        1 BAT     -0.562000
      8 C8        -35.9090  115.6700  398.2960 c3        1 BAT     -0.246000
      9 C9       -537.4820  170.6600 -462.4130 cx        1 BAT     -0.256000
     10 C10      -538.2090  169.9670 -463.5630 cx        1 BAT     -0.092000
     11 C11      -538.9890  170.5170 -462.4060 cx        1 BAT     -0.167000
     12 C12      -538.2230  170.6480 -464.8860 c3        1 BAT     -0.217000
     13 C13       -36.4190  114.5810  399.2030 c2        1 BAT      0.330000
     14 C14       496.4320 -312.6760 -228.7720 c1        1 BAT      0.017000
     15 C15       496.2520 -313.9910 -229.2690 c2        1 BAT      0.226000
     16 C16       498.5840 -314.6790 -229.7870 c3        1 BAT     -0.193000
     17 C17       495.9400 -311.9360 -227.6780 c3        1 BAT     -0.168000
     18 C18       495.1940 -312.6350 -226.6040 c2        1 BAT     -0.189000
     19 C19       -32.7320  112.5770  397.8910 c1        1 BAT     -0.223000
     20 C20       -33.4590  112.1450  397.0450 c1        1 BAT     -0.223000
     21 C21       498.1920 -314.3560 -225.6810 c1        1 BAT     -0.175000
     22 C22       497.0590 -313.9690 -225.7600 c1        1 BAT     -0.185000
     23 C23       495.7230 -313.5320 -225.7600 c2        1 BAT     -0.034000
     24 N1       -536.6350  169.8710 -461.4890 n4        1 BAT      0.118000
     25 N2        -35.7760  113.3820  399.2260 n         1 BAT     -0.405000
     26 O1        -42.2260  118.2100  396.4830 o         1 BAT     -0.077000
     27 O2       -536.5890  170.3510 -460.2200 oh        1 BAT     -0.210000
     28 O3        -37.4250  114.7670  399.9430 o         1 BAT     -0.520000
     29 S1        -41.0390  116.0400  400.0400 ss        1 BAT      0.176000
     30 S2        -39.6410  115.7510  402.0550 ss        1 BAT      0.994000
     31 H1        -39.9320  118.5610  398.6310 ha        1 BAT      0.197000
     32 H31       -40.2800  115.5750  397.8100 h1        1 BAT      0.132500
     33 H32       -38.9550  116.2980  398.8170 h1        1 BAT      0.132500
     34 H5        -39.5250  114.1500  400.2130 h2        1 BAT      0.207000
     35 H6        -42.1880  114.1440  401.8510 ha        1 BAT      0.220000
     36 H7        -37.6860  116.0160  403.2310 h4        1 BAT      0.211000
     37 H8        -34.8930  116.0010  398.6250 hc        1 BAT      0.117333
     38 H91       -35.8460  115.3110  397.2400 hc        1 BAT      0.117333
     39 H92       -36.6060  116.5420  398.3420 hc        1 BAT      0.117333
     40 H10      -537.0280  171.6640 -462.5810 hx        1 BAT      0.189000
     41 H111     -539.4760  169.8140 -461.7020 hc        1 BAT      0.159500
     42 H112     -538.1280  168.8610 -463.6500 hc        1 BAT      0.147000
     43 H113     -539.5840  171.4450 -462.5330 hc        1 BAT      0.159500
     44 H121     -538.3020  171.7580 -464.7790 hc        1 BAT      0.113000
     45 H122     -539.1040  170.2900 -465.4780 hc        1 BAT      0.113000
     46 H123     -537.2940  170.4090 -465.4610 hc        1 BAT      0.113000
     47 H14       -34.9830  113.2110  398.6520 hn        1 BAT      0.243000
     48 H161      498.3170 -314.7570 -230.8770 hx        1 BAT      0.150333
     49 H162      499.3930 -315.4190 -229.5440 hx        1 BAT      0.150333
     50 H163      498.9400 -313.6360 -229.5690 hx        1 BAT      0.150333
     51 H171      496.8080 -311.3300 -227.2430 hc        1 BAT      0.227500
     52 H172      495.2940 -311.1180 -228.1650 hc        1 BAT      0.227500
     53 H19       -32.0660  112.9480  398.6300 ha        1 BAT      0.227000
     54 H20       494.1320 -312.3470 -226.5010 ha        1 BAT      0.171000
     55 H21       -34.0820  111.7490  396.2810 ha        1 BAT      0.227000
     56 H22       499.1970 -314.6890 -225.5610 ha        1 BAT      0.248000
     57 H23       495.0940 -313.9820 -224.9620 ha        1 BAT      0.181000
     58 HN1      -537.0050  168.9010 -461.3970 hn        1 BAT      0.275500
     59 HN2       -36.0990  112.6520  399.8130 hn        1 BAT      0.243000
     60 HN3       497.0460 -315.9180 -229.1930 hn        1 BAT      0.256500
     61 HO2      -536.6510  171.3330 -460.2390 ho        1 BAT      0.278000
     62 N3        497.3850 -314.9710 -228.9710 n4        1 BAT     -0.105000
     63 H12      -535.6670  169.8260 -461.8660 hn        1 BAT      0.275500
     64 H221      -37.6940  114.4550  402.3230 h4        1 BAT      0.211000
     65 H321      497.6160 -314.9290 -227.9690 hn        1 BAT      0.256500
     66 O4        495.4300 -314.3810 -230.0970 o         1 BAT     -0.211000
@<TRIPOS>BOND
     1    1    2 1   
     2    1    3 1   
     3    1   31 1   
     4    2   26 1   
     5    3   29 1   
     6    3   32 1   
     7    3   33 1   
     8    4    5 1   
     9    4   29 1   
    10    4   30 1   
    11    4   34 1   
    12    5    6 1   
    13    5   35 1   
    14    7   30 1   
    15    7   36 1   
    16    7   64 1   
    17    8   13 1   
    18    8   37 1   
    19    8   38 1   
    20    8   39 1   
    21    9   10 1   
    22    9   11 1   
    23    9   24 1   
    24    9   40 1   
    25   10   11 1   
    26   10   12 1   
    27   10   42 1   
    28   11   41 1   
    29   11   43 1   
    30   12   44 1   
    31   12   45 1   
    32   12   46 1   
    33   13   25 1   
    34   13   28 1   
    35   14   15 1   
    36   14   17 1   
    37   15   62 1   
    38   15   66 1   
    39   16   48 1   
    40   16   49 1   
    41   16   50 1   
    42   16   62 1   
    43   17   18 1   
    44   17   51 1   
    45   17   52 1   
    46   18   23 1   
    47   18   54 1   
    48   19   20 1   
    49   19   53 1   
    50   20   55 1   
    51   21   22 1   
    52   21   56 1   
    53   22   23 1   
    54   23   57 1   
    55   24   27 1   
    56   24   58 1   
    57   24   63 1   
    58   25   47 1   
    59   25   59 1   
    60   27   61 1   
    61   60   62 1   
    62   62   65 1   
@<TRIPOS>SUBSTRUCTURE
     1 BAT         1 TEMP              0 ****  ****    0 ROOT
