@<TRIPOS>MOLECULE
BAT
   63    58     1     0     0
SMALL
bcc


@<TRIPOS>ATOM
      1 C1         -0.3970    2.4740   -0.1550 c3        1 BAT     -0.116000
      2 C2         -1.8580    2.3640    0.0950 c2        1 BAT      0.244000
      3 C3          0.3390    2.6070    1.1740 c3        1 BAT     -0.317000
      4 C4          1.1540    4.9270    2.7150 c1        1 BAT     -0.528000
      5 C5          1.2270    6.3710    2.9700 c1        1 BAT     -0.137500
      6 C6          2.5910    6.6770    3.7510 c1        1 BAT     -0.137500
      7 C7          3.3040    5.4140    3.9460 c1        1 BAT     -0.528000
      8 C8          0.1000    1.2050   -0.9030 c3        1 BAT     -0.114000
      9 C9          1.5980    1.2770   -1.0830 c3        1 BAT     -0.152000
     10 C10         1.9340    2.0170   -2.4220 c3        1 BAT     -0.108000
     11 C11         3.0940    2.9620   -2.1940 c3        1 BAT     -0.212000
     12 C12         2.3250    0.9650   -3.5260 c3        1 BAT     -0.212000
     13 C13        -0.2570   -0.0370   -0.0940 c2        1 BAT      0.307000
     14 C14        -0.8860   -2.4850   -0.3400 c3        1 BAT      0.015000
     15 C15         0.4230   -2.9600   -0.9140 c2        1 BAT      0.285000
     16 C16         2.2370   -4.6680   -0.8330 c3        1 BAT     -0.077000
     17 C17        -2.0320   -3.3450   -0.8940 c3        1 BAT     -0.127000
     18 C18        -2.5560   -4.2580    0.1990 c2        1 BAT     -0.085000
     19 C19        -1.7160   -5.2020    0.7650 c2        1 BAT     -0.114000
     20 C20        -2.2300   -6.1740    1.5950 c1        1 BAT     -0.132000
     21 C21        -3.6030   -6.2070    1.8670 c1        1 BAT     -0.130500
     22 C22        -4.4350   -5.2760    1.3100 c1        1 BAT     -0.130500
     23 C23        -3.9160   -4.2930    0.4700 c1        1 BAT     -0.127000
     24 N1         -2.7510    3.2360   -0.5630 n         1 BAT     -0.203000
     25 N2         -1.0990   -1.1070   -0.7030 n         1 BAT     -0.372000
     26 N3          1.2590   -3.8640   -0.1570 n         1 BAT     -0.377000
     27 O1         -2.2670    1.6190    0.9480 o         1 BAT     -0.348000
     28 O2         -4.0260    3.3910   -0.0910 oh        1 BAT     -0.233000
     29 O3          0.0990   -0.1300    1.0700 o         1 BAT     -0.399000
     30 O4          0.7840   -2.5690   -2.0040 o         1 BAT     -0.383000
     31 S1         -0.2340    4.0580    2.0260 s         1 BAT      0.262000
     32 S2          2.4440    4.2710    3.3110 ss        1 BAT      0.653000
     33 H1         -0.2160    3.2860   -0.7170 hc        1 BAT      0.129000
     34 H31         0.1660    1.8170    1.7230 h1        1 BAT      0.143500
     35 H32         1.2820    2.6830    1.0120 h1        1 BAT      0.143500
     36 H5          0.5720    7.0190    2.7150 DU        1 BAT      0.162000
     37 H6          2.8910    7.5420    4.0420 DU        1 BAT      0.162000
     38 H7          4.1590    5.3050    4.3910 DU        1 BAT      0.162000
     39 H8         -0.3280    1.1560   -1.7760 hc        1 BAT      0.136000
     40 H91         1.9680    0.3700   -1.1100 hc        1 BAT      0.102000
     41 H92         1.9960    1.7720   -0.3280 hc        1 BAT      0.102000
     42 H10         1.1560    2.5220   -2.7160 hc        1 BAT      0.079000
     43 H111        2.8030    3.7040   -1.6130 hc        1 BAT      0.076833
     44 H112        3.3990    3.3220   -3.0560 hc        1 BAT      0.076833
     45 H113        3.8250    2.4810   -1.7670 hc        1 BAT      0.076833
     46 H121        1.5300    0.4410   -3.7770 hc        1 BAT      0.076833
     47 H122        3.0140    0.3640   -3.1750 hc        1 BAT      0.076833
     48 H123        2.6760    1.4390   -4.3270 hc        1 BAT      0.076833
     49 H14        -0.8630   -2.5640    0.6290 h1        1 BAT      0.130000
     50 H161        2.5310   -5.3960   -0.2380 h1        1 BAT      0.081667
     51 H162        3.0060   -4.1120   -1.0740 h1        1 BAT      0.081667
     52 H163        1.8420   -5.0490   -1.6430 h1        1 BAT      0.081667
     53 H171       -1.7000   -3.8920   -1.6490 hc        1 BAT      0.110500
     54 H172       -2.7430   -2.7720   -1.2010 hc        1 BAT      0.110500
     55 H19        -0.7290   -5.1780    0.5700 ha        1 BAT      0.159000
     56 H20        -1.6370   -6.8390    1.9930 ha        1 BAT      0.133000
     57 H21        -3.9720   -6.9070    2.4650 ha        1 BAT      0.130000
     58 H22        -5.4270   -5.3020    1.5070 ha        1 BAT      0.130000
     59 H23        -4.5190   -3.6170    0.0660 ha        1 BAT      0.128000
     60 HN1        -2.4620    3.7330   -1.2890 hn        1 BAT      0.239000
     61 HN2        -1.7140   -0.8940   -1.3470 hn        1 BAT      0.257000
     62 HN3         1.2220   -3.8630    0.7590 hn        1 BAT      0.251000
     63 HO2        -4.3760    4.1680   -0.4100 ho        1 BAT      0.232000
@<TRIPOS>BOND
     1    1    2 1   
     2    1    3 1   
     3    1    8 1   
     4    1   33 1   
     5    2   24 1   
     6    2   27 1   
     7    3   31 1   
     8    3   34 1   
     9    3   35 1   
    10    4    5 1   
    11    4   32 1   
    12    5    6 1   
    13    6    7 1   
    14    7   32 1   
    15    8    9 1   
    16    8   13 1   
    17    8   39 1   
    18    9   10 1   
    19    9   40 1   
    20    9   41 1   
    21   10   11 1   
    22   10   12 1   
    23   10   42 1   
    24   11   43 1   
    25   11   44 1   
    26   11   45 1   
    27   12   46 1   
    28   12   47 1   
    29   12   48 1   
    30   13   25 1   
    31   13   29 1   
    32   14   15 1   
    33   14   17 1   
    34   14   25 1   
    35   14   49 1   
    36   15   26 1   
    37   15   30 1   
    38   16   26 1   
    39   16   50 1   
    40   16   51 1   
    41   16   52 1   
    42   17   18 1   
    43   17   53 1   
    44   17   54 1   
    45   18   19 1   
    46   18   23 1   
    47   19   20 1   
    48   19   55 1   
    49   20   56 1   
    50   21   22 1   
    51   21   57 1   
    52   22   58 1   
    53   23   59 1   
    54   24   28 1   
    55   24   60 1   
    56   25   61 1   
    57   26   62 1   
    58   28   63 1   
@<TRIPOS>SUBSTRUCTURE
     1 BAT         1 TEMP              0 ****  ****    0 ROOT
