@<TRIPOS>MOLECULE
BAT
   63    64     1     0     0
SMALL
bcc


@<TRIPOS>ATOM
      1 C1          1.5050    0.8940    0.1920 c3        1 BAT     -0.115700
      2 C2          2.9020    0.3800   -0.1440 c         1 BAT      0.605100
      3 C3          0.6610    0.9330   -1.0700 c3        1 BAT     -0.047300
      4 C4          1.4430    1.6880   -3.5620 cc        1 BAT     -0.089200
      5 C5          2.2360    0.5960   -3.8820 cd        1 BAT     -0.130000
      6 C6          2.3400    0.4040   -5.2910 cd        1 BAT     -0.159000
      7 C7          1.6360    1.3660   -5.9870 cc        1 BAT     -0.172100
      8 C8          0.8740   -0.0370    1.2360 c3        1 BAT     -0.125700
      9 C9          1.7090   -0.1600    2.5070 c3        1 BAT     -0.080400
     10 C10         2.6160   -1.3850    2.5030 c3        1 BAT     -0.079700
     11 C11         3.7690   -1.1780    3.4640 c3        1 BAT     -0.090100
     12 C12         1.8420   -2.6340    2.8720 c3        1 BAT     -0.090100
     13 C13        -0.4950    0.5230    1.6310 c         1 BAT      0.663100
     14 C14        -2.8680    0.0280    2.1090 c3        1 BAT      0.040700
     15 C15        -3.1040    0.2710    3.6250 c         1 BAT      0.639100
     16 C16        -2.6040    1.7160    5.5510 c3        1 BAT      0.077300
     17 C17        -3.9070   -1.0000    1.6300 c3        1 BAT     -0.045100
     18 C18        -3.7710   -1.2960    0.1790 ca        1 BAT     -0.090300
     19 C19        -3.1810   -2.4920   -0.2460 ca        1 BAT     -0.129000
     20 C20        -3.0630   -2.7720   -1.6070 ca        1 BAT     -0.126000
     21 C21        -3.5320   -1.8610   -2.5530 ca        1 BAT     -0.127000
     22 C22        -4.1230   -0.6680   -2.1340 ca        1 BAT     -0.126000
     23 C23        -4.2440   -0.3870   -0.7750 ca        1 BAT     -0.129000
     24 N1          4.0100    1.1540    0.3120 n         1 BAT     -0.343400
     25 N2         -1.5120   -0.3820    1.8430 n         1 BAT     -0.555900
     26 O1          3.0880   -0.6040   -0.8800 o         1 BAT     -0.574100
     27 O2          5.1730    0.5010    0.3430 oh        1 BAT     -0.437100
     28 O3         -0.6790    1.7480    1.8020 o         1 BAT     -0.628100
     29 O4         -3.8490   -0.4790    4.2860 o         1 BAT     -0.617100
     30 S1          1.0820    2.3320   -2.0690 ss        1 BAT     -0.123000
     31 S2          0.8610    2.4170   -4.9630 ss        1 BAT      0.061200
     32 H1          1.5490    1.9340    0.6270 hc        1 BAT      0.103700
     33 H31         0.7750   -0.0210   -1.6420 h1        1 BAT      0.092700
     34 H32        -0.4160    1.0490   -0.7870 h1        1 BAT      0.092700
     35 H5          2.7290   -0.0510   -3.1490 ha        1 BAT      0.173000
     36 H6          2.9200   -0.4040   -5.7420 ha        1 BAT      0.154000
     37 H7          1.5890    1.4460   -7.0720 h4        1 BAT      0.171000
     38 H8          0.7630   -1.0540    0.7610 hc        1 BAT      0.083700
     39 H91         2.3240    0.7690    2.6380 hc        1 BAT      0.054200
     40 H92         1.0320   -0.2200    3.4010 hc        1 BAT      0.054200
     41 H10         3.0410   -1.5230    1.4670 hc        1 BAT      0.063700
     42 H111        4.3960   -2.1000    3.5160 hc        1 BAT      0.037033
     43 H112        4.4140   -0.3330    3.1190 hc        1 BAT      0.037033
     44 H113        3.3920   -0.9460    4.4890 hc        1 BAT      0.037033
     45 H121        1.4670   -2.5700    3.9220 hc        1 BAT      0.037033
     46 H122        0.9670   -2.7690    2.1920 hc        1 BAT      0.037033
     47 H123        2.4990   -3.5320    2.7850 hc        1 BAT      0.037033
     48 H14        -3.0570    1.0080    1.5690 h1        1 BAT      0.085700
     49 H161       -1.5990    1.7120    6.0540 h1        1 BAT      0.043700
     50 H162       -3.0400    2.7490    5.6330 h1        1 BAT      0.043700
     51 H163       -3.2800    0.9930    6.0810 h1        1 BAT      0.043700
     52 H171       -3.8140   -1.9390    2.2400 hc        1 BAT      0.079200
     53 H172       -4.9230   -0.5720    1.8460 hc        1 BAT      0.079200
     54 H19        -2.8190   -3.2180    0.4970 ha        1 BAT      0.131500
     55 H20        -2.6000   -3.7150   -1.9330 ha        1 BAT      0.134500
     56 H21        -3.4380   -2.0830   -3.6260 ha        1 BAT      0.135000
     57 H22        -4.4960    0.0510   -2.8780 ha        1 BAT      0.134500
     58 H23        -4.7130    0.5530   -0.4470 ha        1 BAT      0.131500
     59 HN1         3.8570    1.5620    1.2280 hn        1 BAT      0.301500
     60 HN2        -1.3570   -1.3480    1.6700 hn        1 BAT      0.324500
     61 HN3        -1.8840    1.9200    3.6020 hn        1 BAT      0.338500
     62 HO2         5.4740    0.4520   -0.5870 ho        1 BAT      0.437000
     63 N3         -2.4640    1.3510    4.1780 n         1 BAT     -0.566900
@<TRIPOS>BOND
     1    1    2 1   
     2    1    3 1   
     3    1    8 1   
     4    1   32 1   
     5    2   24 1   
     6    2   26 2   
     7    3   30 1   
     8    3   33 1   
     9    3   34 1   
    10    4    5 2   
    11    4   30 1   
    12    4   31 1   
    13    5    6 1   
    14    5   35 1   
    15    6    7 2   
    16    6   36 1   
    17    7   31 1   
    18    7   37 1   
    19    8    9 1   
    20    8   13 1   
    21    8   38 1   
    22    9   10 1   
    23    9   39 1   
    24    9   40 1   
    25   10   11 1   
    26   10   12 1   
    27   10   41 1   
    28   11   42 1   
    29   11   43 1   
    30   11   44 1   
    31   12   45 1   
    32   12   46 1   
    33   12   47 1   
    34   13   25 1   
    35   13   28 2   
    36   14   15 1   
    37   14   17 1   
    38   14   25 1   
    39   14   48 1   
    40   15   29 2   
    41   15   63 1   
    42   16   49 1   
    43   16   50 1   
    44   16   51 1   
    45   16   63 1   
    46   17   18 1   
    47   17   52 1   
    48   17   53 1   
    49   18   19 ar  
    50   18   23 ar  
    51   19   20 ar  
    52   19   54 1   
    53   20   21 ar  
    54   20   55 1   
    55   21   22 ar  
    56   21   56 1   
    57   22   23 ar  
    58   22   57 1   
    59   23   58 1   
    60   24   27 1   
    61   24   59 1   
    62   25   60 1   
    63   27   62 1   
    64   61   63 1   
@<TRIPOS>SUBSTRUCTURE
     1 BAT         1 TEMP              0 ****  ****    0 ROOT
