@<TRIPOS>MOLECULE
BAU
   36    37     1     0     0
SMALL
bcc


@<TRIPOS>ATOM
      1 OAC        -0.0570    0.3080   -0.0930 oh        1 BAU     -0.593800
      2 CAJ         1.3510    0.2310   -0.0620 c3        1 BAU      0.135400
      3 CAK         1.8830    0.2510    1.3690 c3        1 BAU      0.072400
      4 OAO         1.4720   -0.9830    1.9560 os        1 BAU     -0.425600
      5 CAM         2.0000   -1.2400    3.2470 c3        1 BAU      0.294800
      6 NAT         1.3880   -0.4590    4.3080 n         1 BAU     -0.401000
      7 CAS         0.2170   -0.9620    4.9440 c         1 BAU      0.809500
      8 OAB        -0.1860   -2.1240    4.7270 o         1 BAU     -0.630500
      9 NAN        -0.4530   -0.1330    5.8550 ns        1 BAU     -0.583500
     10 CAR        -0.0440    1.1790    6.1480 c         1 BAU      0.719700
     11 OAA        -0.7140    1.8450    6.9560 o         1 BAU     -0.611500
     12 CAI         1.8020    0.8390    4.5680 cc        1 BAU      0.038600
     13 CAQ         1.1700    1.6550    5.4560 cd        1 BAU     -0.242400
     14 CAL         1.6580    3.0240    5.7690 c3        1 BAU      0.025100
     15 CG          1.1480    4.0480    4.8110 ca        1 BAU     -0.088300
     16 CD2        -0.1970    4.4340    4.8540 ca        1 BAU     -0.125500
     17 CE2        -0.6760    5.4030    3.9750 ca        1 BAU     -0.128500
     18 CZ          0.1840    5.9970    3.0500 ca        1 BAU     -0.127000
     19 CE1         1.5260    5.6190    3.0080 ca        1 BAU     -0.128500
     20 CD1         2.0080    4.6480    3.8850 ca        1 BAU     -0.125500
     21 HAC        -0.3950   -0.4490    0.4040 ho        1 BAU      0.416000
     22 HAJ1        1.7070    1.1450   -0.6080 h1        1 BAU      0.056200
     23 HAJ2        1.7030   -0.6960   -0.5880 h1        1 BAU      0.056200
     24 HAK1        1.4400    1.1080    1.9420 h1        1 BAU      0.042700
     25 HAK2        3.0010    0.3260    1.3730 h1        1 BAU      0.042700
     26 HAM1        1.7580   -2.3330    3.4150 h2        1 BAU      0.089700
     27 HAM2        3.1100   -1.0430    3.2650 h2        1 BAU      0.089700
     28 HAN        -1.2700   -0.5050    6.2920 hn        1 BAU      0.354500
     29 HAI         2.7040    1.1680    4.0170 h4        1 BAU      0.161000
     30 HAL1        2.7820    3.0260    5.7690 hc        1 BAU      0.067200
     31 HAL2        1.3190    3.2980    6.8080 hc        1 BAU      0.067200
     32 HD2        -0.8700    3.9630    5.5900 ha        1 BAU      0.138000
     33 HE2        -1.7340    5.7010    4.0120 ha        1 BAU      0.132500
     34 HZ         -0.1950    6.7610    2.3570 ha        1 BAU      0.132000
     35 HE1         2.2070    6.0890    2.2830 ha        1 BAU      0.132500
     36 HD1         3.0690    4.3600    3.8520 ha        1 BAU      0.138000
@<TRIPOS>BOND
     1    1    2 1   
     2    1   21 1   
     3    2    3 1   
     4    2   22 1   
     5    2   23 1   
     6    3    4 1   
     7    3   24 1   
     8    3   25 1   
     9    4    5 1   
    10    5    6 1   
    11    5   26 1   
    12    5   27 1   
    13    6    7 1   
    14    6   12 1   
    15    7    8 2   
    16    7    9 1   
    17    9   10 1   
    18    9   28 1   
    19   10   11 2   
    20   10   13 1   
    21   12   13 2   
    22   12   29 1   
    23   13   14 1   
    24   14   15 1   
    25   14   30 1   
    26   14   31 1   
    27   15   16 ar  
    28   15   20 ar  
    29   16   17 ar  
    30   16   32 1   
    31   17   18 ar  
    32   17   33 1   
    33   18   19 ar  
    34   18   34 1   
    35   19   20 ar  
    36   19   35 1   
    37   20   36 1   
@<TRIPOS>SUBSTRUCTURE
     1 BAU         1 TEMP              0 ****  ****    0 ROOT
