@<TRIPOS>MOLECULE
BAU
   36    37     1     0     0
SMALL
bcc


@<TRIPOS>ATOM
      1 OAC        -0.0410    0.3060   -0.0970 oh        1 BAU     -0.593800
      2 CAJ         1.3670    0.2340   -0.0610 c3        1 BAU      0.135400
      3 CAK         1.8950    0.2550    1.3720 c3        1 BAU      0.072400
      4 OAO         1.4860   -0.9810    1.9560 os        1 BAU     -0.425600
      5 CAM         2.0110   -1.2370    3.2490 c3        1 BAU      0.294800
      6 NAT         1.3920   -0.4580    4.3080 n         1 BAU     -0.401000
      7 CAS         0.2210   -0.9650    4.9400 c         1 BAU      0.809500
      8 OAB        -0.1770   -2.1280    4.7210 o         1 BAU     -0.630500
      9 NAN        -0.4550   -0.1380    5.8490 n         1 BAU     -0.583500
     10 CAR        -0.0510    1.1750    6.1440 c         1 BAU      0.719700
     11 OAA        -0.7260    1.8380    6.9500 o         1 BAU     -0.611500
     12 CAI         1.8010    0.8410    4.5700 cc        1 BAU      0.038600
     13 CAQ         1.1640    1.6550    5.4560 cd        1 BAU     -0.242400
     14 CAL         1.6470    3.0250    5.7720 c3        1 BAU      0.025100
     15 CG          1.1370    4.0480    4.8130 ca        1 BAU     -0.088300
     16 CD2        -0.2100    4.4300    4.8500 ca        1 BAU     -0.125500
     17 CE2        -0.6880    5.3980    3.9690 ca        1 BAU     -0.128500
     18 CZ          0.1740    5.9940    3.0480 ca        1 BAU     -0.127000
     19 CE1         1.5170    5.6210    3.0110 ca        1 BAU     -0.128500
     20 CD1         1.9990    4.6510    3.8900 ca        1 BAU     -0.125500
     21 HAC        -0.3770   -0.4520    0.3990 ho        1 BAU      0.416000
     22 HAJ1        1.7220    1.1490   -0.6060 h1        1 BAU      0.056200
     23 HAJ2        1.7240   -0.6920   -0.5860 h1        1 BAU      0.056200
     24 HAK1        1.4470    1.1100    1.9430 h1        1 BAU      0.042700
     25 HAK2        3.0130    0.3330    1.3790 h1        1 BAU      0.042700
     26 HAM1        1.7720   -2.3310    3.4160 h2        1 BAU      0.089700
     27 HAM2        3.1200   -1.0360    3.2710 h2        1 BAU      0.089700
     28 HAN        -1.2720   -0.5130    6.2830 hn        1 BAU      0.354500
     29 HAI         2.7050    1.1730    4.0220 h4        1 BAU      0.161000
     30 HAL1        2.7710    3.0310    5.7760 hc        1 BAU      0.067700
     31 HAL2        1.3020    3.2980    6.8100 hc        1 BAU      0.067700
     32 HD2        -0.8840    3.9560    5.5830 ha        1 BAU      0.138000
     33 HE2        -1.7470    5.6920    4.0030 ha        1 BAU      0.132500
     34 HZ         -0.2050    6.7580    2.3540 ha        1 BAU      0.132000
     35 HE1         2.1990    6.0930    2.2890 ha        1 BAU      0.132500
     36 HD1         3.0610    4.3670    3.8610 ha        1 BAU      0.138000
@<TRIPOS>BOND
     1    1    2 1   
     2    1   21 1   
     3    2    3 1   
     4    2   22 1   
     5    2   23 1   
     6    3    4 1   
     7    3   24 1   
     8    3   25 1   
     9    4    5 1   
    10    5    6 1   
    11    5   26 1   
    12    5   27 1   
    13    6    7 1   
    14    6   12 1   
    15    7    8 2   
    16    7    9 1   
    17    9   10 1   
    18    9   28 1   
    19   10   11 2   
    20   10   13 1   
    21   12   13 2   
    22   12   29 1   
    23   13   14 1   
    24   14   15 1   
    25   14   30 1   
    26   14   31 1   
    27   15   16 ar  
    28   15   20 ar  
    29   16   17 ar  
    30   16   32 1   
    31   17   18 ar  
    32   17   33 1   
    33   18   19 ar  
    34   18   34 1   
    35   19   20 ar  
    36   19   35 1   
    37   20   36 1   
@<TRIPOS>SUBSTRUCTURE
     1 BAU         1 TEMP              0 ****  ****    0 ROOT
