@<TRIPOS>MOLECULE
BAU
   36    37     1     0     0
SMALL
bcc


@<TRIPOS>ATOM
      1 OAC         2.4920   -2.9970    1.6520 oh        1 BAU     -0.593800
      2 CAJ         2.6990   -3.1970    0.2710 c3        1 BAU      0.135400
      3 CAK         2.2230   -1.9990   -0.5470 c3        1 BAU      0.072400
      4 OAO         3.1150   -0.9310   -0.2320 os        1 BAU     -0.425600
      5 CAM         2.9470    0.2430   -1.0100 c3        1 BAU      0.294800
      6 NAT         1.7790    1.0300   -0.6550 n         1 BAU     -0.401000
      7 CAS         1.8960    2.0100    0.3720 c         1 BAU      0.809500
      8 OAB         3.0100    2.3170    0.8450 o         1 BAU     -0.630500
      9 NAN         0.7310    2.6540    0.8120 n         1 BAU     -0.583500
     10 CAR        -0.5490    2.3580    0.3130 c         1 BAU      0.719700
     11 OAA        -1.5250    2.9680    0.7800 o         1 BAU     -0.611500
     12 CAI         0.5240    0.7080   -1.1520 cc        1 BAU      0.038600
     13 CAQ        -0.6170    1.3290   -0.7430 cd        1 BAU     -0.242400
     14 CAL        -1.9480    1.0160   -1.3260 c3        1 BAU      0.025100
     15 CG         -2.6090   -0.1430   -0.6580 ca        1 BAU     -0.088300
     16 CD2        -3.1220   -0.0020    0.6370 ca        1 BAU     -0.125500
     17 CE2        -3.7560   -1.0750    1.2600 ca        1 BAU     -0.128500
     18 CZ         -3.8860   -2.2950    0.5940 ca        1 BAU     -0.127000
     19 CE1        -3.3810   -2.4380   -0.6980 ca        1 BAU     -0.128500
     20 CD1        -2.7440   -1.3660   -1.3230 ca        1 BAU     -0.125500
     21 HAC         2.9810   -2.2010    1.9000 ho        1 BAU      0.416000
     22 HAJ1        3.7840   -3.3950    0.0630 h1        1 BAU      0.056200
     23 HAJ2        2.0840   -4.0990    0.0110 h1        1 BAU      0.056200
     24 HAK1        2.2690   -2.2280   -1.6440 h1        1 BAU      0.042700
     25 HAK2        1.1770   -1.7160   -0.2590 h1        1 BAU      0.042700
     26 HAM1        3.8760    0.8460   -0.7770 h2        1 BAU      0.089700
     27 HAM2        2.8730   -0.0170   -2.1050 h2        1 BAU      0.089700
     28 HAN         0.8350    3.3390    1.5310 hn        1 BAU      0.354500
     29 HAI         0.5100   -0.0800   -1.9290 h4        1 BAU      0.161000
     30 HAL1       -2.6100    1.9220   -1.2180 hc        1 BAU      0.067700
     31 HAL2       -1.8340    0.8100   -2.4250 hc        1 BAU      0.067700
     32 HD2        -3.0180    0.9650    1.1560 ha        1 BAU      0.138000
     33 HE2        -4.1550   -0.9590    2.2780 ha        1 BAU      0.132500
     34 HZ         -4.3870   -3.1410    1.0860 ha        1 BAU      0.132000
     35 HE1        -3.4870   -3.3960   -1.2270 ha        1 BAU      0.132500
     36 HD1        -2.3550   -1.4830   -2.3450 ha        1 BAU      0.138000
@<TRIPOS>BOND
     1    1    2 1   
     2    1   21 1   
     3    2    3 1   
     4    2   22 1   
     5    2   23 1   
     6    3    4 1   
     7    3   24 1   
     8    3   25 1   
     9    4    5 1   
    10    5    6 1   
    11    5   26 1   
    12    5   27 1   
    13    6    7 1   
    14    6   12 1   
    15    7    8 2   
    16    7    9 1   
    17    9   10 1   
    18    9   28 1   
    19   10   11 2   
    20   10   13 1   
    21   12   13 2   
    22   12   29 1   
    23   13   14 1   
    24   14   15 1   
    25   14   30 1   
    26   14   31 1   
    27   15   16 ar  
    28   15   20 ar  
    29   16   17 ar  
    30   16   32 1   
    31   17   18 ar  
    32   17   33 1   
    33   18   19 ar  
    34   18   34 1   
    35   19   20 ar  
    36   19   35 1   
    37   20   36 1   
@<TRIPOS>SUBSTRUCTURE
     1 BAU         1 TEMP              0 ****  ****    0 ROOT
