@<TRIPOS>MOLECULE
BAU
   36    33     1     0     0
SMALL
bcc


@<TRIPOS>ATOM
      1 OAC        -1.4900    6.5550    1.8990 oh        1 BAU     -0.330000
      2 CAJ        -0.6530    5.5470    1.3030 c3        1 BAU     -0.042000
      3 CAK        -1.2720    4.1540    1.5360 c3        1 BAU     -0.066000
      4 OAO        -0.8240    3.2710    0.5350 os        1 BAU     -0.281000
      5 CAM        -1.6020    2.0760    0.4270 c3        1 BAU      0.105000
      6 NAT        -0.8970    1.1110   -0.3800 n3        1 BAU     -0.292000
      7 CAS        -0.1290    1.5280   -1.4180 c1        1 BAU      0.399000
      8 OAB        -0.0080    2.7060   -1.6410 o         1 BAU     -0.394000
      9 NAN         0.4680    0.5980   -2.2570 n2        1 BAU     -0.360000
     10 CAR         0.2840   -0.7380   -2.0370 c1        1 BAU      0.359000
     11 OAA         0.7690   -1.5510   -2.8000 o         1 BAU     -0.333000
     12 CAI        -1.0810   -0.2200   -0.1610 c2        1 BAU      0.050000
     13 CAQ        -0.4830   -1.1540   -1.0010 c1        1 BAU     -0.225000
     14 CAL        -0.7780   -2.6610   -0.8130 c3        1 BAU     -0.063000
     15 CG          0.5210   -3.3950   -0.3390 c2        1 BAU     -0.081000
     16 CD2         1.1400   -4.3270   -1.1760 c2        1 BAU     -0.119000
     17 CE2         2.2510   -5.0410   -0.7260 c1        1 BAU     -0.128000
     18 CZ          2.7460   -4.8250    0.5630 c1        1 BAU     -0.129500
     19 CE1         2.1290   -3.8970    1.3990 c1        1 BAU     -0.129500
     20 CD1         1.0130   -3.1790    0.9460 c1        1 BAU     -0.129000
     21 HAC        -1.1740    7.3720    1.6860 ho        1 BAU      0.217000
     22 HAJ1       -0.5780    5.7120    0.3460 h1        1 BAU      0.091000
     23 HAJ2        0.2470    5.5800    1.7160 h1        1 BAU      0.091000
     24 HAK1       -2.2470    4.2210    1.4990 h1        1 BAU      0.105000
     25 HAK2       -1.0050    3.8240    2.4020 h1        1 BAU      0.105000
     26 HAM1       -2.4570    2.2830    0.0130 h2        1 BAU      0.126000
     27 HAM2       -1.7510    1.7080    1.3100 h2        1 BAU      0.126000
     28 HAN         0.9780    0.8750   -2.9440 hn        1 BAU      0.269000
     29 HAI        -1.6530   -0.5290    0.6110 h4        1 BAU      0.171000
     30 HAL1       -1.0750   -3.0420   -1.6620 hc        1 BAU      0.106000
     31 HAL2       -1.4680   -2.7710   -0.1530 hc        1 BAU      0.106000
     32 HD2         0.7840   -4.4820   -2.1040 ha        1 BAU      0.153000
     33 HE2         2.6870   -5.6980   -1.3180 ha        1 BAU      0.134000
     34 HZ          3.5500   -5.3430    0.8890 ha        1 BAU      0.131000
     35 HE1         2.4800   -3.7430    2.3150 ha        1 BAU      0.131000
     36 HD1         0.5770   -2.5230    1.5350 ha        1 BAU      0.125000
@<TRIPOS>BOND
     1    1    2 1   
     2    1   21 1   
     3    2    3 1   
     4    2   22 1   
     5    2   23 1   
     6    3    4 1   
     7    3   24 1   
     8    3   25 1   
     9    4    5 1   
    10    5    6 1   
    11    5   26 1   
    12    5   27 1   
    13    6    7 1   
    14    6   12 1   
    15    7    8 1   
    16    9   10 1   
    17    9   28 1   
    18   10   11 1   
    19   12   13 1   
    20   12   29 1   
    21   13   14 1   
    22   14   15 1   
    23   14   30 1   
    24   14   31 1   
    25   15   16 1   
    26   15   20 1   
    27   16   17 1   
    28   16   32 1   
    29   17   33 1   
    30   18   19 1   
    31   18   34 1   
    32   19   35 1   
    33   20   36 1   
@<TRIPOS>SUBSTRUCTURE
     1 BAU         1 TEMP              0 ****  ****    0 ROOT
