@<TRIPOS>MOLECULE
BAV
   87    88     1     0     0
SMALL
bcc


@<TRIPOS>ATOM
      1 N1         -0.5320    0.3590   -0.4850 n4        1 BAV     -0.620200
      2 C2          0.7500   -0.2340    0.0440 c3        1 BAV      0.072500
      3 C4          0.7540   -0.3200    1.5920 c         1 BAV      0.520100
      4 N5          1.5980    0.6400    2.3550 n4        1 BAV     -0.672800
      5 C7          1.7510    0.5740    3.8750 c3        1 BAV      0.121500
      6 C9          1.0770    1.7810    4.5440 c3        1 BAV     -0.110400
      7 C12        -0.4380    1.8530    4.6840 c3        1 BAV     -0.070700
      8 C14        -0.7970    3.2690    5.1460 c3        1 BAV     -0.079400
      9 C17        -2.2470    3.4160    5.5740 c3        1 BAV     -0.082400
     10 C20        -3.0030    4.5070    4.8380 c3        1 BAV     -0.086400
     11 C23        -3.6440    4.0690    3.5340 c3        1 BAV     -0.083400
     12 C26        -2.7690    4.3400    2.3250 c3        1 BAV     -0.083400
     13 C29        -3.1220    3.4310    1.1640 c3        1 BAV     -0.086400
     14 C32        -2.3140    3.7700   -0.0740 c3        1 BAV     -0.095400
     15 C35        -1.8990    2.5370   -0.8620 c3        1 BAV     -0.142400
     16 C38        -0.7150    1.8730   -0.2230 c         1 BAV      0.600100
     17 O39         0.1470    2.3570    0.4950 o         1 BAV     -0.490100
     18 C40        -1.1810    1.5170    3.4160 c3        1 BAV     -0.118100
     19 C44         1.4680   -0.7970    4.5480 c3        1 BAV      0.133100
     20 O46         0.1410   -0.9320    4.9910 oh        1 BAV     -0.583800
     21 C48         2.3520   -0.8820    5.8270 c3        1 BAV      0.096800
     22 N51         2.0040   -2.0190    6.7130 n4        1 BAV     -0.771000
     23 C53         2.7940   -1.9940    8.0130 c3        1 BAV      0.197100
     24 C56         2.4400   -3.1730    8.8370 ca        1 BAV     -0.220300
     25 C57         3.2290   -4.3300    8.7770 ca        1 BAV     -0.099000
     26 C59         2.9470   -5.4200    9.6050 ca        1 BAV     -0.046300
     27 C60         1.8610   -5.3410   10.4910 ca        1 BAV     -0.054000
     28 C62         1.0730   -4.1910   10.5480 ca        1 BAV     -0.112000
     29 C64         1.3570   -3.1040    9.7250 ca        1 BAV     -0.102000
     30 C66         3.8050   -6.6470    9.5550 c3        1 BAV     -0.034400
     31 C68         4.4930   -6.8760   10.8890 c3        1 BAV     -0.095600
     32 C72         2.9900   -7.8650    9.1620 c3        1 BAV     -0.095600
     33 O76         0.1210   -1.1890    2.1740 o         1 BAV     -0.401100
     34 C77         2.0180    0.3840   -0.5210 c3        1 BAV     -0.162100
     35 C81        -0.6550    0.0820   -1.9480 c3        1 BAV      0.078100
     36 H2          0.7370   -1.3350   -0.2800 hx        1 BAV      0.165700
     37 HN5         2.5450    0.5870    1.9460 hn        1 BAV      0.489800
     38 H7          2.8740    0.7430    4.0050 hx        1 BAV      0.107700
     39 H9          1.5100    1.8240    5.5850 hc        1 BAV      0.092200
     40 H9A         1.4350    2.7170    4.0250 hc        1 BAV      0.092200
     41 H12        -0.7610    1.1240    5.4830 hc        1 BAV      0.089700
     42 H14        -0.1350    3.5380    6.0130 hc        1 BAV      0.054700
     43 H14A       -0.5590    3.9910    4.3210 hc        1 BAV      0.054700
     44 H17        -2.7940    2.4410    5.4720 hc        1 BAV      0.056700
     45 H17A       -2.2620    3.6690    6.6700 hc        1 BAV      0.056700
     46 H20        -2.3300    5.3860    4.6580 hc        1 BAV      0.068700
     47 H20A       -3.8240    4.8660    5.5200 hc        1 BAV      0.068700
     48 H23        -3.9160    2.9820    3.5860 hc        1 BAV      0.053200
     49 H23A       -4.6110    4.6280    3.4030 hc        1 BAV      0.053200
     50 H26        -1.6880    4.1930    2.5890 hc        1 BAV      0.049200
     51 H26A       -2.8870    5.4120    2.0150 hc        1 BAV      0.049200
     52 H29        -2.9370    2.3640    1.4630 hc        1 BAV      0.043700
     53 H29A       -4.2190    3.5220    0.9400 hc        1 BAV      0.043700
     54 H32        -2.9340    4.4120   -0.7620 hc        1 BAV      0.100200
     55 H32A       -1.4040    4.3710    0.1970 hc        1 BAV      0.100200
     56 H35        -1.5790    2.8410   -1.9030 hc        1 BAV      0.125200
     57 H35A       -2.7690    1.8310   -0.9530 hc        1 BAV      0.125200
     58 H40        -2.2700    1.7530    3.5490 hc        1 BAV      0.034367
     59 H40A       -1.0990    0.4300    3.1750 hc        1 BAV      0.034367
     60 H40B       -0.8120    2.1270    2.5540 hc        1 BAV      0.034367
     61 H44         1.7520   -1.6330    3.8480 h1        1 BAV      0.066700
     62 HO46       -0.4040   -1.2970    4.2780 ho        1 BAV      0.455000
     63 H48         2.2260    0.0640    6.4310 hx        1 BAV      0.118700
     64 H48A        3.4320   -0.9840    5.5220 hx        1 BAV      0.118700
     65 HN51        2.1830   -2.9120    6.2400 hn        1 BAV      0.460800
     66 H53         2.5350   -1.0310    8.5390 hx        1 BAV      0.107200
     67 H53A        3.8880   -1.9930    7.7390 hx        1 BAV      0.107200
     68 H57         4.0940   -4.3750    8.0970 ha        1 BAV      0.135000
     69 H60         1.6370   -6.1940   11.1550 ha        1 BAV      0.176000
     70 H62         0.2300   -4.1370   11.2580 ha        1 BAV      0.171000
     71 H64         0.7500   -2.1890    9.7960 ha        1 BAV      0.134000
     72 H66         4.6060   -6.4960    8.7730 hc        1 BAV      0.053700
     73 H68         3.7440   -7.0570   11.6970 hc        1 BAV      0.051033
     74 H68A        5.1590   -7.7720   10.8190 hc        1 BAV      0.051033
     75 H68B        5.1150   -5.9920   11.1680 hc        1 BAV      0.051033
     76 H72         2.1980   -8.0760    9.9200 hc        1 BAV      0.051033
     77 H72A        3.6580   -8.7590    9.0950 hc        1 BAV      0.051033
     78 H72B        2.5020   -7.7110    8.1700 hc        1 BAV      0.051033
     79 H77         2.0410    0.2760   -1.6400 hc        1 BAV      0.107367
     80 H77A        2.9080   -0.1780   -0.1360 hc        1 BAV      0.107367
     81 H77B        2.1250    1.4720   -0.2850 hc        1 BAV      0.107367
     82 H81        -1.7000    0.3380   -2.2810 hx        1 BAV      0.127700
     83 H81A        0.0840    0.7060   -2.5190 hx        1 BAV      0.127700
     84 H81B       -0.4680   -1.0090   -2.1550 hx        1 BAV      0.127700
     85 H11        -1.3130   -0.1200   -0.0100 hn        1 BAV      0.469800
     86 H52         1.2220    1.5900    2.1460 hn        1 BAV      0.489800
     87 H512        0.9970   -1.9840    6.9370 hn        1 BAV      0.460800
@<TRIPOS>BOND
     1    1    2 1   
     2    1   16 1   
     3    1   35 1   
     4    1   85 1   
     5    2    3 1   
     6    2   34 1   
     7    2   36 1   
     8    3    4 1   
     9    3   33 2   
    10    4    5 1   
    11    4   37 1   
    12    4   86 1   
    13    5    6 1   
    14    5   19 1   
    15    5   38 1   
    16    6    7 1   
    17    6   39 1   
    18    6   40 1   
    19    7    8 1   
    20    7   18 1   
    21    7   41 1   
    22    8    9 1   
    23    8   42 1   
    24    8   43 1   
    25    9   10 1   
    26    9   44 1   
    27    9   45 1   
    28   10   11 1   
    29   10   46 1   
    30   10   47 1   
    31   11   12 1   
    32   11   48 1   
    33   11   49 1   
    34   12   13 1   
    35   12   50 1   
    36   12   51 1   
    37   13   14 1   
    38   13   52 1   
    39   13   53 1   
    40   14   15 1   
    41   14   54 1   
    42   14   55 1   
    43   15   16 1   
    44   15   56 1   
    45   15   57 1   
    46   16   17 2   
    47   18   58 1   
    48   18   59 1   
    49   18   60 1   
    50   19   20 1   
    51   19   21 1   
    52   19   61 1   
    53   20   62 1   
    54   21   22 1   
    55   21   63 1   
    56   21   64 1   
    57   22   23 1   
    58   22   65 1   
    59   22   87 1   
    60   23   24 1   
    61   23   66 1   
    62   23   67 1   
    63   24   25 ar  
    64   24   29 ar  
    65   25   26 ar  
    66   25   68 1   
    67   26   27 ar  
    68   26   30 1   
    69   27   28 ar  
    70   27   69 1   
    71   28   29 ar  
    72   28   70 1   
    73   29   71 1   
    74   30   31 1   
    75   30   32 1   
    76   30   72 1   
    77   31   73 1   
    78   31   74 1   
    79   31   75 1   
    80   32   76 1   
    81   32   77 1   
    82   32   78 1   
    83   34   79 1   
    84   34   80 1   
    85   34   81 1   
    86   35   82 1   
    87   35   83 1   
    88   35   84 1   
@<TRIPOS>SUBSTRUCTURE
     1 BAV         1 TEMP              0 ****  ****    0 ROOT
