@<TRIPOS>MOLECULE
BAV
   84    85     1     0     0
SMALL
bcc


@<TRIPOS>ATOM
      1 N1         -3.5940   -2.7560    0.7700 n         1 BAV     -0.476800
      2 C2         -2.8130   -3.3690   -0.2870 c3        1 BAV      0.048700
      3 C4         -1.5540   -2.5730   -0.7320 c         1 BAV      0.644100
      4 N5         -1.6920   -1.2310   -0.9580 n         1 BAV     -0.554900
      5 C7         -0.6560   -0.3650   -1.4770 c3        1 BAV      0.094700
      6 C9         -1.2080    1.0400   -1.7770 c3        1 BAV     -0.094400
      7 C12        -1.6400    1.9570   -0.6360 c3        1 BAV     -0.056700
      8 C14        -2.5780    3.0180   -1.2190 c3        1 BAV     -0.079400
      9 C17        -2.8820    4.1620   -0.2700 c3        1 BAV     -0.075400
     10 C20        -4.3650    4.3800   -0.0190 c3        1 BAV     -0.075400
     11 C23        -4.9340    3.5660    1.1280 c3        1 BAV     -0.077400
     12 C26        -5.5840    2.2720    0.6770 c3        1 BAV     -0.082400
     13 C29        -5.5820    1.2340    1.7840 c3        1 BAV     -0.078400
     14 C32        -6.2310   -0.0670    1.3480 c3        1 BAV     -0.079400
     15 C35        -5.4030   -1.2930    1.6910 c3        1 BAV     -0.143400
     16 C38        -4.5230   -1.7450    0.5360 c         1 BAV      0.664100
     17 O39        -4.6510   -1.2470   -0.6030 o         1 BAV     -0.627100
     18 C40        -2.3140    1.2630    0.5250 c3        1 BAV     -0.117100
     19 C44         0.6630   -0.3940   -0.6620 c3        1 BAV      0.111100
     20 O46         0.5410    0.0330    0.6780 oh        1 BAV     -0.590800
     21 C48         1.7410    0.4310   -1.3950 c3        1 BAV      0.137800
     22 N51         3.0670    0.1950   -0.8680 n3        1 BAV     -0.824200
     23 C53         4.0300    1.2020   -1.2710 c3        1 BAV      0.212100
     24 C56         5.3280    1.1250   -0.5220 ca        1 BAV     -0.094300
     25 C57         6.0000   -0.0940   -0.3910 ca        1 BAV     -0.106000
     26 C59         7.2270   -0.1600    0.2790 ca        1 BAV     -0.076300
     27 C60         7.7780    1.0100    0.8150 ca        1 BAV     -0.123000
     28 C62         7.1100    2.2250    0.6840 ca        1 BAV     -0.132000
     29 C64         5.8860    2.2870    0.0200 ca        1 BAV     -0.129000
     30 C66         7.9330   -1.4730    0.4140 c3        1 BAV     -0.024400
     31 C68         9.2850   -1.4370   -0.2730 c3        1 BAV     -0.088100
     32 C72         8.0880   -1.8590    1.8730 c3        1 BAV     -0.088100
     33 O76        -0.4830   -3.1920   -0.8930 o         1 BAV     -0.624100
     34 C77        -3.5960   -3.7180   -1.5520 c3        1 BAV     -0.111100
     35 C81        -3.3210   -3.1650    2.1210 c3        1 BAV      0.079300
     36 H2         -2.3990   -4.3420    0.1270 h1        1 BAV      0.085700
     37 HN5        -2.6010   -0.8270   -0.8970 hn        1 BAV      0.338500
     38 H7         -0.3520   -0.7920   -2.4900 h1        1 BAV      0.050700
     39 H9         -0.4160    1.5780   -2.3660 hc        1 BAV      0.050700
     40 H9A        -2.0850    0.9090   -2.4720 hc        1 BAV      0.050700
     41 H12        -0.7210    2.4820   -0.2440 hc        1 BAV      0.034700
     42 H14        -2.1070    3.4340   -2.1500 hc        1 BAV      0.042200
     43 H14A       -3.5300    2.5140   -1.5360 hc        1 BAV      0.042200
     44 H17        -2.3530    4.0140    0.7080 hc        1 BAV      0.038700
     45 H17A       -2.4650    5.1070   -0.7130 hc        1 BAV      0.038700
     46 H20        -4.5130    5.4690    0.2210 hc        1 BAV      0.039700
     47 H20A       -4.9440    4.1740   -0.9570 hc        1 BAV      0.039700
     48 H23        -4.1240    3.3470    1.8740 hc        1 BAV      0.037200
     49 H23A       -5.7020    4.1830    1.6650 hc        1 BAV      0.037200
     50 H26        -6.6380    2.4750    0.3520 hc        1 BAV      0.047200
     51 H26A       -5.0420    1.8570   -0.2140 hc        1 BAV      0.047200
     52 H29        -4.5200    1.0520    2.1020 hc        1 BAV      0.038700
     53 H29A       -6.1210    1.6440    2.6780 hc        1 BAV      0.038700
     54 H32        -7.2280   -0.1650    1.8540 hc        1 BAV      0.059700
     55 H32A       -6.4270   -0.0490    0.2410 hc        1 BAV      0.059700
     56 H35        -4.7740   -1.0900    2.5980 hc        1 BAV      0.066200
     57 H35A       -6.0890   -2.1480    1.9380 hc        1 BAV      0.066200
     58 H40        -1.6550    0.4940    0.9940 hc        1 BAV      0.047033
     59 H40A       -2.5720    2.0130    1.3140 hc        1 BAV      0.047033
     60 H40B       -3.2680    0.7750    0.1990 hc        1 BAV      0.047033
     61 H44         0.9920   -1.4750   -0.5670 h1        1 BAV      0.127700
     62 HO46        0.3440    0.9780    0.6680 ho        1 BAV      0.394000
     63 H48         1.7520    0.1390   -2.4830 h1        1 BAV      0.031200
     64 H48A        1.4490    1.5240   -1.3370 h1        1 BAV      0.031200
     65 HN51        3.0400    0.0940    0.1310 hn        1 BAV      0.376800
     66 H53         4.2410    1.0370   -2.3690 h1        1 BAV      0.034200
     67 H53A        3.6130    2.2510   -1.1720 h1        1 BAV      0.034200
     68 H57         5.5560   -1.0070   -0.8200 ha        1 BAV      0.149000
     69 H60         8.7430    0.9670    1.3420 ha        1 BAV      0.131000
     70 H62         7.5490    3.1400    1.1070 ha        1 BAV      0.129000
     71 H64         5.3630    3.2490   -0.0780 ha        1 BAV      0.128000
     72 H66         7.3100   -2.2690   -0.0900 hc        1 BAV      0.054700
     73 H68         9.9480   -0.6730    0.2000 hc        1 BAV      0.035867
     74 H68A        9.7800   -2.4350   -0.1930 hc        1 BAV      0.035867
     75 H68B        9.1660   -1.1830   -1.3530 hc        1 BAV      0.035867
     76 H72         7.0900   -1.9170    2.3680 hc        1 BAV      0.035867
     77 H72A        8.5850   -2.8560    1.9530 hc        1 BAV      0.035867
     78 H72B        8.7110   -1.1080    2.4160 hc        1 BAV      0.035867
     79 H77        -3.9490   -2.8010   -2.0830 hc        1 BAV      0.058033
     80 H77A       -2.9210   -4.2940   -2.2320 hc        1 BAV      0.058033
     81 H77B       -4.4820   -4.3490   -1.3020 hc        1 BAV      0.058033
     82 H81        -2.8910   -2.3120    2.7140 h1        1 BAV      0.044700
     83 H81A       -4.2680   -3.5100    2.6190 h1        1 BAV      0.044700
     84 H81B       -2.5830   -4.0100    2.1420 h1        1 BAV      0.044700
@<TRIPOS>BOND
     1    1    2 1   
     2    1   16 1   
     3    1   35 1   
     4    2    3 1   
     5    2   34 1   
     6    2   36 1   
     7    3    4 1   
     8    3   33 2   
     9    4    5 1   
    10    4   37 1   
    11    5    6 1   
    12    5   19 1   
    13    5   38 1   
    14    6    7 1   
    15    6   39 1   
    16    6   40 1   
    17    7    8 1   
    18    7   18 1   
    19    7   41 1   
    20    8    9 1   
    21    8   42 1   
    22    8   43 1   
    23    9   10 1   
    24    9   44 1   
    25    9   45 1   
    26   10   11 1   
    27   10   46 1   
    28   10   47 1   
    29   11   12 1   
    30   11   48 1   
    31   11   49 1   
    32   12   13 1   
    33   12   50 1   
    34   12   51 1   
    35   13   14 1   
    36   13   52 1   
    37   13   53 1   
    38   14   15 1   
    39   14   54 1   
    40   14   55 1   
    41   15   16 1   
    42   15   56 1   
    43   15   57 1   
    44   16   17 2   
    45   18   58 1   
    46   18   59 1   
    47   18   60 1   
    48   19   20 1   
    49   19   21 1   
    50   19   61 1   
    51   20   62 1   
    52   21   22 1   
    53   21   63 1   
    54   21   64 1   
    55   22   23 1   
    56   22   65 1   
    57   23   24 1   
    58   23   66 1   
    59   23   67 1   
    60   24   25 ar  
    61   24   29 ar  
    62   25   26 ar  
    63   25   68 1   
    64   26   27 ar  
    65   26   30 1   
    66   27   28 ar  
    67   27   69 1   
    68   28   29 ar  
    69   28   70 1   
    70   29   71 1   
    71   30   31 1   
    72   30   32 1   
    73   30   72 1   
    74   31   73 1   
    75   31   74 1   
    76   31   75 1   
    77   32   76 1   
    78   32   77 1   
    79   32   78 1   
    80   34   79 1   
    81   34   80 1   
    82   34   81 1   
    83   35   82 1   
    84   35   83 1   
    85   35   84 1   
@<TRIPOS>SUBSTRUCTURE
     1 BAV         1 TEMP              0 ****  ****    0 ROOT
