@<TRIPOS>MOLECULE
BAV
   84    83     1     0     0
SMALL
bcc


@<TRIPOS>ATOM
      1 N1         -4.0100    1.5770   -2.7120 n         1 BAV     -0.330000
      2 C2         -2.5930    1.5530   -2.7200 c3        1 BAV      0.016000
      3 C4         -2.0560    1.5580   -1.2490 c2        1 BAV      0.294000
      4 N5         -0.6510    0.9080   -1.2120 n         1 BAV     -0.356000
      5 C7         -0.4870    0.1740    0.0050 c3        1 BAV     -0.012000
      6 C9          0.0260   -1.2320   -0.3140 c3        1 BAV     -0.162000
      7 C12        -0.8730   -2.3200    0.4290 c3        1 BAV     -0.105000
      8 C14        -1.5950   -3.1850   -0.6060 c3        1 BAV     -0.153000
      9 C17        -2.8390   -3.9030    0.0650 c3        1 BAV     -0.156000
     10 C20        -4.1740   -3.0860   -0.2820 c3        1 BAV     -0.160000
     11 C23        -5.2860   -4.0540   -0.6490 c3        1 BAV     -0.155000
     12 C26        -5.9450   -3.6150   -2.0720 c3        1 BAV     -0.156000
     13 C29        -6.5560   -2.1740   -1.9510 c3        1 BAV     -0.165000
     14 C32        -6.2680   -1.3670   -3.2740 c3        1 BAV     -0.155000
     15 C35        -6.1360    0.1680   -2.9380 c3        1 BAV     -0.171000
     16 C38        -4.7890    0.4180   -2.0970 c2        1 BAV      0.309000
     17 O39        -4.1940   -0.5240   -1.6140 o         1 BAV     -0.382000
     18 C40        -0.0330   -3.1540    1.2530 c3        1 BAV     -0.210000
     19 C44         0.5070    0.8860    0.8960 c3        1 BAV      0.004000
     20 O46        -0.0320    2.1200    1.3060 oh        1 BAV     -0.341000
     21 C48         1.7930    1.1270    0.1300 c3        1 BAV     -0.067000
     22 N51         2.8250    1.6320    1.0480 n3        1 BAV     -0.301000
     23 C53         4.1520    1.2100    0.5770 c3        1 BAV     -0.034000
     24 C56         5.2260    1.8870    1.4140 c2        1 BAV     -0.085000
     25 C57         5.8370    1.1930    2.4610 c2        1 BAV     -0.107000
     26 C59         6.9210    1.7650    3.1430 c1        1 BAV     -0.070000
     27 C60         7.3830    3.0140    2.7790 c1        1 BAV     -0.127500
     28 C62         6.7710    3.7080    1.7320 c1        1 BAV     -0.127500
     29 C64         5.6910    3.1400    1.0520 c1        1 BAV     -0.127000
     30 C66         7.6230    0.9860    4.2800 c3        1 BAV     -0.070000
     31 C68         9.0470    0.5460    3.8050 c3        1 BAV     -0.206000
     32 C72         7.7560    1.9150    5.5510 c3        1 BAV     -0.206000
     33 O76        -2.8360    1.3960   -0.3050 o         1 BAV     -0.394000
     34 C77        -2.0810    2.7520   -3.4400 c3        1 BAV     -0.226000
     35 C81        -4.7320    2.7130   -3.3240 c3        1 BAV     -0.087000
     36 H2         -2.2890    0.7530   -3.1710 h1        1 BAV      0.137000
     37 HN5        -0.2720    0.6130   -1.9680 hn        1 BAV      0.231000
     38 H7         -1.3560    0.1110    0.4690 h1        1 BAV      0.120000
     39 H9         -0.0150   -1.3790   -1.2670 hc        1 BAV      0.092500
     40 H9A         0.9630   -1.3150   -0.0090 hc        1 BAV      0.092500
     41 H12        -1.5210   -1.8760    0.9810 hc        1 BAV      0.097000
     42 H14        -1.9010   -2.6250   -1.3340 hc        1 BAV      0.080500
     43 H14A       -0.9630   -3.8770   -0.9610 hc        1 BAV      0.080500
     44 H17        -2.7150   -3.9330    1.0440 hc        1 BAV      0.079500
     45 H17A       -2.9160   -4.8150   -0.2830 hc        1 BAV      0.079500
     46 H20        -4.4450   -2.5580    0.4960 hc        1 BAV      0.082000
     47 H20A       -4.0030   -2.4930   -1.0300 hc        1 BAV      0.082000
     48 H23        -5.9820   -4.0390    0.0550 hc        1 BAV      0.078500
     49 H23A       -4.9190   -4.9570   -0.7250 hc        1 BAV      0.078500
     50 H26        -6.6520   -4.2510   -2.3140 hc        1 BAV      0.081000
     51 H26A       -5.2530   -3.6170   -2.7660 hc        1 BAV      0.081000
     52 H29        -6.1520   -1.7130   -1.1950 hc        1 BAV      0.082500
     53 H29A       -7.5200   -2.2410   -1.8150 hc        1 BAV      0.082500
     54 H32        -7.0060   -1.5000   -3.9040 hc        1 BAV      0.095000
     55 H32A       -5.4320   -1.6880   -3.6770 hc        1 BAV      0.095000
     56 H35        -6.1020    0.6870   -3.7780 hc        1 BAV      0.106500
     57 H35A       -6.9180    0.4560   -2.4040 hc        1 BAV      0.106500
     58 H40         0.2990   -3.9180    0.7190 hc        1 BAV      0.074667
     59 H40A       -0.5440   -3.4840    2.0040 hc        1 BAV      0.074667
     60 H40B        0.7210   -2.6340    1.5770 hc        1 BAV      0.074667
     61 H44         0.6950    0.3330    1.6830 h1        1 BAV      0.093000
     62 HO46       -0.1150    2.1290    2.2160 ho        1 BAV      0.226000
     63 H48         1.6340    1.7790   -0.5660 h1        1 BAV      0.073500
     64 H48A        2.0960    0.2880   -0.2720 h1        1 BAV      0.073500
     65 HN51        2.7860    2.5810    1.0820 hn        1 BAV      0.174000
     66 H53         4.2320    0.2550    0.6620 h1        1 BAV      0.074000
     67 H53A        4.2630    1.4640   -0.3650 h1        1 BAV      0.074000
     68 H57         5.5080    0.3070    2.7180 ha        1 BAV      0.145000
     69 H60         8.1290    3.4080    3.2490 ha        1 BAV      0.130500
     70 H62         7.0930    4.5770    1.4790 ha        1 BAV      0.130500
     71 H64         5.2690    3.6210    0.3280 ha        1 BAV      0.130000
     72 H66         7.1050    0.2080    4.5040 hc        1 BAV      0.092000
     73 H68         9.4590    1.2720    3.2890 hc        1 BAV      0.075333
     74 H68A        9.6040    0.3430    4.5860 hc        1 BAV      0.075333
     75 H68B        8.9700   -0.2560    3.2380 hc        1 BAV      0.075333
     76 H72         8.3050    1.4610    6.2350 hc        1 BAV      0.075333
     77 H72A        8.1840    2.7590    5.2960 hc        1 BAV      0.075333
     78 H72B        6.8590    2.0990    5.9190 hc        1 BAV      0.075333
     79 H77        -2.5730    2.8610   -4.2940 hc        1 BAV      0.093667
     80 H77A       -2.2120    3.5420   -2.8890 hc        1 BAV      0.093667
     81 H77B       -1.1150    2.6370   -3.6270 hc        1 BAV      0.093667
     82 H81        -4.7190    2.6210   -4.3070 h1        1 BAV      0.089667
     83 H81A       -5.6620    2.7180   -3.0090 h1        1 BAV      0.089667
     84 H81B       -4.2940    3.5580   -3.0670 h1        1 BAV      0.089667
@<TRIPOS>BOND
     1    1    2 1   
     2    1   16 1   
     3    1   35 1   
     4    2    3 1   
     5    2   34 1   
     6    2   36 1   
     7    3    4 1   
     8    3   33 1   
     9    4    5 1   
    10    4   37 1   
    11    5    6 1   
    12    5   19 1   
    13    5   38 1   
    14    6    7 1   
    15    6   39 1   
    16    6   40 1   
    17    7    8 1   
    18    7   18 1   
    19    7   41 1   
    20    8    9 1   
    21    8   42 1   
    22    8   43 1   
    23    9   10 1   
    24    9   44 1   
    25    9   45 1   
    26   10   11 1   
    27   10   46 1   
    28   10   47 1   
    29   11   12 1   
    30   11   48 1   
    31   11   49 1   
    32   12   13 1   
    33   12   50 1   
    34   12   51 1   
    35   13   14 1   
    36   13   52 1   
    37   13   53 1   
    38   14   15 1   
    39   14   54 1   
    40   14   55 1   
    41   15   16 1   
    42   15   56 1   
    43   15   57 1   
    44   16   17 1   
    45   18   58 1   
    46   18   59 1   
    47   18   60 1   
    48   19   20 1   
    49   19   21 1   
    50   19   61 1   
    51   20   62 1   
    52   21   22 1   
    53   21   63 1   
    54   21   64 1   
    55   22   23 1   
    56   22   65 1   
    57   23   24 1   
    58   23   66 1   
    59   23   67 1   
    60   24   25 1   
    61   24   29 1   
    62   25   26 1   
    63   25   68 1   
    64   26   30 1   
    65   27   28 1   
    66   27   69 1   
    67   28   70 1   
    68   29   71 1   
    69   30   31 1   
    70   30   32 1   
    71   30   72 1   
    72   31   73 1   
    73   31   74 1   
    74   31   75 1   
    75   32   76 1   
    76   32   77 1   
    77   32   78 1   
    78   34   79 1   
    79   34   80 1   
    80   34   81 1   
    81   35   82 1   
    82   35   83 1   
    83   35   84 1   
@<TRIPOS>SUBSTRUCTURE
     1 BAV         1 TEMP              0 ****  ****    0 ROOT
