@<TRIPOS>MOLECULE
BAV
   87    88     1     0     0
SMALL
bcc


@<TRIPOS>ATOM
      1 N1         -0.5640    0.3500   -0.4800 n4        1 BAV     -0.620200
      2 C2          0.7200   -0.2470    0.0410 c3        1 BAV      0.072500
      3 C4          0.7340   -0.3290    1.5890 c         1 BAV      0.520100
      4 N5          1.5880    0.6300    2.3430 n4        1 BAV     -0.672800
      5 C7          1.7520    0.5670    3.8630 c3        1 BAV      0.121500
      6 C9          1.0890    1.7790    4.5340 c3        1 BAV     -0.110400
      7 C12        -0.4250    1.8570    4.6850 c3        1 BAV     -0.070700
      8 C14        -0.7750    3.2770    5.1460 c3        1 BAV     -0.079400
      9 C17        -2.2210    3.4300    5.5840 c3        1 BAV     -0.082400
     10 C20        -2.9780    4.5220    4.8500 c3        1 BAV     -0.086400
     11 C23        -3.6310    4.0830    3.5530 c3        1 BAV     -0.083400
     12 C26        -2.7650    4.3460    2.3370 c3        1 BAV     -0.083400
     13 C29        -3.1310    3.4360    1.1810 c3        1 BAV     -0.086400
     14 C32        -2.3310    3.7680   -0.0640 c3        1 BAV     -0.095400
     15 C35        -1.9270    2.5310   -0.8530 c3        1 BAV     -0.142400
     16 C38        -0.7400    1.8650   -0.2210 c         1 BAV      0.600100
     17 O39         0.1300    2.3480    0.4900 o         1 BAV     -0.490100
     18 C40        -1.1790    1.5210    3.4230 c3        1 BAV     -0.118100
     19 C44         1.4680   -0.8010    4.5410 c3        1 BAV      0.133100
     20 O46         0.1440   -0.9290    4.9940 oh        1 BAV     -0.583800
     21 C48         2.3610   -0.8860    5.8140 c3        1 BAV      0.096800
     22 N51         2.0140   -2.0200    6.7050 n4        1 BAV     -0.771000
     23 C53         2.8160   -1.9960    7.9990 c3        1 BAV      0.197100
     24 C56         2.4600   -3.1690    8.8300 ca        1 BAV     -0.220300
     25 C57         3.2420   -4.3320    8.7690 ca        1 BAV     -0.099000
     26 C59         2.9590   -5.4170    9.6030 ca        1 BAV     -0.046300
     27 C60         1.8790   -5.3270   10.4960 ca        1 BAV     -0.054000
     28 C62         1.0990   -4.1720   10.5540 ca        1 BAV     -0.112000
     29 C64         1.3840   -3.0900    9.7250 ca        1 BAV     -0.102000
     30 C66         3.8100   -6.6490    9.5520 c3        1 BAV     -0.034400
     31 C68         4.5050   -6.8780   10.8820 c3        1 BAV     -0.095600
     32 C72         2.9850   -7.8630    9.1680 c3        1 BAV     -0.095600
     33 O76         0.1020   -1.1940    2.1790 o         1 BAV     -0.401100
     34 C77         1.9860    0.3650   -0.5350 c3        1 BAV     -0.162100
     35 C81        -0.6990    0.0690   -1.9410 c3        1 BAV      0.078100
     36 H2          0.7000   -1.3480   -0.2800 hx        1 BAV      0.165700
     37 HN5         1.2140    1.5810    2.1350 hn        1 BAV      0.489800
     38 H7          2.8760    0.7310    3.9840 hx        1 BAV      0.107700
     39 H9          1.5290    1.8230    5.5720 hc        1 BAV      0.092200
     40 H9A         1.4460    2.7120    4.0100 hc        1 BAV      0.092200
     41 H12        -0.7460    1.1320    5.4890 hc        1 BAV      0.089700
     42 H14        -0.1050    3.5450    6.0060 hc        1 BAV      0.054700
     43 H14A       -0.5400    3.9950    4.3170 hc        1 BAV      0.054700
     44 H17        -2.2270    3.6880    6.6800 hc        1 BAV      0.056700
     45 H17A       -2.7720    2.4580    5.4900 hc        1 BAV      0.056700
     46 H20        -2.3030    5.3980    4.6620 hc        1 BAV      0.068700
     47 H20A       -3.7920    4.8870    5.5380 hc        1 BAV      0.068700
     48 H23        -3.9070    2.9970    3.6100 hc        1 BAV      0.053200
     49 H23A       -4.5970    4.6450    3.4280 hc        1 BAV      0.053200
     50 H26        -2.8810    5.4180    2.0240 hc        1 BAV      0.049200
     51 H26A       -1.6820    4.1960    2.5920 hc        1 BAV      0.049200
     52 H29        -4.2290    3.5300    0.9660 hc        1 BAV      0.043700
     53 H29A       -2.9470    2.3680    1.4810 hc        1 BAV      0.043700
     54 H32        -1.4170    4.3670    0.1970 hc        1 BAV      0.100200
     55 H32A       -2.9540    4.4100   -0.7500 hc        1 BAV      0.100200
     56 H35        -2.8000    1.8280   -0.9350 hc        1 BAV      0.125200
     57 H35A       -1.6130    2.8320   -1.8970 hc        1 BAV      0.125200
     58 H40        -2.2670    1.7620    3.5640 hc        1 BAV      0.034367
     59 H40A       -1.1040    0.4340    3.1850 hc        1 BAV      0.034367
     60 H40B       -0.8150    2.1270    2.5570 hc        1 BAV      0.034367
     61 H44         1.7430   -1.6410    3.8410 h1        1 BAV      0.066700
     62 HO46       -0.4080   -1.2940    4.2860 ho        1 BAV      0.455000
     63 H48         3.4390   -0.9940    5.5020 hx        1 BAV      0.118700
     64 H48A        2.2440    0.0620    6.4160 hx        1 BAV      0.118700
     65 HN51        2.1850   -2.9150    6.2330 hn        1 BAV      0.460800
     66 H53         2.5670   -1.0290    8.5240 hx        1 BAV      0.107700
     67 H53A        3.9070   -2.0020    7.7170 hx        1 BAV      0.107700
     68 H57         4.1020   -4.3840    8.0830 ha        1 BAV      0.135000
     69 H60         1.6550   -6.1770   11.1650 ha        1 BAV      0.176000
     70 H62         0.2610   -4.1120   11.2700 ha        1 BAV      0.171000
     71 H64         0.7820   -2.1720    9.7970 ha        1 BAV      0.134000
     72 H66         4.6060   -6.5050    8.7640 hc        1 BAV      0.053700
     73 H68         3.7600   -7.0520   11.6950 hc        1 BAV      0.051033
     74 H68A        5.1650   -7.7770   10.8110 hc        1 BAV      0.051033
     75 H68B        5.1330   -5.9960   11.1550 hc        1 BAV      0.051033
     76 H72         2.4920   -7.7100    8.1790 hc        1 BAV      0.051033
     77 H72A        3.6470   -8.7610    9.1000 hc        1 BAV      0.051033
     78 H72B        2.1970   -8.0670    9.9320 hc        1 BAV      0.051033
     79 H77         2.8770   -0.1990   -0.1550 hc        1 BAV      0.107367
     80 H77A        1.9990    0.2540   -1.6530 hc        1 BAV      0.107367
     81 H77B        2.0980    1.4530   -0.3020 hc        1 BAV      0.107367
     82 H81         0.0380    0.6900   -2.5190 hx        1 BAV      0.127700
     83 H81A       -0.5170   -1.0220   -2.1470 hx        1 BAV      0.127700
     84 H81B       -1.7460    0.3280   -2.2670 hx        1 BAV      0.127700
     85 H11        -1.3440   -0.1260    0.0020 hn        1 BAV      0.469800
     86 H52         2.5310    0.5720    1.9280 hn        1 BAV      0.489800
     87 H512        1.0100   -1.9790    6.9380 hn        1 BAV      0.460800
@<TRIPOS>BOND
     1    1    2 1   
     2    1   16 1   
     3    1   35 1   
     4    1   85 1   
     5    2    3 1   
     6    2   34 1   
     7    2   36 1   
     8    3    4 1   
     9    3   33 2   
    10    4    5 1   
    11    4   37 1   
    12    4   86 1   
    13    5    6 1   
    14    5   19 1   
    15    5   38 1   
    16    6    7 1   
    17    6   39 1   
    18    6   40 1   
    19    7    8 1   
    20    7   18 1   
    21    7   41 1   
    22    8    9 1   
    23    8   42 1   
    24    8   43 1   
    25    9   10 1   
    26    9   44 1   
    27    9   45 1   
    28   10   11 1   
    29   10   46 1   
    30   10   47 1   
    31   11   12 1   
    32   11   48 1   
    33   11   49 1   
    34   12   13 1   
    35   12   50 1   
    36   12   51 1   
    37   13   14 1   
    38   13   52 1   
    39   13   53 1   
    40   14   15 1   
    41   14   54 1   
    42   14   55 1   
    43   15   16 1   
    44   15   56 1   
    45   15   57 1   
    46   16   17 2   
    47   18   58 1   
    48   18   59 1   
    49   18   60 1   
    50   19   20 1   
    51   19   21 1   
    52   19   61 1   
    53   20   62 1   
    54   21   22 1   
    55   21   63 1   
    56   21   64 1   
    57   22   23 1   
    58   22   65 1   
    59   22   87 1   
    60   23   24 1   
    61   23   66 1   
    62   23   67 1   
    63   24   25 ar  
    64   24   29 ar  
    65   25   26 ar  
    66   25   68 1   
    67   26   27 ar  
    68   26   30 1   
    69   27   28 ar  
    70   27   69 1   
    71   28   29 ar  
    72   28   70 1   
    73   29   71 1   
    74   30   31 1   
    75   30   32 1   
    76   30   72 1   
    77   31   73 1   
    78   31   74 1   
    79   31   75 1   
    80   32   76 1   
    81   32   77 1   
    82   32   78 1   
    83   34   79 1   
    84   34   80 1   
    85   34   81 1   
    86   35   82 1   
    87   35   83 1   
    88   35   84 1   
@<TRIPOS>SUBSTRUCTURE
     1 BAV         1 TEMP              0 ****  ****    0 ROOT
