@<TRIPOS>MOLECULE
BAV
   87    88     1     0     0
SMALL
bcc


@<TRIPOS>ATOM
      1 N1         -0.5050    0.3780   -0.4890 nx        1 BAV     -0.620200
      2 C2          0.7750   -0.2170    0.0440 c3        1 BAV      0.072500
      3 C4          0.7690   -0.3090    1.5910 c         1 BAV      0.520100
      4 N5          1.6100    0.6480    2.3620 ny        1 BAV     -0.672800
      5 C7          1.7550    0.5760    3.8840 c3        1 BAV      0.121500
      6 C9          1.0780    1.7800    4.5540 c3        1 BAV     -0.110400
      7 C12        -0.4380    1.8510    4.6870 c3        1 BAV     -0.070700
      8 C14        -0.7990    3.2660    5.1520 c3        1 BAV     -0.079400
      9 C17        -2.2520    3.4100    5.5740 c3        1 BAV     -0.082400
     10 C20        -3.0040    4.5040    4.8380 c3        1 BAV     -0.086400
     11 C23        -3.6390    4.0710    3.5300 c3        1 BAV     -0.083400
     12 C26        -2.7580    4.3460    2.3260 c3        1 BAV     -0.083400
     13 C29        -3.1060    3.4420    1.1590 c3        1 BAV     -0.086400
     14 C32        -2.2920    3.7860   -0.0730 c3        1 BAV     -0.095400
     15 C35        -1.8730    2.5560   -0.8650 c3        1 BAV     -0.142400
     16 C38        -0.6910    1.8910   -0.2220 c         1 BAV      0.600100
     17 O39         0.1670    2.3720    0.5020 o         1 BAV     -0.490100
     18 C40        -1.1740    1.5210    3.4130 c3        1 BAV     -0.118100
     19 C44         1.4690   -0.7980    4.5490 c3        1 BAV      0.133100
     20 O46         0.1390   -0.9340    4.9840 oh        1 BAV     -0.583800
     21 C48         2.3460   -0.8880    5.8320 c3        1 BAV      0.096800
     22 N51         1.9930   -2.0290    6.7110 ny        1 BAV     -0.771000
     23 C53         2.7770   -2.0100    8.0150 c3        1 BAV      0.197100
     24 C56         2.4160   -3.1910    8.8340 ca        1 BAV     -0.220300
     25 C57         3.2040   -4.3490    8.7760 ca        1 BAV     -0.099000
     26 C59         2.9160   -5.4410    9.5990 ca        1 BAV     -0.046300
     27 C60         1.8230   -5.3620   10.4770 ca        1 BAV     -0.054000
     28 C62         1.0360   -4.2120   10.5330 ca        1 BAV     -0.112000
     29 C64         1.3280   -3.1230    9.7150 ca        1 BAV     -0.102000
     30 C66         3.7730   -6.6690    9.5520 c3        1 BAV     -0.034400
     31 C68         4.4510   -6.9020   10.8890 c3        1 BAV     -0.095600
     32 C72         2.9590   -7.8840    9.1480 c3        1 BAV     -0.095600
     33 O76         0.1340   -1.1800    2.1670 o         1 BAV     -0.401100
     34 C77         2.0450    0.4050   -0.5120 c3        1 BAV     -0.162100
     35 C81        -0.6210    0.1070   -1.9540 c3        1 BAV      0.078100
     36 H2          0.7630   -1.3160   -0.2850 hx        1 BAV      0.165700
     37 HN5         2.5580    0.5970    1.9580 hn        1 BAV      0.489800
     38 H7          2.8770    0.7440    4.0200 hx        1 BAV      0.107700
     39 H9          1.5060    1.8190    5.5980 hc        1 BAV      0.092200
     40 H9A         1.4380    2.7190    4.0410 hc        1 BAV      0.092200
     41 H12        -0.7650    1.1190    5.4810 hc        1 BAV      0.089700
     42 H14        -0.1410    3.5310    6.0230 hc        1 BAV      0.054700
     43 H14A       -0.5570    3.9910    4.3310 hc        1 BAV      0.054700
     44 H17        -2.2720    3.6600    6.6710 hc        1 BAV      0.056700
     45 H17A       -2.7970    2.4360    5.4660 hc        1 BAV      0.056700
     46 H20        -3.8280    4.8610    5.5170 hc        1 BAV      0.068700
     47 H20A       -2.3310    5.3840    4.6640 hc        1 BAV      0.068700
     48 H23        -3.9100    2.9830    3.5760 hc        1 BAV      0.053200
     49 H23A       -4.6060    4.6300    3.3960 hc        1 BAV      0.053200
     50 H26        -2.8760    5.4200    2.0180 hc        1 BAV      0.049200
     51 H26A       -1.6790    4.1990    2.5940 hc        1 BAV      0.049200
     52 H29        -4.2020    3.5330    0.9310 hc        1 BAV      0.043700
     53 H29A       -2.9210    2.3730    1.4550 hc        1 BAV      0.043700
     54 H32        -1.3840    4.3870    0.2030 hc        1 BAV      0.100200
     55 H32A       -2.9090    4.4300   -0.7620 hc        1 BAV      0.100200
     56 H35        -1.5480    2.8650   -1.9030 hc        1 BAV      0.125200
     57 H35A       -2.7410    1.8500   -0.9630 hc        1 BAV      0.125200
     58 H40        -1.0920    0.4350    3.1680 hc        1 BAV      0.034367
     59 H40A       -0.8020    2.1340    2.5560 hc        1 BAV      0.034367
     60 H40B       -2.2640    1.7560    3.5420 hc        1 BAV      0.034367
     61 H44         1.7560   -1.6310    3.8460 h1        1 BAV      0.066700
     62 HO46       -0.4020   -1.2970    4.2670 ho        1 BAV      0.455000
     63 H48         3.4280   -0.9890    5.5330 hx        1 BAV      0.118700
     64 H48A        2.2170    0.0560    6.4390 hx        1 BAV      0.118700
     65 HN51        0.9850   -1.9940    6.9310 hn        1 BAV      0.460800
     66 H53         3.8720   -2.0100    7.7470 hx        1 BAV      0.107700
     67 H53A        2.5170   -1.0480    8.5440 hx        1 BAV      0.107700
     68 H57         4.0740   -4.3920    8.1020 ha        1 BAV      0.135000
     69 H60         1.5940   -6.2180   11.1380 ha        1 BAV      0.176000
     70 H62         0.1890   -4.1590   11.2370 ha        1 BAV      0.171000
     71 H64         0.7200   -2.2080    9.7850 ha        1 BAV      0.134000
     72 H66         4.5790   -6.5150    8.7760 hc        1 BAV      0.053700
     73 H68         5.1170   -7.7980   10.8210 hc        1 BAV      0.051033
     74 H68A        3.6960   -7.0860   11.6910 hc        1 BAV      0.051033
     75 H68B        5.0710   -6.0200   11.1770 hc        1 BAV      0.051033
     76 H72         2.1620   -8.0970    9.9010 hc        1 BAV      0.051033
     77 H72A        2.4790   -7.7260    8.1530 hc        1 BAV      0.051033
     78 H72B        3.6270   -8.7780    9.0840 hc        1 BAV      0.051033
     79 H77         2.1500    1.4920   -0.2710 hc        1 BAV      0.107367
     80 H77A        2.0730    0.3020   -1.6310 hc        1 BAV      0.107367
     81 H77B        2.9330   -0.1580   -0.1260 hc        1 BAV      0.107367
     82 H81         0.1210    0.7350   -2.5190 hx        1 BAV      0.127700
     83 H81A       -1.6640    0.3630   -2.2920 hx        1 BAV      0.127700
     84 H81B       -0.4310   -0.9820   -2.1650 hx        1 BAV      0.127700
     85 H11        -1.2890   -0.1040   -0.0210 hn        1 BAV      0.469800
     86 H52         1.2340    1.5990    2.1560 hn        1 BAV      0.489800
     87 H512        2.1730   -2.9200    6.2360 hn        1 BAV      0.460800
@<TRIPOS>BOND
     1    1    2 1   
     2    1   16 1   
     3    1   35 1   
     4    1   85 1   
     5    2    3 1   
     6    2   34 1   
     7    2   36 1   
     8    3    4 1   
     9    3   33 2   
    10    4    5 1   
    11    4   37 1   
    12    4   86 1   
    13    5    6 1   
    14    5   19 1   
    15    5   38 1   
    16    6    7 1   
    17    6   39 1   
    18    6   40 1   
    19    7    8 1   
    20    7   18 1   
    21    7   41 1   
    22    8    9 1   
    23    8   42 1   
    24    8   43 1   
    25    9   10 1   
    26    9   44 1   
    27    9   45 1   
    28   10   11 1   
    29   10   46 1   
    30   10   47 1   
    31   11   12 1   
    32   11   48 1   
    33   11   49 1   
    34   12   13 1   
    35   12   50 1   
    36   12   51 1   
    37   13   14 1   
    38   13   52 1   
    39   13   53 1   
    40   14   15 1   
    41   14   54 1   
    42   14   55 1   
    43   15   16 1   
    44   15   56 1   
    45   15   57 1   
    46   16   17 2   
    47   18   58 1   
    48   18   59 1   
    49   18   60 1   
    50   19   20 1   
    51   19   21 1   
    52   19   61 1   
    53   20   62 1   
    54   21   22 1   
    55   21   63 1   
    56   21   64 1   
    57   22   23 1   
    58   22   65 1   
    59   22   87 1   
    60   23   24 1   
    61   23   66 1   
    62   23   67 1   
    63   24   25 ar  
    64   24   29 ar  
    65   25   26 ar  
    66   25   68 1   
    67   26   27 ar  
    68   26   30 1   
    69   27   28 ar  
    70   27   69 1   
    71   28   29 ar  
    72   28   70 1   
    73   29   71 1   
    74   30   31 1   
    75   30   32 1   
    76   30   72 1   
    77   31   73 1   
    78   31   74 1   
    79   31   75 1   
    80   32   76 1   
    81   32   77 1   
    82   32   78 1   
    83   34   79 1   
    84   34   80 1   
    85   34   81 1   
    86   35   82 1   
    87   35   83 1   
    88   35   84 1   
@<TRIPOS>SUBSTRUCTURE
     1 BAV         1 TEMP              0 ****  ****    0 ROOT
