@<TRIPOS>MOLECULE
BAX
   49    47     1     0     0
SMALL
bcc


@<TRIPOS>ATOM
      1 C1         -1.5950   -1.5470    1.7350 c1        1 BAX      0.404000
      2 C2          2.8830    1.5290    2.5410 c3        1 BAX      0.000000
      3 C3          1.6040    1.0310    3.1510 c2        1 BAX     -0.101000
      4 C4          0.5060    0.8430    2.4790 c1        1 BAX     -0.152000
      5 C13         4.0280    0.3010    0.7440 c2        1 BAX      0.432000
      6 C16         4.8340   -1.0900   -1.0600 c1        1 BAX     -0.048000
      7 C17         7.4700    0.3260   -4.1400 c2        1 BAX     -0.111000
      8 C18         7.5380   -0.8420   -3.5830 c1        1 BAX     -0.149000
      9 C19         7.5910   -2.0350   -3.0450 c2        1 BAX      0.019000
     10 C20         6.5250   -2.7150   -2.2470 c3        1 BAX      0.003000
     11 C21         5.6250   -1.8170   -1.5950 c1        1 BAX     -0.159000
     12 O22         8.6930   -2.8640   -3.3440 os        1 BAX     -0.142000
     13 C24        10.8880   -3.6390   -2.9100 c3        1 BAX     -0.192000
     14 C25        10.0060    0.3390    0.7830 c1        1 BAX      0.092000
     15 C27         9.4110   -2.0550    0.0770 c2        1 BAX      0.044000
     16 C28         9.5420   -2.5210   -1.1450 c1        1 BAX     -0.266000
     17 N30         7.6410    0.4280    2.4650 n8        1 BAX     -0.156000
     18 C31         7.2710   -0.5590    3.2160 c2        1 BAX      0.143000
     19 C5         -0.5880    0.6620    1.7860 c2        1 BAX      0.021000
     20 C6         -0.8970   -0.6000    1.1050 c2        1 BAX     -0.485000
     21 C7         -0.4020   -0.7230   -0.3310 c3        1 BAX      0.515000
     22 F8         -1.2000   -0.1190   -1.2640 f         1 BAX     -0.160667
     23 F9          0.8430   -0.1730   -0.5460 f         1 BAX     -0.160667
     24 F10        -0.2630   -2.0160   -0.7690 f         1 BAX     -0.160667
     25 Cl11       -1.7300    1.9060    1.6030 cl        1 BAX      0.045000
     26 N12         3.0590    1.2300    1.1410 ns        1 BAX     -0.340000
     27 N14         3.8970   -0.2930   -0.5220 ns        1 BAX     -0.241000
     28 O15         5.0310    0.0600    1.4750 o         1 BAX     -0.499000
     29 C23         9.6810   -2.9470   -2.3820 c2        1 BAX      0.197000
     30 N26         9.7490   -0.7630    0.4450 n2        1 BAX     -0.271000
     31 O32         8.3070   -2.4950    2.1690 o         1 BAX     -0.363000
     32 H1          3.7520    1.1120    3.1280 h1        1 BAX      0.122000
     33 H3          2.8970    2.6560    2.6440 h1        1 BAX      0.122000
     34 H4          1.6440    0.8570    4.2420 ha        1 BAX      0.170000
     35 H17         7.7950    1.2450   -3.6270 ha        1 BAX      0.150500
     36 H18         7.0790    0.4650   -5.1620 ha        1 BAX      0.150500
     37 H20         7.0160   -3.3810   -1.4790 hc        1 BAX      0.124000
     38 H21         5.9390   -3.3860   -2.9430 hc        1 BAX      0.124000
     39 H24        10.5850   -4.5670   -3.4570 hc        1 BAX      0.121333
     40 H25        11.4140   -2.9610   -3.6290 hc        1 BAX      0.121333
     41 H28        11.5820   -3.9050   -2.0770 hc        1 BAX      0.121333
     42 H30         8.5390    0.8800    2.5490 hn        1 BAX      0.289500
     43 H311        7.0400    0.7660    1.7220 hn        1 BAX      0.289500
     44 H312        7.9280   -0.9500    4.0220 h4        1 BAX      0.205500
     45 H313        6.2810   -1.0450    3.0470 h4        1 BAX      0.205500
     46 H12         2.2330    1.3170    0.5840 hn        1 BAX      0.239000
     47 H14         3.0740   -0.1430   -1.0720 hn        1 BAX      0.272000
     48 H302        8.8480   -4.0220    0.9010 h4        1 BAX      0.145000
     49 C29         8.8170   -2.9350    1.1320 c2        1 BAX      0.267000
@<TRIPOS>BOND
     1    1   20 1   
     2    2    3 1   
     3    2   26 1   
     4    2   32 1   
     5    2   33 1   
     6    3    4 1   
     7    3   34 1   
     8    4   19 1   
     9    5   26 1   
    10    5   27 1   
    11    5   28 1   
    12    6   11 1   
    13    6   27 1   
    14    7    8 1   
    15    7   35 1   
    16    7   36 1   
    17    8    9 1   
    18    9   10 1   
    19    9   12 1   
    20   10   11 1   
    21   10   37 1   
    22   10   38 1   
    23   12   29 1   
    24   13   29 1   
    25   13   39 1   
    26   13   40 1   
    27   13   41 1   
    28   14   30 1   
    29   15   16 1   
    30   15   30 1   
    31   15   49 1   
    32   16   29 1   
    33   17   18 1   
    34   17   42 1   
    35   17   43 1   
    36   18   44 1   
    37   18   45 1   
    38   19   20 1   
    39   19   25 1   
    40   20   21 1   
    41   21   22 1   
    42   21   23 1   
    43   21   24 1   
    44   26   46 1   
    45   27   47 1   
    46   31   49 1   
    47   48   49 1   
@<TRIPOS>SUBSTRUCTURE
     1 BAX         1 TEMP              0 ****  ****    0 ROOT
