@<TRIPOS>MOLECULE
BAX
   48    40     1     0     0
SMALL
bcc


@<TRIPOS>ATOM
      1 C1         -4.6520    3.3980   -0.5200 c1        1 BAX     -0.136000
      2 C2         -4.3450    2.4340    0.4390 c1        1 BAX      0.072000
      3 C3         -5.0150    1.2130    0.4420 c1        1 BAX     -0.102000
      4 C4         -5.9930    0.9530   -0.5120 c1        1 BAX     -0.111000
      5 C13        -2.1220    1.9400    1.3880 c1        1 BAX      0.401000
      6 C16         0.1530    1.5020    2.2800 c1        1 BAX      0.067000
      7 C17         1.2560    2.0610    1.6550 c1        1 BAX     -0.134000
      8 C18         2.4590    1.3510    1.5900 c1        1 BAX     -0.134000
      9 C19         2.5490    0.0890    2.1500 c1        1 BAX      0.058000
     10 C20         1.4380   -0.4740    2.7800 c1        1 BAX     -0.176500
     11 C21         0.2420    0.2330    2.8430 c1        1 BAX     -0.125000
     12 O22         3.7670   -0.6040    2.1260 os        1 BAX     -0.147000
     13 C24         4.3020   -0.3390   -0.2220 c1        1 BAX     -0.176500
     14 C25         4.5580   -0.8850   -1.4870 c1        1 BAX     -0.044000
     15 C27         4.1580   -3.0360   -0.6280 c1        1 BAX     -0.039000
     16 C28         3.9030   -2.4990    0.6270 c1        1 BAX     -0.145000
     17 N30         4.4340   -5.0890   -2.1320 n         1 BAX     -0.360000
     18 C31         4.9680   -6.4100   -2.2530 c3        1 BAX     -0.080000
     19 C5         -6.3030    1.9170   -1.4720 c1        1 BAX     -0.041000
     20 C6         -5.6270    3.1430   -1.4730 c1        1 BAX     -0.130000
     21 C7         -5.9770    4.2080   -2.5150 c3        1 BAX      0.471000
     22 F8         -7.1520    3.9450   -3.0250 f         1 BAX     -0.160667
     23 F9         -6.0040    5.4220   -1.9300 f         1 BAX     -0.160667
     24 F10        -5.0720    4.2020   -3.4680 f         1 BAX     -0.160667
     25 CL11       -7.6350    1.6460   -2.5930 cl        1 BAX      0.023000
     26 N12        -3.3390    2.6910    1.4050 n2        1 BAX     -0.319000
     27 N14        -1.0870    2.2290    2.3330 n3        1 BAX     -0.314000
     28 O15        -1.9520    1.0940    0.5560 o         1 BAX     -0.365000
     29 C23         3.9770   -1.1560    0.8190 c1        1 BAX      0.058000
     30 N26         4.4840   -2.2110   -1.6740 n1        1 BAX     -0.155000
     31 C29         4.1680   -4.5310   -0.8190 c2        1 BAX      0.351000
     32 O32         3.8490   -5.2530    0.0850 o         1 BAX     -0.369000
     33 H1         -4.1740    4.2650   -0.5200 ha        1 BAX      0.155000
     34 H3         -4.7990    0.5420    1.1130 ha        1 BAX      0.182000
     35 H4         -6.4820    0.0620   -0.5090 ha        1 BAX      0.161000
     36 H17         1.1940    2.9400    1.2650 ha        1 BAX      0.146500
     37 H18         3.2260    1.7410    1.1540 ha        1 BAX      0.146500
     38 H20         1.4990   -1.3690    3.1770 ha        1 BAX      0.157000
     39 H21        -0.5340   -0.1600    3.2830 ha        1 BAX      0.176000
     40 H24         4.3570    0.6550   -0.0820 ha        1 BAX      0.157000
     41 H25         4.7940   -0.2940   -2.2410 ha        1 BAX      0.165000
     42 H28         3.6660   -3.0960    1.3840 ha        1 BAX      0.187000
     43 H30         4.2390   -4.6110   -2.8730 hn        1 BAX      0.242000
     44 H311        4.9270   -6.7030   -3.2150 h1        1 BAX      0.084667
     45 H312        4.4320   -7.0390   -1.6900 h1        1 BAX      0.084667
     46 H313        5.8910   -6.4140   -1.9540 h1        1 BAX      0.084667
     47 H12        -3.4530    3.3400    2.0050 hn        1 BAX      0.228000
     48 H14        -1.1730    2.9600    2.9070 hn        1 BAX      0.226000
@<TRIPOS>BOND
     1    1   20 1   
     2    1   33 1   
     3    2    3 1   
     4    2   26 1   
     5    3   34 1   
     6    4   19 1   
     7    4   35 1   
     8    5   27 1   
     9    5   28 1   
    10    6   11 1   
    11    6   27 1   
    12    7    8 1   
    13    7   36 1   
    14    8   37 1   
    15    9   10 1   
    16    9   12 1   
    17   10   38 1   
    18   11   39 1   
    19   12   29 1   
    20   13   29 1   
    21   13   40 1   
    22   14   30 1   
    23   14   41 1   
    24   15   16 1   
    25   15   31 1   
    26   16   42 1   
    27   17   18 1   
    28   17   31 1   
    29   17   43 1   
    30   18   44 1   
    31   18   45 1   
    32   18   46 1   
    33   19   25 1   
    34   20   21 1   
    35   21   22 1   
    36   21   23 1   
    37   21   24 1   
    38   26   47 1   
    39   27   48 1   
    40   31   32 1   
@<TRIPOS>SUBSTRUCTURE
     1 BAX         1 TEMP              0 ****  ****    0 ROOT
