@<TRIPOS>MOLECULE
BAX
   49    47     1     0     0
SMALL
bcc


@<TRIPOS>ATOM
      1 C1         -1.5740   -1.6470    1.7790 c1        1 BAX      0.404000
      2 C2          2.8530    1.5190    2.5180 c3        1 BAX      0.000000
      3 C3          1.5850    1.0080    3.1400 c2        1 BAX     -0.101000
      4 C4          0.4880    0.7900    2.4770 c1        1 BAX     -0.152000
      5 C13         4.0120    0.2860    0.7340 c2        1 BAX      0.432000
      6 C16         4.8340   -1.1170   -1.0540 c1        1 BAX     -0.048000
      7 C17         7.4300    0.2980   -4.1670 c2        1 BAX     -0.111000
      8 C18         7.5220   -0.8590   -3.5930 c1        1 BAX     -0.149000
      9 C19         7.5990   -2.0430   -3.0370 c2        1 BAX      0.019000
     10 C20         6.5490   -2.7300   -2.2240 c3        1 BAX      0.003000
     11 C21         5.6360   -1.8380   -1.5810 c1        1 BAX     -0.159000
     12 O22         8.7150   -2.8560   -3.3280 os        1 BAX     -0.142000
     13 C24        10.9250   -3.5840   -2.8920 c3        1 BAX     -0.192000
     14 C25         9.9860    0.4340    0.7430 c1        1 BAX      0.092000
     15 C27         9.4320   -1.9810    0.0770 c2        1 BAX      0.044000
     16 C28         9.5660   -2.4640   -1.1380 c1        1 BAX     -0.266000
     17 N30         7.6280    0.5060    2.4360 n3        1 BAX     -0.156000
     18 C31         7.2800   -0.4760    3.2030 c2        1 BAX      0.143000
     19 C5         -0.6060    0.5800    1.7920 c2        1 BAX      0.021000
     20 C6         -0.8950   -0.6970    1.1310 c2        1 BAX     -0.485000
     21 C7         -0.4050   -0.8330   -0.3050 c3        1 BAX      0.515000
     22 F8         -1.2170   -0.2580   -1.2440 f         1 BAX     -0.160667
     23 F9          0.8300   -0.2650   -0.5340 f         1 BAX     -0.160667
     24 F10        -0.2450   -2.1300   -0.7240 f         1 BAX     -0.160667
     25 CL11       -1.7700    1.8010    1.5940 cl        1 BAX      0.045000
     26 N12         3.0270    1.2020    1.1210 n         1 BAX     -0.340000
     27 N14         3.8850   -0.3300   -0.5230 n         1 BAX     -0.241000
     28 O15         5.0220    0.0740    1.4630 o         1 BAX     -0.499000
     29 C23         9.7080   -2.9060   -2.3700 c2        1 BAX      0.197000
     30 N26         9.7480   -0.6780    0.4230 n2        1 BAX     -0.271000
     31 O32         8.3460   -2.4090    2.1800 o         1 BAX     -0.363000
     32 H1          3.7310    1.1270    3.1070 h1        1 BAX      0.122000
     33 H3          2.8470    2.6490    2.6030 h1        1 BAX      0.122000
     34 H4          1.6330    0.8520    4.2340 ha        1 BAX      0.170000
     35 H17         7.7400    1.2310   -3.6700 ha        1 BAX      0.150500
     36 H18         7.0330    0.4150   -5.1890 ha        1 BAX      0.150500
     37 H20         7.0550   -3.3750   -1.4490 hc        1 BAX      0.124000
     38 H21         5.9710   -3.4210   -2.9080 hc        1 BAX      0.124000
     39 H24        10.6370   -4.5260   -3.4240 hc        1 BAX      0.121333
     40 H25        11.4360   -2.9080   -3.6240 hc        1 BAX      0.121333
     41 H28        11.6270   -3.8250   -2.0580 hc        1 BAX      0.121333
     42 H30         8.5190    0.9740    2.5080 hn        1 BAX      0.289500
     43 H311        7.0190    0.8210    1.6910 hn        1 BAX      0.289500
     44 H312        6.2980   -0.9830    3.0470 h4        1 BAX      0.205500
     45 H313        7.9480   -0.8430    4.0120 h4        1 BAX      0.205500
     46 H12         2.1970    1.2660    0.5670 hn        1 BAX      0.239000
     47 H14         3.0580   -0.2030   -1.0720 hn        1 BAX      0.272000
     48 H302        8.9090   -3.9450    0.9330 h4        1 BAX      0.145000
     49 C29         8.8590   -2.8560    1.1470 c2        1 BAX      0.267000
@<TRIPOS>BOND
     1    1   20 1   
     2    2    3 1   
     3    2   26 1   
     4    2   32 1   
     5    2   33 1   
     6    3    4 1   
     7    3   34 1   
     8    4   19 1   
     9    5   26 1   
    10    5   27 1   
    11    5   28 1   
    12    6   11 1   
    13    6   27 1   
    14    7    8 1   
    15    7   35 1   
    16    7   36 1   
    17    8    9 1   
    18    9   10 1   
    19    9   12 1   
    20   10   11 1   
    21   10   37 1   
    22   10   38 1   
    23   12   29 1   
    24   13   29 1   
    25   13   39 1   
    26   13   40 1   
    27   13   41 1   
    28   14   30 1   
    29   15   16 1   
    30   15   30 1   
    31   15   49 1   
    32   16   29 1   
    33   17   18 1   
    34   17   42 1   
    35   17   43 1   
    36   18   44 1   
    37   18   45 1   
    38   19   20 1   
    39   19   25 1   
    40   20   21 1   
    41   21   22 1   
    42   21   23 1   
    43   21   24 1   
    44   26   46 1   
    45   27   47 1   
    46   31   49 1   
    47   48   49 1   
@<TRIPOS>SUBSTRUCTURE
     1 BAX         1 TEMP              0 ****  ****    0 ROOT
