@<TRIPOS>MOLECULE
BAX
   48    50     1     0     0
SMALL
bcc


@<TRIPOS>ATOM
      1 C1         -1.3210   -0.7670   -4.9800 ca        1 BAX     -0.136000
      2 C2         -0.7320   -0.2530   -3.8040 ca        1 BAX      0.066600
      3 C3          0.2510    0.7540   -3.9260 ca        1 BAX     -0.103000
      4 C4          0.6200    1.2200   -5.1810 ca        1 BAX     -0.111000
      5 C13        -1.1060   -0.0720   -1.3580 c         1 BAX      0.774100
      6 C16        -1.5920   -0.1990    1.0700 ca        1 BAX      0.058600
      7 C17        -1.6180   -1.1250    2.1420 ca        1 BAX     -0.142000
      8 C18        -1.5730   -0.6820    3.4580 ca        1 BAX     -0.112500
      9 C19        -1.4870    0.6890    3.7180 ca        1 BAX      0.060100
     10 C20        -1.4510    1.6210    2.6750 ca        1 BAX     -0.112500
     11 C21        -1.5130    1.1800    1.3570 ca        1 BAX     -0.142000
     12 O22        -1.5670    1.1960    5.0170 os        1 BAX     -0.240200
     13 C24        -0.8060    1.1720    7.2470 ca        1 BAX     -0.253300
     14 C25         0.1660    0.7960    8.1890 ca        1 BAX      0.415200
     15 C27         1.4510   -0.2770    6.6030 ca        1 BAX      0.384800
     16 C28         0.5460    0.0450    5.5730 ca        1 BAX     -0.255300
     17 N30         3.8090   -0.9620    6.9440 n         1 BAX     -0.549900
     18 C31         4.9740   -1.7480    6.6850 c3        1 BAX      0.075300
     19 C5          0.0380    0.7010   -6.3440 ca        1 BAX      0.036400
     20 C6         -0.9360   -0.2990   -6.2370 ca        1 BAX     -0.137300
     21 C7         -1.6110   -0.9080   -7.4670 c3        1 BAX      0.692200
     22 F8         -2.3080   -0.0140   -8.2400 f         1 BAX     -0.232300
     23 F9         -0.7550   -1.5340   -8.3390 f         1 BAX     -0.232300
     24 F10        -2.5420   -1.8800   -7.1800 f         1 BAX     -0.232300
     25 CL11        0.5450    1.3170   -7.8400 cl        1 BAX     -0.056400
     26 N12        -1.1000   -0.8100   -2.5660 n         1 BAX     -0.466100
     27 N14        -1.7140   -0.6920   -0.2460 n         1 BAX     -0.459100
     28 O15        -0.6050    1.0710   -1.2900 o         1 BAX     -0.605100
     29 C23        -0.5980    0.7810    5.9130 ca        1 BAX      0.147100
     30 N26         1.2720    0.0900    7.8950 nb        1 BAX     -0.680000
     31 O32         2.5930   -1.8430    5.2060 o         1 BAX     -0.612100
     32 H1         -2.0940   -1.5520   -4.9210 ha        1 BAX      0.155000
     33 H3          0.7270    1.1860   -3.0270 ha        1 BAX      0.183000
     34 H4          1.3860    2.0090   -5.2590 ha        1 BAX      0.160000
     35 H17        -1.6770   -2.2070    1.9490 ha        1 BAX      0.157000
     36 H18        -1.5950   -1.4030    4.2890 ha        1 BAX      0.155000
     37 H20        -1.3880    2.6960    2.9000 ha        1 BAX      0.155000
     38 H21        -1.4840    1.9220    0.5410 ha        1 BAX      0.157000
     39 H24        -1.6940    1.7490    7.5330 ha        1 BAX      0.164000
     40 H25         0.0500    1.0770    9.2520 h4        1 BAX      0.029100
     41 H28         0.7410   -0.2900    4.5430 ha        1 BAX      0.182000
     42 H30         3.7890   -0.4430    7.7900 hn        1 BAX      0.328500
     43 H311        5.0820   -2.5650    7.4490 h1        1 BAX      0.046033
     44 H312        4.9100   -2.2150    5.6650 h1        1 BAX      0.046033
     45 H313        5.8830   -1.0890    6.7320 h1        1 BAX      0.046033
     46 H12        -1.6950   -1.6080   -2.6300 hn        1 BAX      0.314500
     47 H14        -1.8990   -1.6710   -0.3020 hn        1 BAX      0.312500
     48 C29         2.6560   -1.1000    6.2080 c         1 BAX      0.567600
@<TRIPOS>BOND
     1    1    2 ar  
     2    1   20 ar  
     3    1   32 1   
     4    2    3 ar  
     5    2   26 1   
     6    3    4 ar  
     7    3   33 1   
     8    4   19 ar  
     9    4   34 1   
    10    5   26 1   
    11    5   27 1   
    12    5   28 2   
    13    6    7 ar  
    14    6   11 ar  
    15    6   27 1   
    16    7    8 ar  
    17    7   35 1   
    18    8    9 ar  
    19    8   36 1   
    20    9   10 ar  
    21    9   12 1   
    22   10   11 ar  
    23   10   37 1   
    24   11   38 1   
    25   12   29 1   
    26   13   14 ar  
    27   13   29 ar  
    28   13   39 1   
    29   14   30 ar  
    30   14   40 1   
    31   15   16 ar  
    32   15   30 ar  
    33   15   48 1   
    34   16   29 ar  
    35   16   41 1   
    36   17   18 1   
    37   17   42 1   
    38   17   48 1   
    39   18   43 1   
    40   18   44 1   
    41   18   45 1   
    42   19   20 ar  
    43   19   25 1   
    44   20   21 1   
    45   21   22 1   
    46   21   23 1   
    47   21   24 1   
    48   26   46 1   
    49   27   47 1   
    50   31   48 2   
@<TRIPOS>SUBSTRUCTURE
     1 BAX         1 TEMP              0 ****  ****    0 ROOT
