@<TRIPOS>MOLECULE
BAX
   48    49     1     0     0
SMALL
bcc


@<TRIPOS>ATOM
      1 C1          0.4890   -0.2840    0.0360 c1        1 BAX     -0.104000
      2 C2          1.0450   -1.5600   -0.3170 c3        1 BAX     -0.033000
      3 C3          0.0190   -2.6280    2.9120 c1        1 BAX     -0.109000
      4 C4         -0.3880   -1.5810    2.4920 c1        1 BAX     -0.184000
      5 C13         2.4120   -1.8730   -2.3040 c2        1 BAX      0.384000
      6 C16         4.6830   -0.9190   -2.6720 c2        1 BAX      0.078000
      7 C17         5.9540   -0.9520   -3.5190 c3        1 BAX     -0.202000
      8 C18         7.1410   -1.1710   -2.6910 c1        1 BAX     -0.009000
      9 C19         7.1800   -0.8280   -1.2340 c3        1 BAX     -0.026000
     10 C20         5.9800    0.0120   -0.8230 c2        1 BAX     -0.100000
     11 C21         4.8970   -0.2380   -1.5280 c1        1 BAX     -0.294000
     12 O22         7.2350   -2.0330   -0.4690 os        1 BAX     -0.216000
     13 C24         9.4190   -2.6620   -1.3330 c2        1 BAX     -0.173000
     14 C25        10.6880   -2.6810   -0.9180 c1        1 BAX     -0.057000
     15 C27        10.6110   -1.3660    0.8460 c2        1 BAX      0.033000
     16 C28         9.2450   -1.4760    0.8130 c2        1 BAX     -0.285000
     17 N30        12.7000   -0.4830    1.9830 n3        1 BAX     -0.306000
     18 C31        10.9530    1.2640    3.2520 c2        1 BAX     -0.234000
     19 C5         -0.9030   -0.3630    2.0250 c2        1 BAX      0.081000
     20 C6         -0.5850    0.1520    0.7900 c2        1 BAX     -0.141000
     21 C7         -1.2840    1.4100    0.2390 c3        1 BAX      0.480000
     22 F8         -2.6550    1.3560    0.2900 f         1 BAX     -0.156000
     23 F9         -0.9540    2.5740    0.8860 f         1 BAX     -0.156000
     24 F10        -1.0210    1.6660   -1.0820 f         1 BAX     -0.156000
     25 CL11       -1.8260    0.4830    3.1670 cl        1 BAX      0.051000
     26 N12         2.3460   -1.5140   -0.9500 n         1 BAX     -0.309000
     27 N14         3.5530   -1.5790   -3.0870 n         1 BAX     -0.289000
     28 O15         1.5040   -2.5300   -2.8700 o         1 BAX     -0.397000
     29 C23         8.5360   -2.4660   -0.1040 c3        1 BAX      0.098000
     30 N26        11.3840   -2.3570    0.0960 n2        1 BAX     -0.078000
     31 O32        10.5350    0.4250    2.3410 os        1 BAX      0.069000
     32 H1          0.3050   -2.1100   -0.9890 h1        1 BAX      0.159500
     33 H3          1.1690   -2.1980    0.6220 h1        1 BAX      0.159500
     34 H4          0.3760   -3.5590    3.2810 ha        1 BAX      0.240000
     35 H17         6.1110    0.0210   -4.0690 hc        1 BAX      0.159500
     36 H18         5.9040   -1.7620   -4.2990 hc        1 BAX      0.159500
     37 H20         8.1110   -0.2060   -1.0670 h1        1 BAX      0.144000
     38 H21         6.1220    0.8120   -0.0910 ha        1 BAX      0.156000
     39 H24         8.3270   -3.4220    0.4590 h1        1 BAX      0.141000
     40 H25         9.0050   -2.6510   -2.3440 ha        1 BAX      0.204000
     41 H28         8.5960   -0.9000    1.4810 ha        1 BAX      0.163000
     42 H30        13.0800   -1.4010    1.8820 hn        1 BAX      0.185500
     43 H311       13.2420    0.1980    1.4880 hn        1 BAX      0.185500
     44 H312       10.1940    2.0120    3.5150 h4        1 BAX      0.159500
     45 H313       11.9570    1.2480    3.6790 h4        1 BAX      0.159500
     46 H12         2.9270   -0.7490   -0.6540 hn        1 BAX      0.250000
     47 H14         3.5370   -1.9590   -4.0090 hn        1 BAX      0.256000
     48 C29        11.3510   -0.4110    1.6410 c2        1 BAX     -0.142000
@<TRIPOS>BOND
     1    1    2 1   
     2    1   20 1   
     3    2   26 1   
     4    2   32 1   
     5    2   33 1   
     6    3    4 1   
     7    3   34 1   
     8    4   19 1   
     9    5   26 1   
    10    5   27 1   
    11    5   28 1   
    12    6    7 1   
    13    6   11 1   
    14    6   27 1   
    15    7    8 1   
    16    7   35 1   
    17    7   36 1   
    18    8    9 1   
    19    9   10 1   
    20    9   12 1   
    21    9   37 1   
    22   10   11 1   
    23   10   38 1   
    24   12   29 1   
    25   13   14 1   
    26   13   29 1   
    27   13   40 1   
    28   14   30 1   
    29   15   16 1   
    30   15   30 1   
    31   15   48 1   
    32   16   29 1   
    33   16   41 1   
    34   17   42 1   
    35   17   43 1   
    36   17   48 1   
    37   18   31 1   
    38   18   44 1   
    39   18   45 1   
    40   19   20 1   
    41   19   25 1   
    42   20   21 1   
    43   21   22 1   
    44   21   23 1   
    45   21   24 1   
    46   26   46 1   
    47   27   47 1   
    48   29   39 1   
    49   31   48 1   
@<TRIPOS>SUBSTRUCTURE
     1 BAX         1 TEMP              0 ****  ****    0 ROOT
