@<TRIPOS>MOLECULE
BB0
   31    30     1     0     0
SMALL
bcc


@<TRIPOS>ATOM
      1 NAB         0.1410    0.4210   -0.1800 nh        1 BB0     -0.624400
      2 CAG         7.2900    0.0420   -1.8530 cg        1 BB0     -0.169200
      3 CAH         4.4870   -0.1650    3.5880 c2        1 BB0     -0.209000
      4 CAI         3.7170    0.2310    2.5720 ce        1 BB0     -0.131000
      5 CAJ         3.0210   -0.6990    1.6980 ce        1 BB0     -0.108100
      6 CAK         4.7400    0.1120   -1.7510 ch        1 BB0     -0.075000
      7 CAL         6.0900    0.0750   -1.8100 ch        1 BB0      0.042000
      8 CAM         2.2590   -0.3330    0.7050 c1        1 BB0     -0.107800
      9 CAN         1.5110    0.0530   -0.3100 c2        1 BB0      0.065700
     10 CAO         2.1110    0.1940   -1.6920 c3        1 BB0      0.041900
     11 CAP         3.5410    0.1440   -1.7020 c1        1 BB0     -0.048100
     12 CAQ        -0.3840    0.3430    1.1650 c3        1 BB0      0.164600
     13 CAR        -0.7410   -0.1370   -1.1810 c3        1 BB0      0.164600
     14 CAS         9.3890    0.0340   -0.5640 c3        1 BB0     -0.192100
     15 OAU         9.3460   -0.0530   -2.9640 o         1 BB0     -0.510100
     16 HAH         5.0040    0.5520    4.2390 ha        1 BB0      0.113500
     17 HAI         4.6500   -1.2220    3.8370 ha        1 BB0      0.113500
     18 HAL         3.5750    1.3020    2.3490 ha        1 BB0      0.129000
     19 HAM         3.1690   -1.7760    1.9100 ha        1 BB0      0.133000
     20 HAO         1.7810    1.1740   -2.1470 hc        1 BB0      0.082700
     21 HAP         1.7130   -0.6380   -2.3440 hc        1 BB0      0.082700
     22 HAQ         0.2990    0.9010    1.8570 h1        1 BB0      0.039533
     23 HAQA       -1.3940    0.8290    1.1800 h1        1 BB0      0.039533
     24 HAQB       -0.4850   -0.7130    1.5360 h1        1 BB0      0.039533
     25 HAR        -1.7760    0.2620   -1.0090 h1        1 BB0      0.039533
     26 HARA       -0.4010    0.1890   -2.1990 h1        1 BB0      0.039533
     27 HARB       -0.7820   -1.2600   -1.1570 h1        1 BB0      0.039533
     28 HAS         9.0590   -0.8440    0.0440 hc        1 BB0      0.069033
     29 HASA       10.4990   -0.0010   -0.6870 hc        1 BB0      0.069033
     30 HASB        9.1090    0.9700   -0.0230 hc        1 BB0      0.069033
     31 CAF         8.7170    0.0020   -1.9020 c         1 BB0      0.598300
@<TRIPOS>BOND
     1    1    9 1   
     2    1   12 1   
     3    1   13 1   
     4    2    7 3   
     5    2   31 1   
     6    3    4 2   
     7    3   16 1   
     8    3   17 1   
     9    4    5 1   
    10    4   18 1   
    11    5    8 2   
    12    5   19 1   
    13    6    7 1   
    14    6   11 3   
    15    8    9 2   
    16    9   10 1   
    17   10   11 1   
    18   10   20 1   
    19   10   21 1   
    20   12   22 1   
    21   12   23 1   
    22   12   24 1   
    23   13   25 1   
    24   13   26 1   
    25   13   27 1   
    26   14   28 1   
    27   14   29 1   
    28   14   30 1   
    29   14   31 1   
    30   15   31 2   
@<TRIPOS>SUBSTRUCTURE
     1 BB0         1 TEMP              0 ****  ****    0 ROOT
