@<TRIPOS>MOLECULE
BB0
   32    30     1     0     0
SMALL
bcc


@<TRIPOS>ATOM
      1 NAB         0.8770    0.7800   -1.2200 n1        1 BB0     -0.500800
      2 CAG         7.5830    0.5380   -2.2130 cg        1 BB0     -0.054200
      3 CAH         2.0230   -0.0620    3.7150 c2        1 BB0     -0.154000
      4 CAI         3.0900    0.3690    3.0350 ce        1 BB0     -0.178000
      5 CAJ         3.3320    0.1670    1.6230 ce        1 BB0     -0.024000
      6 CAK         5.2280   -0.0720   -1.4370 ch        1 BB0      0.078000
      7 CAL         6.4760    0.2490   -1.8460 ch        1 BB0     -0.056000
      8 CAM         2.5040   -0.4700    0.7790 c2        1 BB0     -0.278200
      9 CAN         1.8050   -0.0050   -1.5860 c2        1 BB0      0.567900
     10 CAO         2.7930   -0.7090   -0.6610 c3        1 BB0      0.020300
     11 CAP         4.1110   -0.3410   -1.0900 c1        1 BB0     -0.194100
     12 CAQ        -1.0810   -1.1760    1.9210 c3        1 BB0     -0.108800
     13 CAR        -0.0300    1.5470   -0.7980 c2        1 BB0      0.569800
     14 CAS         9.9990    0.0240   -2.1510 c3        1 BB0     -0.193100
     15 OAU         9.0810    1.8580   -3.4140 o         1 BB0     -0.473100
     16 HAH         1.9140    0.1220    4.7940 ha        1 BB0      0.125500
     17 HAI         1.1970   -0.6260    3.2570 ha        1 BB0      0.125500
     18 HAL         3.8890    0.9250    3.5600 ha        1 BB0      0.148000
     19 HAM         4.2910    0.5800    1.2530 ha        1 BB0      0.143000
     20 HAO         1.9260   -0.2050   -2.6820 h4        1 BB0      0.082800
     21 HAP         2.6430   -1.8220   -0.8690 hc        1 BB0      0.131700
     22 HAQ        -0.7380   -0.4100    1.1900 hc        1 BB0      0.027950
     23 HAQA       -0.3320   -1.9960    1.9810 hc        1 BB0      0.027950
     24 HAQB       -1.1980   -0.7050    2.9220 hc        1 BB0      0.027950
     25 HAR        -2.0590   -1.5910    1.5930 hc        1 BB0      0.027950
     26 HARA       -1.0360    1.1450   -0.5330 h4        1 BB0      0.072800
     27 HARB        0.1530    2.6430   -0.7030 h4        1 BB0      0.072800
     28 HAS         9.8310   -1.0320   -2.4810 hc        1 BB0      0.081033
     29 HASA       10.9860    0.3750   -2.5420 hc        1 BB0      0.081033
     30 HASB       10.0190    0.0510   -1.0340 hc        1 BB0      0.081033
     31 HAB1        1.5580   -0.9180    1.1290 ha        1 BB0      0.141000
     32 CAF         8.9020    0.8970   -2.6630 c         1 BB0      0.582300
@<TRIPOS>BOND
     1    1    9 2   
     2    1   13 2   
     3    2    7 3   
     4    2   32 1   
     5    3    4 2   
     6    3   16 1   
     7    3   17 1   
     8    4    5 1   
     9    4   18 1   
    10    5    8 2   
    11    5   19 1   
    12    6    7 1   
    13    6   11 3   
    14    8   10 1   
    15    8   31 1   
    16    9   10 1   
    17    9   20 1   
    18   10   11 1   
    19   10   21 1   
    20   12   22 1   
    21   12   23 1   
    22   12   24 1   
    23   12   25 1   
    24   13   26 1   
    25   13   27 1   
    26   14   28 1   
    27   14   29 1   
    28   14   30 1   
    29   14   32 1   
    30   15   32 2   
@<TRIPOS>SUBSTRUCTURE
     1 BB0         1 TEMP              0 ****  ****    0 ROOT
