@<TRIPOS>MOLECULE
BB0
   31    32     1     0     0
SMALL
bcc


@<TRIPOS>ATOM
      1 NAB         3.9210    0.1430    0.2650 nh        1 BB0     -0.658000
      2 CAG        -2.5500    0.0830   -0.0230 ca        1 BB0     -0.196600
      3 CAH        -2.0860    1.4250   -0.0180 ca        1 BB0     -0.089000
      4 CAI        -0.7440    1.7030    0.0190 ca        1 BB0     -0.144000
      5 CAJ         0.2180    0.6520    0.0550 ca        1 BB0      0.026000
      6 CAK        -0.2410   -0.6890    0.0510 ca        1 BB0     -0.093000
      7 CAL        -1.6330   -0.9520    0.0110 ca        1 BB0     -0.031000
      8 CAM         1.6060    0.9240    0.0900 ca        1 BB0     -0.213000
      9 CAN         2.5450   -0.1080    0.1370 ca        1 BB0      0.180600
     10 CAO         2.0620   -1.4640    0.1230 ca        1 BB0     -0.170000
     11 CAP         0.7210   -1.7330    0.0840 ca        1 BB0     -0.077000
     12 CAQ         4.3720    1.5010    0.1070 c3        1 BB0      0.186600
     13 CAR         4.8290   -0.8880   -0.1730 c3        1 BB0      0.186600
     14 CAS        -4.9540    0.9140   -0.0660 c3        1 BB0     -0.197100
     15 OAU        -4.3990   -1.4030   -0.0910 o         1 BB0     -0.546100
     16 HAH        -2.8150    2.2500   -0.0460 ha        1 BB0      0.132000
     17 HAI        -0.3860    2.7430    0.0230 ha        1 BB0      0.134000
     18 HAL        -1.9860   -1.9970    0.0070 ha        1 BB0      0.154000
     19 HAM         1.9120    1.9810    0.0830 ha        1 BB0      0.136000
     20 HAO         2.7760   -2.3000    0.1520 ha        1 BB0      0.137000
     21 HAP         0.3640   -2.7760    0.0770 ha        1 BB0      0.137000
     22 HAQ         3.8930    2.1390    0.8980 h1        1 BB0      0.039367
     23 HAQA        5.4840    1.5480    0.2450 h1        1 BB0      0.039367
     24 HAQB        4.1150    1.9260   -0.9020 h1        1 BB0      0.039367
     25 HAR         4.5620   -1.2900   -1.1880 h1        1 BB0      0.039367
     26 HARA        5.8760   -0.4900   -0.2110 h1        1 BB0      0.039367
     27 HARB        4.8030   -1.7330    0.5670 h1        1 BB0      0.039367
     28 HAS        -4.7860    1.5490   -0.9700 hc        1 BB0      0.063367
     29 HASA       -6.0060    0.5380   -0.0800 hc        1 BB0      0.063367
     30 HASB       -4.8060    1.5390    0.8490 hc        1 BB0      0.063367
     31 CAF        -3.9920   -0.2330   -0.0620 c         1 BB0      0.579700
@<TRIPOS>BOND
     1    1    9 1   
     2    1   12 1   
     3    1   13 1   
     4    2    3 ar  
     5    2    7 ar  
     6    2   31 1   
     7    3    4 ar  
     8    3   16 1   
     9    4    5 ar  
    10    4   17 1   
    11    5    6 ar  
    12    5    8 ar  
    13    6    7 ar  
    14    6   11 ar  
    15    7   18 1   
    16    8    9 ar  
    17    8   19 1   
    18    9   10 ar  
    19   10   11 ar  
    20   10   20 1   
    21   11   21 1   
    22   12   22 1   
    23   12   23 1   
    24   12   24 1   
    25   13   25 1   
    26   13   26 1   
    27   13   27 1   
    28   14   28 1   
    29   14   29 1   
    30   14   30 1   
    31   14   31 1   
    32   15   31 2   
@<TRIPOS>SUBSTRUCTURE
     1 BB0         1 TEMP              0 ****  ****    0 ROOT
