@<TRIPOS>MOLECULE
BB0
   31    27     1     0     0
SMALL
bcc


@<TRIPOS>ATOM
      1 NAB        -3.5040   -0.0400   -0.0090 n3        1 BB0     -0.245000
      2 CAF         4.3380   -0.0160   -0.4640 c1        1 BB0      0.269000
      3 CAG         2.9190    0.0560    0.0350 c1        1 BB0     -0.170000
      4 CAH         2.4460    0.1220    1.3420 c2        1 BB0     -0.093000
      5 CAI         1.0810    0.1180    1.5860 c1        1 BB0     -0.139000
      6 CAJ         0.1730    0.0460    0.5120 c1        1 BB0     -0.033000
      7 CAK         0.6410   -0.0200   -0.7810 c1        1 BB0     -0.033000
      8 CAL         2.0230   -0.0150   -1.0280 c1        1 BB0     -0.036000
      9 CAM        -1.2140    0.0410    0.7590 c1        1 BB0     -0.142000
     10 CAN        -2.1090   -0.0290   -0.3020 c1        1 BB0      0.073000
     11 CAO        -1.6360   -0.0960   -1.6070 c1        1 BB0     -0.146000
     12 CAP        -0.2630   -0.0910   -1.8530 c1        1 BB0     -0.142000
     13 CAQ        -4.1570   -1.2660    0.2850 c3        1 BB0     -0.103000
     14 CAR        -4.2450    1.2060    0.0470 c3        1 BB0     -0.103000
     15 CAS         5.4770   -0.0220    0.5160 c3        1 BB0     -0.265000
     16 OAU         4.5650    0.0510   -1.6580 o         1 BB0     -0.305000
     17 HAH         3.0680    0.2640    2.0750 ha        1 BB0      0.133000
     18 HAI         0.7510    0.1640    2.4990 ha        1 BB0      0.134000
     19 HAL         2.3560   -0.0880   -1.9430 ha        1 BB0      0.155000
     20 HAM        -1.5450    0.0970    1.6700 ha        1 BB0      0.137000
     21 HAO        -2.2600   -0.0990   -2.3480 ha        1 BB0      0.140000
     22 HAP         0.0710   -0.1380   -2.7750 ha        1 BB0      0.137000
     23 HAQ        -3.9340   -1.5430    1.1980 h1        1 BB0      0.077833
     24 HAQA       -3.8610   -1.9520   -0.3460 h1        1 BB0      0.077833
     25 HAQB       -5.1260   -1.1460    0.2070 h1        1 BB0      0.077833
     26 HAR        -4.1010    1.7070   -0.7770 h1        1 BB0      0.077833
     27 HARA       -3.9290    1.7450    0.8220 h1        1 BB0      0.077833
     28 HARB       -5.2000    1.0130    0.1500 h1        1 BB0      0.077833
     29 HAS         5.3860    0.7350    1.1280 hc        1 BB0      0.103000
     30 HASA        6.3260    0.0510    0.0310 hc        1 BB0      0.103000
     31 HASB        5.4640   -0.8570    1.0260 hc        1 BB0      0.103000
@<TRIPOS>BOND
     1    1   10 1   
     2    1   13 1   
     3    1   14 1   
     4    2   15 1   
     5    2   16 1   
     6    3    4 1   
     7    3    8 1   
     8    4    5 1   
     9    4   17 1   
    10    5   18 1   
    11    6    7 1   
    12    6    9 1   
    13    7   12 1   
    14    8   19 1   
    15    9   20 1   
    16   10   11 1   
    17   11   21 1   
    18   12   22 1   
    19   13   23 1   
    20   13   24 1   
    21   13   25 1   
    22   14   26 1   
    23   14   27 1   
    24   14   28 1   
    25   15   29 1   
    26   15   30 1   
    27   15   31 1   
@<TRIPOS>SUBSTRUCTURE
     1 BB0         1 TEMP              0 ****  ****    0 ROOT
