@<TRIPOS>MOLECULE
BB0
   31    30     1     0     0
SMALL
bcc


@<TRIPOS>ATOM
      1 NAB        -0.5030   -0.5510   -1.5140 n3        1 BB0     -0.261000
      2 CAG         6.2510    0.2160    1.0730 c2        1 BB0     -0.138000
      3 CAH         7.3640    0.1110    2.0010 c2        1 BB0     -0.128000
      4 CAI         7.3390    0.3900    3.3140 c2        1 BB0     -0.064000
      5 CAJ         6.1970    0.8930    4.0390 c2        1 BB0     -0.460000
      6 CAK         3.8990   -0.1160    0.5220 c1        1 BB0     -0.187000
      7 CAL         4.9980   -0.1810    1.3810 c2        1 BB0      0.001000
      8 CAM         5.9900    0.8830    5.3390 c1        1 BB0      0.206000
      9 CAN         0.6160   -0.4880   -0.6990 c2        1 BB0      0.023000
     10 CAO         1.8330    0.0120   -1.0470 c2        1 BB0     -0.198000
     11 CAP         2.9330   -0.0660   -0.1930 c1        1 BB0     -0.047000
     12 CAQ        -1.7900   -0.6420   -0.8730 c3        1 BB0     -0.091500
     13 CAR        -0.4780    0.1270   -2.7830 c3        1 BB0     -0.091500
     14 CAS         7.1250   -0.2460   -1.2410 c3        1 BB0     -0.266000
     15 OAU         6.5000    1.9600   -0.5440 o         1 BB0     -0.275000
     16 HAH         8.3130   -0.2210    1.5410 ha        1 BB0      0.133000
     17 HAI         8.2590    0.2550    3.9110 ha        1 BB0      0.130000
     18 HAL         4.7900   -0.6180    2.3780 ha        1 BB0      0.145000
     19 HAM         5.4010    1.3620    3.4100 ha        1 BB0      0.208000
     20 HAO         0.4740   -0.9530    0.2990 h4        1 BB0      0.143000
     21 HAP         2.0170    0.5020   -2.0190 ha        1 BB0      0.147000
     22 HAQ        -2.1800    0.3660   -0.5680 h1        1 BB0      0.081000
     23 HAQA       -2.5180   -1.1060   -1.5910 h1        1 BB0      0.081000
     24 HAQB       -1.7200   -1.2930    0.0380 h1        1 BB0      0.081000
     25 HAR        -0.3820    1.2410   -2.6670 h1        1 BB0      0.081000
     26 HARA       -1.4220   -0.0980   -3.3450 h1        1 BB0      0.081000
     27 HARB        0.3960   -0.2470   -3.3820 h1        1 BB0      0.081000
     28 HAS         6.3110   -0.9710   -1.4890 hc        1 BB0      0.105000
     29 HASA        7.4680    0.2520   -2.1800 hc        1 BB0      0.105000
     30 HASB        7.9780   -0.8080   -0.7900 hc        1 BB0      0.105000
     31 CAF         6.6090    0.7630   -0.2650 c2        1 BB0      0.272000
@<TRIPOS>BOND
     1    1    9 1   
     2    1   12 1   
     3    1   13 1   
     4    2    3 1   
     5    2    7 1   
     6    2   31 1   
     7    3    4 1   
     8    3   16 1   
     9    4    5 1   
    10    4   17 1   
    11    5    8 1   
    12    5   19 1   
    13    6    7 1   
    14    6   11 1   
    15    7   18 1   
    16    9   10 1   
    17    9   20 1   
    18   10   11 1   
    19   10   21 1   
    20   12   22 1   
    21   12   23 1   
    22   12   24 1   
    23   13   25 1   
    24   13   26 1   
    25   13   27 1   
    26   14   28 1   
    27   14   29 1   
    28   14   30 1   
    29   14   31 1   
    30   15   31 1   
@<TRIPOS>SUBSTRUCTURE
     1 BB0         1 TEMP              0 ****  ****    0 ROOT
