@<TRIPOS>MOLECULE
BB1
   54    53     1     0     0
SMALL
bcc


@<TRIPOS>ATOM
      1 C2          0.2740   -2.2470    2.6930 c3        1 BB1      0.070000
      2 C3          0.1470   -0.9600    1.8590 c3        1 BB1     -0.156700
      3 C4          0.2620   -1.3460    0.3860 c         1 BB1      0.654100
      4 O3          0.8900   -2.3610    0.0220 o         1 BB1     -0.615100
      5 N2         -0.4160   -0.5510   -0.5270 n         1 BB1     -0.536900
      6 C5         -0.1800   -0.6930   -1.9450 c3        1 BB1      0.037700
      7 C7          1.2410    0.0320    2.2240 c3        1 BB1     -0.084400
      8 C8          1.0170    1.4070    1.6300 c3        1 BB1     -0.092400
      9 C9          1.9310    2.4290    2.2770 c3        1 BB1     -0.075400
     10 C10         1.7500    3.7930    1.6620 c3        1 BB1     -0.095100
     11 N1         -0.2240   -2.1950    4.0660 n         1 BB1     -0.296300
     12 C1         -1.5980   -1.8690    4.2340 c         1 BB1      0.607900
     13 O1         -2.0330   -1.3290    5.2570 o         1 BB1     -0.549100
     14 O2          0.6170   -1.5310    4.8680 oh        1 BB1     -0.434100
     15 C6          1.0390    0.1750   -2.3630 c         1 BB1      0.635100
     16 N3          2.1130   -0.4130   -3.0050 n         1 BB1     -0.466800
     17 C16         3.2430    0.3840   -3.4000 c3        1 BB1      0.071800
     18 C15         2.2490   -1.8390   -3.1150 c3        1 BB1      0.071800
     19 O4          1.0450    1.3980   -2.1040 o         1 BB1     -0.627100
     20 C11        -1.4130   -0.3080   -2.8130 c3        1 BB1     -0.044000
     21 C12        -1.9970    1.0380   -2.4180 c3        1 BB1     -0.096100
     22 C13        -0.9770   -0.2600   -4.2710 c3        1 BB1     -0.096100
     23 C14        -2.4770   -1.3870   -2.6500 c3        1 BB1     -0.096100
     24 H21        -0.2990   -3.0740    2.1860 h1        1 BB1      0.085700
     25 H22         1.3600   -2.5420    2.7350 h1        1 BB1      0.085700
     26 H3         -0.8570   -0.4890    2.0530 hc        1 BB1      0.067700
     27 HN2        -0.6970    0.3590   -0.2310 hn        1 BB1      0.319500
     28 H5          0.0270   -1.7890   -2.1390 h1        1 BB1      0.096700
     29 H71         2.2340   -0.3680    1.8870 hc        1 BB1      0.065700
     30 H72         1.2800    0.1150    3.3450 hc        1 BB1      0.065700
     31 H81        -0.0500    1.7190    1.7780 hc        1 BB1      0.046700
     32 H82         1.2140    1.3930    0.5240 hc        1 BB1      0.046700
     33 H91         2.9970    2.1000    2.1590 hc        1 BB1      0.040700
     34 H92         1.7190    2.4790    3.3770 hc        1 BB1      0.040700
     35 H101        2.4390    4.5280    2.1430 hc        1 BB1      0.035700
     36 H102        1.9700    3.7640    0.5670 hc        1 BB1      0.035700
     37 H103        0.7010    4.1500    1.7990 hc        1 BB1      0.035700
     38 H1         -2.2470   -2.2600    3.4180 h5        1 BB1      0.038200
     39 H2          0.5700   -1.9920    5.7290 ho        1 BB1      0.429000
     40 H161        4.1260    0.1690   -2.7380 h1        1 BB1      0.047867
     41 H162        3.5190    0.1400   -4.4600 h1        1 BB1      0.047867
     42 H163        2.9940    1.4760   -3.3270 h1        1 BB1      0.047867
     43 H151        2.1040   -2.3360   -2.1160 h1        1 BB1      0.047867
     44 H152        1.4920   -2.2450   -3.8400 h1        1 BB1      0.047867
     45 H153        3.2730   -2.0950   -3.4950 h1        1 BB1      0.047867
     46 H121       -2.7160    1.3810   -3.2010 hc        1 BB1      0.043256
     47 H122       -2.5510    0.9670   -1.4510 hc        1 BB1      0.043256
     48 H123       -1.1870    1.8020   -2.3180 hc        1 BB1      0.043256
     49 H131       -0.2960    0.6080   -4.4460 hc        1 BB1      0.043256
     50 H132       -0.4450   -1.2000   -4.5530 hc        1 BB1      0.043256
     51 H133       -1.8710   -0.1460   -4.9300 hc        1 BB1      0.043256
     52 H141       -2.7950   -1.4720   -1.5830 hc        1 BB1      0.043256
     53 H142       -3.3720   -1.1290   -3.2660 hc        1 BB1      0.043256
     54 H143       -2.0860   -2.3760   -2.9870 hc        1 BB1      0.043256
@<TRIPOS>BOND
     1    1    2 1   
     2    1   11 1   
     3    1   24 1   
     4    1   25 1   
     5    2    3 1   
     6    2    7 1   
     7    2   26 1   
     8    3    4 2   
     9    3    5 1   
    10    5    6 1   
    11    5   27 1   
    12    6   15 1   
    13    6   20 1   
    14    6   28 1   
    15    7    8 1   
    16    7   29 1   
    17    7   30 1   
    18    8    9 1   
    19    8   31 1   
    20    8   32 1   
    21    9   10 1   
    22    9   33 1   
    23    9   34 1   
    24   10   35 1   
    25   10   36 1   
    26   10   37 1   
    27   11   12 1   
    28   11   14 1   
    29   12   13 2   
    30   12   38 1   
    31   14   39 1   
    32   15   16 1   
    33   15   19 2   
    34   16   17 1   
    35   16   18 1   
    36   17   40 1   
    37   17   41 1   
    38   17   42 1   
    39   18   43 1   
    40   18   44 1   
    41   18   45 1   
    42   20   21 1   
    43   20   22 1   
    44   20   23 1   
    45   21   46 1   
    46   21   47 1   
    47   21   48 1   
    48   22   49 1   
    49   22   50 1   
    50   22   51 1   
    51   23   52 1   
    52   23   53 1   
    53   23   54 1   
@<TRIPOS>SUBSTRUCTURE
     1 BB1         1 TEMP              0 ****  ****    0 ROOT
