@<TRIPOS>MOLECULE
BB1
   57    56     1     0     0
SMALL
bcc


@<TRIPOS>ATOM
      1 C2          0.2110    1.9980   -0.0950 c3        1 BB1      0.081800
      2 C3          1.0260    0.7030    0.1040 c3        1 BB1     -0.135700
      3 C4          1.3320    0.5830    1.5890 c         1 BB1      0.559100
      4 O3          1.5080    1.4940    2.3830 o         1 BB1     -0.423100
      5 N2          1.4790   -0.8200    2.1330 n4        1 BB1     -0.690800
      6 C5          1.7860   -0.9310    3.6100 c3        1 BB1      0.065500
      7 C7          2.3400    0.7490   -0.6770 c3        1 BB1     -0.117400
      8 C8          3.1560   -0.5220   -0.5710 c3        1 BB1     -0.097400
      9 C9          4.2100   -0.5760   -1.6660 c3        1 BB1     -0.077400
     10 C10         5.0690   -1.8060   -1.5320 c3        1 BB1     -0.106100
     11 N1         -0.3440    2.1850   -1.4760 n4        1 BB1     -0.425700
     12 C1         -1.6320    3.1100   -1.5300 c         1 BB1      0.579900
     13 O1         -2.3200    3.1150   -0.5450 o         1 BB1     -0.320100
     14 O2          0.5890    2.6210   -2.3520 oh        1 BB1     -0.351300
     15 C6          3.2640   -0.5900    3.8520 c         1 BB1      0.518100
     16 N3          3.7000    0.3050    4.9770 n4        1 BB1     -0.566200
     17 C16         4.5110   -0.4430    5.9940 c3        1 BB1      0.072600
     18 C15         2.6110    1.0740    5.6300 c3        1 BB1      0.072600
     19 O4          4.1510   -1.0010    3.1100 o         1 BB1     -0.397100
     20 C11         1.4570   -2.3860    4.1120 c3        1 BB1     -0.051000
     21 C12         2.0530   -3.4350    3.1880 c3        1 BB1     -0.131767
     22 C13         2.0330   -2.5580    5.5070 c3        1 BB1     -0.131767
     23 C14        -0.0560   -2.5360    4.1770 c3        1 BB1     -0.131767
     24 H21         0.8670    2.8870    0.1440 hx        1 BB1      0.134200
     25 H22        -0.6720    2.0010    0.6130 hx        1 BB1      0.134200
     26 H3          0.4220   -0.1860   -0.2390 hc        1 BB1      0.109700
     27 HN2         2.2230   -1.3140    1.5990 hn        1 BB1      0.497300
     28 H5          1.1030   -0.2060    4.1480 hx        1 BB1      0.145700
     29 H71         2.0920    0.9230   -1.7630 hc        1 BB1      0.101200
     30 H72         2.9540    1.6260   -0.3370 hc        1 BB1      0.101200
     31 H81         3.6830   -0.5630    0.4220 hc        1 BB1      0.031700
     32 H82         2.4940   -1.4230   -0.6640 hc        1 BB1      0.031700
     33 H91         3.7070   -0.5770   -2.6700 hc        1 BB1      0.067200
     34 H92         4.8510    0.3430   -1.6130 hc        1 BB1      0.067200
     35 H101        5.6110   -1.8140   -0.5550 hc        1 BB1      0.058033
     36 H102        5.8320   -1.8250   -2.3510 hc        1 BB1      0.058033
     37 H103        4.4550   -2.7360   -1.6090 hc        1 BB1      0.058033
     38 H1         -1.6950    3.6040   -2.5300 hx        1 BB1      0.199200
     39 H2          0.8040    3.5640   -2.1620 ho        1 BB1      0.482000
     40 H161        3.8340   -1.0190    6.6800 hx        1 BB1      0.127367
     41 H162        5.2240   -1.1370    5.4690 hx        1 BB1      0.127367
     42 H163        5.0970    0.3060    6.6000 hx        1 BB1      0.127367
     43 H151        1.9110    0.3830    6.1720 hx        1 BB1      0.127367
     44 H152        2.0610    1.6830    4.8630 hx        1 BB1      0.127367
     45 H153        3.0740    1.7730    6.3890 hx        1 BB1      0.127367
     46 H121        1.4570   -3.5550    2.2510 hc        1 BB1      0.076811
     47 H122        2.0420   -4.4330    3.7050 hc        1 BB1      0.076811
     48 H123        3.1160   -3.2030    2.9340 hc        1 BB1      0.076811
     49 H131        1.6660   -3.5270    5.9420 hc        1 BB1      0.076811
     50 H132        1.7020   -1.7390    6.1900 hc        1 BB1      0.076811
     51 H133        3.1490   -2.6140    5.4710 hc        1 BB1      0.076811
     52 H141       -0.5300   -2.5040    3.1670 hc        1 BB1      0.076811
     53 H142       -0.3050   -3.5370    4.6230 hc        1 BB1      0.076811
     54 H143       -0.5150   -1.7530    4.8290 hc        1 BB1      0.076811
     55 H221        0.5930   -1.3330    1.9760 hn        1 BB1      0.497300
     56 H11        -0.6310    1.2540   -1.8570 hn        1 BB1      0.491800
     57 H31         4.3510    0.9900    4.5430 hn        1 BB1      0.484800
@<TRIPOS>BOND
     1    1    2 1   
     2    1   11 1   
     3    1   24 1   
     4    1   25 1   
     5    2    3 1   
     6    2    7 1   
     7    2   26 1   
     8    3    4 2   
     9    3    5 1   
    10    5    6 1   
    11    5   27 1   
    12    5   55 1   
    13    6   15 1   
    14    6   20 1   
    15    6   28 1   
    16    7    8 1   
    17    7   29 1   
    18    7   30 1   
    19    8    9 1   
    20    8   31 1   
    21    8   32 1   
    22    9   10 1   
    23    9   33 1   
    24    9   34 1   
    25   10   35 1   
    26   10   36 1   
    27   10   37 1   
    28   11   12 1   
    29   11   14 1   
    30   11   56 1   
    31   12   13 2   
    32   12   38 1   
    33   14   39 1   
    34   15   16 1   
    35   15   19 2   
    36   16   17 1   
    37   16   18 1   
    38   16   57 1   
    39   17   40 1   
    40   17   41 1   
    41   17   42 1   
    42   18   43 1   
    43   18   44 1   
    44   18   45 1   
    45   20   21 1   
    46   20   22 1   
    47   20   23 1   
    48   21   46 1   
    49   21   47 1   
    50   21   48 1   
    51   22   49 1   
    52   22   50 1   
    53   22   51 1   
    54   23   52 1   
    55   23   53 1   
    56   23   54 1   
@<TRIPOS>SUBSTRUCTURE
     1 BB1         1 TEMP              0 ****  ****    0 ROOT
