@<TRIPOS>MOLECULE
BB1
   57    56     1     0     0
SMALL
bcc


@<TRIPOS>ATOM
      1 C2          0.2800    2.1190   -0.0130 c3        1 BB1      0.081800
      2 C3          1.0690    0.8010    0.1400 c3        1 BB1     -0.135700
      3 C4          1.3530    0.6110    1.6220 c         1 BB1      0.559100
      4 O3          1.5340    1.4840    2.4570 o         1 BB1     -0.424100
      5 N2          1.4680   -0.8170    2.1070 ny        1 BB1     -0.690800
      6 C5          1.7530   -0.9970    3.5810 c3        1 BB1      0.065500
      7 C7          2.3940    0.8560   -0.6220 c3        1 BB1     -0.117400
      8 C8          3.1860   -0.4320   -0.5610 c3        1 BB1     -0.097400
      9 C9          4.2530   -0.4590   -1.6440 c3        1 BB1     -0.077400
     10 C10         5.0880   -1.7100   -1.5530 c3        1 BB1     -0.106100
     11 N1         -0.2530    2.3750   -1.3920 nx        1 BB1     -0.425700
     12 C1         -1.5230    3.3250   -1.4210 c         1 BB1      0.579900
     13 O1         -2.2240    3.3000   -0.4460 o         1 BB1     -0.320100
     14 O2          0.6990    2.8300   -2.2360 oh        1 BB1     -0.351300
     15 C6          3.2330   -0.6930    3.8570 c         1 BB1      0.518100
     16 N3          3.6680    0.1450    5.0250 nx        1 BB1     -0.566200
     17 C16         4.4520   -0.6600    6.0190 c3        1 BB1      0.072600
     18 C15         2.5840    0.9050    5.6970 c3        1 BB1      0.072600
     19 O4          4.1220   -1.0870    3.1090 o         1 BB1     -0.397100
     20 C11         1.3920   -2.4660    4.0150 c3        1 BB1     -0.051000
     21 C12         1.9830   -3.4850    3.0540 c3        1 BB1     -0.131767
     22 C13         1.9460   -2.7080    5.4090 c3        1 BB1     -0.131767
     23 C14        -0.1240   -2.5910    4.0540 c3        1 BB1     -0.131767
     24 H21        -0.6120    2.1070    0.6830 hx        1 BB1      0.134200
     25 H22         0.9490    2.9840    0.2730 hx        1 BB1      0.134200
     26 H3          0.4540   -0.0610   -0.2490 hc        1 BB1      0.109700
     27 HN2         2.2110   -1.3000    1.5610 hn        1 BB1      0.497300
     28 H5          1.0750   -0.2830    4.1410 hx        1 BB1      0.145700
     29 H71         3.0190    1.7070   -0.2370 hc        1 BB1      0.101200
     30 H72         2.1640    1.0820   -1.7020 hc        1 BB1      0.101200
     31 H81         2.5090   -1.3170   -0.7010 hc        1 BB1      0.031700
     32 H82         3.6990   -0.5260    0.4350 hc        1 BB1      0.031700
     33 H91         3.7630   -0.4080   -2.6530 hc        1 BB1      0.067200
     34 H92         4.9100    0.4450   -1.5430 hc        1 BB1      0.067200
     35 H101        5.8610   -1.7070   -2.3630 hc        1 BB1      0.058033
     36 H102        5.6160   -1.7690   -0.5710 hc        1 BB1      0.058033
     37 H103        4.4590   -2.6230   -1.6780 hc        1 BB1      0.058033
     38 H1         -1.5630    3.8630   -2.4000 hx        1 BB1      0.199200
     39 H2          0.9290    3.7610   -2.0020 ho        1 BB1      0.482000
     40 H161        5.1610   -1.3430    5.4730 hx        1 BB1      0.127367
     41 H162        5.0430    0.0510    6.6650 hx        1 BB1      0.127367
     42 H163        3.7560   -1.2540    6.6710 hx        1 BB1      0.127367
     43 H151        1.8650    0.2030    6.1990 hx        1 BB1      0.127367
     44 H152        3.0480    1.5620    6.4910 hx        1 BB1      0.127367
     45 H153        2.0560    1.5560    4.9490 hx        1 BB1      0.127367
     46 H121        1.3980   -3.5530    2.1050 hc        1 BB1      0.076811
     47 H122        1.9470   -4.5030    3.5270 hc        1 BB1      0.076811
     48 H123        3.0530   -3.2600    2.8240 hc        1 BB1      0.076811
     49 H131        1.5560   -3.6880    5.7960 hc        1 BB1      0.076811
     50 H132        1.6200   -1.9140    6.1220 hc        1 BB1      0.076811
     51 H133        3.0610   -2.7820    5.3840 hc        1 BB1      0.076811
     52 H141       -0.5790   -1.8290    4.7320 hc        1 BB1      0.076811
     53 H142       -0.5830   -2.5070    3.0400 hc        1 BB1      0.076811
     54 H143       -0.3960   -3.6060    4.4520 hc        1 BB1      0.076811
     55 H221        0.5760   -1.3060    1.9160 hn        1 BB1      0.497300
     56 H11        -0.5510    1.4670   -1.8160 hn        1 BB1      0.491800
     57 H31         4.3370    0.8370    4.6300 hn        1 BB1      0.484800
@<TRIPOS>BOND
     1    1    2 1   
     2    1   11 1   
     3    1   24 1   
     4    1   25 1   
     5    2    3 1   
     6    2    7 1   
     7    2   26 1   
     8    3    4 2   
     9    3    5 1   
    10    5    6 1   
    11    5   27 1   
    12    5   55 1   
    13    6   15 1   
    14    6   20 1   
    15    6   28 1   
    16    7    8 1   
    17    7   29 1   
    18    7   30 1   
    19    8    9 1   
    20    8   31 1   
    21    8   32 1   
    22    9   10 1   
    23    9   33 1   
    24    9   34 1   
    25   10   35 1   
    26   10   36 1   
    27   10   37 1   
    28   11   12 1   
    29   11   14 1   
    30   11   56 1   
    31   12   13 2   
    32   12   38 1   
    33   14   39 1   
    34   15   16 1   
    35   15   19 2   
    36   16   17 1   
    37   16   18 1   
    38   16   57 1   
    39   17   40 1   
    40   17   41 1   
    41   17   42 1   
    42   18   43 1   
    43   18   44 1   
    44   18   45 1   
    45   20   21 1   
    46   20   22 1   
    47   20   23 1   
    48   21   46 1   
    49   21   47 1   
    50   21   48 1   
    51   22   49 1   
    52   22   50 1   
    53   22   51 1   
    54   23   52 1   
    55   23   53 1   
    56   23   54 1   
@<TRIPOS>SUBSTRUCTURE
     1 BB1         1 TEMP              0 ****  ****    0 ROOT
