@<TRIPOS>MOLECULE
BB1
   57    56     1     0     0
SMALL
bcc


@<TRIPOS>ATOM
      1 C2          0.2570    1.8450   -0.3120 c3        1 BB1      0.080800
      2 C3          1.0640    0.5760    0.0350 c3        1 BB1     -0.135700
      3 C4          1.2320    0.5480    1.5460 c         1 BB1      0.558100
      4 O3          1.3190    1.5070    2.2970 o         1 BB1     -0.415100
      5 N2          1.3440   -0.8210    2.1840 n4        1 BB1     -0.687800
      6 C5          1.5300   -0.8360    3.6830 c3        1 BB1      0.053500
      7 C7          2.4430    0.5970   -0.6240 c3        1 BB1     -0.116400
      8 C8          3.2570   -0.6550   -0.3720 c3        1 BB1     -0.098400
      9 C9          4.4020   -0.7600   -1.3680 c3        1 BB1     -0.077400
     10 C10         5.2560   -1.9700   -1.0880 c3        1 BB1     -0.106100
     11 N1         -0.1670    1.9460   -1.7480 n4        1 BB1     -0.425700
     12 C1         -1.4560    2.8430   -1.9720 c         1 BB1      0.578900
     13 O1         -2.2390    2.8800   -1.0620 o         1 BB1     -0.320100
     14 O2          0.8380    2.3510   -2.5560 oh        1 BB1     -0.351300
     15 C6          2.9940   -0.5110    4.0270 c         1 BB1      0.518100
     16 N3          3.2770    0.1740    5.3300 n4        1 BB1     -0.568200
     17 C16         4.5640   -0.3090    5.9250 c3        1 BB1      0.078600
     18 C15         3.3220    1.6540    5.1280 c3        1 BB1      0.078600
     19 O4          3.9280   -0.7690    3.2770 o         1 BB1     -0.394100
     20 C11         1.1050   -2.2310    4.2680 c3        1 BB1     -0.053000
     21 C12         1.8860   -3.3510    3.6040 c3        1 BB1     -0.134100
     22 C13         1.3650   -2.2370    5.7660 c3        1 BB1     -0.134100
     23 C14        -0.3900   -2.4200    4.0370 c3        1 BB1     -0.134100
     24 H21        -0.6880    1.8740    0.3090 hx        1 BB1      0.134700
     25 H22         0.8790    2.7560   -0.0640 hx        1 BB1      0.134700
     26 H3          0.5020   -0.3410   -0.3080 hc        1 BB1      0.109700
     27 HN2         0.4790   -1.3510    1.9800 hn        1 BB1      0.496800
     28 H5          0.8440   -0.0420    4.1140 hx        1 BB1      0.145700
     29 H71         3.0160    1.5000   -0.2800 hc        1 BB1      0.101200
     30 H72         2.2950    0.7070   -1.7360 hc        1 BB1      0.101200
     31 H81         3.6970   -0.6300    0.6630 hc        1 BB1      0.032700
     32 H82         2.6130   -1.5690   -0.4670 hc        1 BB1      0.032700
     33 H91         3.9880   -0.8260   -2.4090 hc        1 BB1      0.066700
     34 H92         5.0300    0.1690   -1.3140 hc        1 BB1      0.066700
     35 H101        5.7100   -1.9140   -0.0690 hc        1 BB1      0.057367
     36 H102        4.6570   -2.9090   -1.1630 hc        1 BB1      0.057367
     37 H103        6.0860   -2.0270   -1.8360 hc        1 BB1      0.057367
     38 H1         -1.4270    3.2890   -2.9970 hx        1 BB1      0.198200
     39 H2          1.0250    3.3060   -2.3950 ho        1 BB1      0.482000
     40 H161        5.4090   -0.1210    5.2060 hx        1 BB1      0.127867
     41 H162        4.4880   -1.4090    6.1390 hx        1 BB1      0.127867
     42 H163        4.7490    0.2550    6.8820 hx        1 BB1      0.127867
     43 H151        2.3810    1.9930    4.6160 hx        1 BB1      0.127867
     44 H152        4.2210    1.9210    4.5080 hx        1 BB1      0.127867
     45 H153        3.4080    2.1540    6.1350 hx        1 BB1      0.127867
     46 H121        1.7470   -4.2990    4.1890 hc        1 BB1      0.077589
     47 H122        2.9800   -3.1270    3.5760 hc        1 BB1      0.077589
     48 H123        1.5240   -3.5550    2.5670 hc        1 BB1      0.077589
     49 H131        0.9030   -1.3530    6.2680 hc        1 BB1      0.077589
     50 H132        2.4560   -2.3070    5.9920 hc        1 BB1      0.077589
     51 H133        0.8890   -3.1520    6.2160 hc        1 BB1      0.077589
     52 H141       -0.7460   -3.3010    4.6370 hc        1 BB1      0.077589
     53 H142       -0.6320   -2.6490    2.9710 hc        1 BB1      0.077589
     54 H143       -0.9710   -1.5280    4.3750 hc        1 BB1      0.077589
     55 H221        2.1370   -1.3310    1.7430 hn        1 BB1      0.496800
     56 H11        -0.4050    0.9910   -2.1010 hn        1 BB1      0.491800
     57 H31         2.5140   -0.0470    5.9910 hn        1 BB1      0.475800
@<TRIPOS>BOND
     1    1    2 1   
     2    1   11 1   
     3    1   24 1   
     4    1   25 1   
     5    2    3 1   
     6    2    7 1   
     7    2   26 1   
     8    3    4 2   
     9    3    5 1   
    10    5    6 1   
    11    5   27 1   
    12    5   55 1   
    13    6   15 1   
    14    6   20 1   
    15    6   28 1   
    16    7    8 1   
    17    7   29 1   
    18    7   30 1   
    19    8    9 1   
    20    8   31 1   
    21    8   32 1   
    22    9   10 1   
    23    9   33 1   
    24    9   34 1   
    25   10   35 1   
    26   10   36 1   
    27   10   37 1   
    28   11   12 1   
    29   11   14 1   
    30   11   56 1   
    31   12   13 2   
    32   12   38 1   
    33   14   39 1   
    34   15   16 1   
    35   15   19 2   
    36   16   17 1   
    37   16   18 1   
    38   16   57 1   
    39   17   40 1   
    40   17   41 1   
    41   17   42 1   
    42   18   43 1   
    43   18   44 1   
    44   18   45 1   
    45   20   21 1   
    46   20   22 1   
    47   20   23 1   
    48   21   46 1   
    49   21   47 1   
    50   21   48 1   
    51   22   49 1   
    52   22   50 1   
    53   22   51 1   
    54   23   52 1   
    55   23   53 1   
    56   23   54 1   
@<TRIPOS>SUBSTRUCTURE
     1 BB1         1 TEMP              0 ****  ****    0 ROOT
