@<TRIPOS>MOLECULE
BB1
   54    53     1     0     0
SMALL
bcc


@<TRIPOS>ATOM
      1 C2         -2.1220    1.0220   -1.7740 c3        1 BB1      0.054000
      2 C3         -0.6520    0.6970   -1.6150 c3        1 BB1     -0.150700
      3 C4         -0.2770    0.7730   -0.1640 c         1 BB1      0.664100
      4 O3          0.2460    1.7830    0.2780 o         1 BB1     -0.623100
      5 N2         -0.6360   -0.3190    0.7410 n         1 BB1     -0.559900
      6 C5         -0.0080   -0.4280    1.9940 c3        1 BB1      0.052700
      7 C7          0.1920    1.7110   -2.4170 c3        1 BB1     -0.071400
      8 C8          1.1070    0.9430   -3.4330 c3        1 BB1     -0.081400
      9 C9          1.8530    1.9620   -4.3280 c3        1 BB1     -0.077400
     10 C10         2.8220    1.2090   -5.2730 c3        1 BB1     -0.092100
     11 N1         -2.5640    0.6110   -3.0660 n         1 BB1     -0.309300
     12 C1         -3.2580   -0.6400   -3.2220 c         1 BB1      0.639900
     13 O1         -4.1470   -0.9500   -2.4350 o         1 BB1     -0.571100
     14 O2         -2.4510    1.4720   -4.1370 oh        1 BB1     -0.431100
     15 C6          0.7380   -1.7500    2.0730 c         1 BB1      0.646100
     16 N3          2.0850   -1.7990    2.6640 n         1 BB1     -0.474800
     17 C16         2.9850   -0.7160    2.4700 c3        1 BB1      0.073800
     18 C15         2.4700   -2.9180    3.4990 c3        1 BB1      0.073800
     19 O4          0.2630   -2.7550    1.5450 o         1 BB1     -0.618100
     20 C11        -1.0740   -0.3670    3.1150 c3        1 BB1     -0.049000
     21 C12        -1.9340   -1.6470    3.0760 c3        1 BB1     -0.097433
     22 C13        -0.3900   -0.2630    4.4560 c3        1 BB1     -0.097433
     23 C14        -1.9820    0.8750    2.9010 c3        1 BB1     -0.097433
     24 H21        -2.2560    1.9900   -1.6750 h1        1 BB1      0.079700
     25 H22        -2.6370    0.5480   -1.0860 h1        1 BB1      0.079700
     26 H3         -0.4810   -0.2040   -1.9480 hc        1 BB1      0.076700
     27 HN2        -1.2340   -0.9590    0.4720 hn        1 BB1      0.345500
     28 H5          0.6190    0.3050    2.1050 h1        1 BB1      0.090700
     29 H71         0.7500    2.2280   -1.8020 hc        1 BB1      0.057700
     30 H72        -0.4030    2.3170   -2.9060 hc        1 BB1      0.057700
     31 H81         0.5540    0.3590   -3.9940 hc        1 BB1      0.046200
     32 H82         1.7540    0.4050   -2.9450 hc        1 BB1      0.046200
     33 H91         2.3600    2.5780   -3.7670 hc        1 BB1      0.038700
     34 H92         1.2010    2.4670   -4.8630 hc        1 BB1      0.038700
     35 H101        3.5560    0.8120   -4.7430 hc        1 BB1      0.033033
     36 H102        2.3320    0.4920   -5.7440 hc        1 BB1      0.033033
     37 H103        3.1950    1.8400   -5.9310 hc        1 BB1      0.033033
     38 H1         -2.9870   -1.2650   -3.9250 h5        1 BB1      0.053200
     39 H2         -3.2440    1.5320   -4.5590 ho        1 BB1      0.423000
     40 H161        3.9070   -1.0070    2.6960 h1        1 BB1      0.045700
     41 H162        2.7270    0.0340    3.0520 h1        1 BB1      0.045700
     42 H163        2.9540   -0.4300    1.5410 h1        1 BB1      0.045700
     43 H151        2.1320   -3.7480    3.1070 h1        1 BB1      0.045700
     44 H152        3.4540   -2.9590    3.5600 h1        1 BB1      0.045700
     45 H153        2.0890   -2.8010    4.4010 h1        1 BB1      0.045700
     46 H121       -1.4240   -2.3940    3.4460 hc        1 BB1      0.043478
     47 H122       -2.7600   -1.5100    3.6160 hc        1 BB1      0.043478
     48 H123       -2.1780   -1.8470    2.1520 hc        1 BB1      0.043478
     49 H131       -1.0340    0.0440    5.1270 hc        1 BB1      0.043478
     50 H132        0.3540    0.3810    4.3970 hc        1 BB1      0.043478
     51 H133       -0.0470   -1.1320    4.7120 hc        1 BB1      0.043478
     52 H141       -2.5760    0.7190    2.1270 hc        1 BB1      0.043478
     53 H142       -2.5240    1.0270    3.7040 hc        1 BB1      0.043478
     54 H143       -1.4180    1.6690    2.7290 hc        1 BB1      0.043478
@<TRIPOS>BOND
     1    1    2 1   
     2    1   11 1   
     3    1   24 1   
     4    1   25 1   
     5    2    3 1   
     6    2    7 1   
     7    2   26 1   
     8    3    4 2   
     9    3    5 1   
    10    5    6 1   
    11    5   27 1   
    12    6   15 1   
    13    6   20 1   
    14    6   28 1   
    15    7    8 1   
    16    7   29 1   
    17    7   30 1   
    18    8    9 1   
    19    8   31 1   
    20    8   32 1   
    21    9   10 1   
    22    9   33 1   
    23    9   34 1   
    24   10   35 1   
    25   10   36 1   
    26   10   37 1   
    27   11   12 1   
    28   11   14 1   
    29   12   13 2   
    30   12   38 1   
    31   14   39 1   
    32   15   16 1   
    33   15   19 2   
    34   16   17 1   
    35   16   18 1   
    36   17   40 1   
    37   17   41 1   
    38   17   42 1   
    39   18   43 1   
    40   18   44 1   
    41   18   45 1   
    42   20   21 1   
    43   20   22 1   
    44   20   23 1   
    45   21   46 1   
    46   21   47 1   
    47   21   48 1   
    48   22   49 1   
    49   22   50 1   
    50   22   51 1   
    51   23   52 1   
    52   23   53 1   
    53   23   54 1   
@<TRIPOS>SUBSTRUCTURE
     1 BB1         1 TEMP              0 ****  ****    0 ROOT
