@<TRIPOS>MOLECULE
BB2
   64    64     1     0     0
SMALL
bcc


@<TRIPOS>ATOM
      1 C5         -0.3030    1.7660    0.3600 c3        1 BB2     -0.147400
      2 C3         -1.0590    1.4070   -0.8780 c         1 BB2      0.583100
      3 O4         -1.0210    0.4210   -1.5850 o         1 BB2     -0.366100
      4 N1         -2.1070    2.4550   -1.3590 n4        1 BB2     -0.467300
      5 O2         -1.5950    3.6850   -1.1330 oh        1 BB2     -0.366300
      6 C6          0.8780    0.8120    0.5760 c3        1 BB2     -0.134700
      7 C12         1.2880    0.8990    2.0350 c         1 BB2      0.545100
      8 O13         0.8260    1.6720    2.8630 o         1 BB2     -0.411100
      9 C7          2.0310    1.1790   -0.3570 c3        1 BB2     -0.105400
     10 C8          3.0410    0.0670   -0.5630 c3        1 BB2     -0.098400
     11 C9          3.7330    0.2110   -1.9070 c3        1 BB2     -0.079400
     12 C10         4.8070   -0.8440   -2.0790 c3        1 BB2     -0.080400
     13 C11         5.4850   -0.7150   -3.4190 c3        1 BB2     -0.099100
     14 N14         2.3610   -0.0370    2.4850 n4        1 BB2     -0.665800
     15 C15         2.0460   -0.7610    3.7800 c3        1 BB2      0.051500
     16 C16         0.7740   -1.6210    3.6440 c3        1 BB2     -0.068700
     17 C18         0.8870   -2.6760    2.5640 c3        1 BB2     -0.114100
     18 C17         0.4370   -2.2530    4.9790 c3        1 BB2     -0.114100
     19 C19         3.3030   -1.6270    4.1040 c         1 BB2      0.639100
     20 O20         3.8530   -2.1950    3.1300 o         1 BB2     -0.625100
     21 N21         3.7630   -1.7020    5.3730 n         1 BB2     -0.420800
     22 C22         4.9700   -2.4750    5.7160 c3        1 BB2      0.096700
     23 C23         3.2410   -0.9760    6.5210 c3        1 BB2      0.077000
     24 C24         4.1760   -1.2580    7.7080 c3        1 BB2     -0.088400
     25 C25         5.3220   -2.1070    7.1700 c3        1 BB2     -0.086400
     26 C26         4.7740   -3.9970    5.5550 c3        1 BB2      0.121400
     27 O27         6.0390   -4.5620    5.8420 oh        1 BB2     -0.590800
     28 H51        -1.0130    1.7260    1.2360 hc        1 BB2      0.140200
     29 H52         0.0750    2.8290    0.2880 hc        1 BB2      0.140200
     30 HN1        -2.9870    2.3250   -0.8260 hn        1 BB2      0.480300
     31 HO2        -2.1760    4.3660   -1.5550 ho        1 BB2      0.496000
     32 H6          0.5470   -0.2490    0.3630 hc        1 BB2      0.124700
     33 H71         1.5790    1.4340   -1.3570 hc        1 BB2      0.078200
     34 H72         2.5460    2.1050    0.0120 hc        1 BB2      0.078200
     35 H81         3.8300    0.1010    0.2350 hc        1 BB2      0.045700
     36 H82         2.5410   -0.9370   -0.5190 hc        1 BB2      0.045700
     37 H91         4.1930    1.2320   -1.9860 hc        1 BB2      0.054700
     38 H92         2.9800    0.1160   -2.7320 hc        1 BB2      0.054700
     39 H101        5.5690   -0.7440   -1.2620 hc        1 BB2      0.047200
     40 H102        4.3490   -1.8650   -1.9850 hc        1 BB2      0.047200
     41 H111        5.9680    0.2870   -3.5250 hc        1 BB2      0.049033
     42 H112        6.2740   -1.4990   -3.5260 hc        1 BB2      0.049033
     43 H113        4.7500   -0.8410   -4.2500 hc        1 BB2      0.049033
     44 H14         2.5470   -0.7630    1.7670 hn        1 BB2      0.484800
     45 H15         1.8700    0.0340    4.5650 hx        1 BB2      0.127700
     46 H16        -0.0710   -0.9200    3.3780 hc        1 BB2      0.043700
     47 H181        0.8630   -2.2180    1.5450 hc        1 BB2      0.065033
     48 H182        1.8330   -3.2660    2.6690 hc        1 BB2      0.065033
     49 H183        0.0270   -3.3880    2.6400 hc        1 BB2      0.065033
     50 H171       -0.5220   -2.8220    4.8880 hc        1 BB2      0.065033
     51 H172        0.3040   -1.4720    5.7660 hc        1 BB2      0.065033
     52 H173        1.2340   -2.9690    5.2980 hc        1 BB2      0.065033
     53 H22         5.7990   -2.1650    5.0150 h1        1 BB2      0.093700
     54 H231        2.1950   -1.3220    6.7490 h1        1 BB2      0.048700
     55 H232        3.2140    0.1260    6.2970 h1        1 BB2      0.048700
     56 H241        4.5530   -0.2980    8.1390 hc        1 BB2      0.076700
     57 H242        3.6200   -1.8010    8.5130 hc        1 BB2      0.076700
     58 H251        6.2850   -1.5390    7.1910 hc        1 BB2      0.087200
     59 H252        5.4660   -3.0370    7.7770 hc        1 BB2      0.087200
     60 H261        4.0050   -4.3830    6.2750 h1        1 BB2      0.038700
     61 H262        4.4640   -4.2380    4.5030 h1        1 BB2      0.038700
     62 H27         5.9680   -5.5100    5.6660 ho        1 BB2      0.425000
     63 H12        -2.2960    2.2970   -2.3700 hn        1 BB2      0.480300
     64 H142        3.2330    0.4940    2.6230 hn        1 BB2      0.484800
@<TRIPOS>BOND
     1    1    2 1   
     2    1    6 1   
     3    1   28 1   
     4    1   29 1   
     5    2    3 2   
     6    2    4 1   
     7    4    5 1   
     8    4   30 1   
     9    4   63 1   
    10    5   31 1   
    11    6    7 1   
    12    6    9 1   
    13    6   32 1   
    14    7    8 2   
    15    7   14 1   
    16    9   10 1   
    17    9   33 1   
    18    9   34 1   
    19   10   11 1   
    20   10   35 1   
    21   10   36 1   
    22   11   12 1   
    23   11   37 1   
    24   11   38 1   
    25   12   13 1   
    26   12   39 1   
    27   12   40 1   
    28   13   41 1   
    29   13   42 1   
    30   13   43 1   
    31   14   15 1   
    32   14   44 1   
    33   14   64 1   
    34   15   16 1   
    35   15   19 1   
    36   15   45 1   
    37   16   17 1   
    38   16   18 1   
    39   16   46 1   
    40   17   47 1   
    41   17   48 1   
    42   17   49 1   
    43   18   50 1   
    44   18   51 1   
    45   18   52 1   
    46   19   20 2   
    47   19   21 1   
    48   21   22 1   
    49   21   23 1   
    50   22   25 1   
    51   22   26 1   
    52   22   53 1   
    53   23   24 1   
    54   23   54 1   
    55   23   55 1   
    56   24   25 1   
    57   24   56 1   
    58   24   57 1   
    59   25   58 1   
    60   25   59 1   
    61   26   27 1   
    62   26   60 1   
    63   26   61 1   
    64   27   62 1   
@<TRIPOS>SUBSTRUCTURE
     1 BB2         1 TEMP              0 ****  ****    0 ROOT
