@<TRIPOS>MOLECULE
BB2
   62    62     1     0     0
SMALL
bcc


@<TRIPOS>ATOM
      1 C5         -2.7180    1.1170   -1.6270 c3        1 BB2     -0.147400
      2 C3         -3.2450    0.1100   -2.5830 c         1 BB2      0.591100
      3 O4         -2.5790   -0.8840   -2.8570 o         1 BB2     -0.567100
      4 N1         -4.5600    0.2560   -3.1110 n         1 BB2     -0.352400
      5 O2         -5.0540   -0.6740   -3.9830 oh        1 BB2     -0.437100
      6 C6         -1.2170    1.0330   -1.5820 c3        1 BB2     -0.128700
      7 C12        -0.7560    1.0150   -0.1440 c         1 BB2      0.660100
      8 O13        -0.5080    2.0670    0.4320 o         1 BB2     -0.624100
      9 C7         -0.6140    2.2510   -2.2980 c3        1 BB2     -0.080400
     10 C8         -0.0400    1.8180   -3.6470 c3        1 BB2     -0.080400
     11 C9          0.3850    3.0480   -4.4390 c3        1 BB2     -0.079400
     12 C10         1.1470    2.6080   -5.6920 c3        1 BB2     -0.080400
     13 C11         1.3740    3.8340   -6.6160 c3        1 BB2     -0.093100
     14 N14        -0.6310   -0.2150    0.5460 n         1 BB2     -0.548900
     15 C15        -0.1540   -0.2310    1.8850 c3        1 BB2      0.043700
     16 C16        -1.2030    0.3010    2.7910 c3        1 BB2     -0.060700
     17 C18        -1.9900   -0.8520    3.3800 c3        1 BB2     -0.102600
     18 C17        -0.5470    1.0930    3.9180 c3        1 BB2     -0.102600
     19 C19         0.1870   -1.6710    2.2930 c         1 BB2      0.638100
     20 O20        -0.6480   -2.5390    2.1980 o         1 BB2     -0.625100
     21 N21         1.5470   -2.0080    2.7160 n         1 BB2     -0.457800
     22 C22         2.0800   -3.3710    3.0700 c3        1 BB2      0.062700
     23 C23         2.5420   -1.2040    2.8630 c3        1 BB2      0.079000
     24 C24         3.8440   -2.0660    2.6270 c3        1 BB2     -0.089400
     25 C25         3.6070   -3.2130    3.1400 c3        1 BB2     -0.087400
     26 C26         1.5720   -3.7870    4.3240 c3        1 BB2      0.121400
     27 O27         2.0820   -5.1030    4.6380 oh        1 BB2     -0.597800
     28 H51        -2.9850    2.0080   -1.9160 hc        1 BB2      0.089200
     29 H52        -3.0780    0.9410   -0.7430 hc        1 BB2      0.089200
     30 HN1        -5.0950    0.9500   -2.8270 hn        1 BB2      0.298500
     31 HO2        -5.9310   -0.5630   -4.0690 ho        1 BB2      0.436000
     32 H6         -0.9260    0.2210   -2.0240 hc        1 BB2      0.101700
     33 H71         0.1030    2.6330   -1.7440 hc        1 BB2      0.052200
     34 H72        -1.3190    2.9320   -2.4420 hc        1 BB2      0.052200
     35 H81        -0.7230    1.3260   -4.1500 hc        1 BB2      0.046700
     36 H82         0.7400    1.2380   -3.5000 hc        1 BB2      0.046700
     37 H91         0.9580    3.6010   -3.8910 hc        1 BB2      0.040700
     38 H92        -0.4160    3.5630   -4.7040 hc        1 BB2      0.040700
     39 H101        0.6220    1.9270   -6.1740 hc        1 BB2      0.041200
     40 H102        2.0240    2.2250   -5.4290 hc        1 BB2      0.041200
     41 H111        1.6500    4.6060   -6.0730 hc        1 BB2      0.033367
     42 H112        0.5350    4.0480   -7.0900 hc        1 BB2      0.033367
     43 H113        2.0740    3.6270   -7.2670 hc        1 BB2      0.033367
     44 H14        -0.8630   -1.0120    0.1250 hn        1 BB2      0.324500
     45 H15         0.6190    0.3050    1.9500 h1        1 BB2      0.094700
     46 H16        -1.8040    0.8830    2.2890 hc        1 BB2      0.058700
     47 H181       -2.2820   -1.4600    2.6520 hc        1 BB2      0.044700
     48 H182       -2.7700   -0.5070    3.8480 hc        1 BB2      0.044700
     49 H183       -1.4280   -1.3420    4.0060 hc        1 BB2      0.044700
     50 H171       -1.1940    1.7050    4.3030 hc        1 BB2      0.044700
     51 H172        0.2200    1.6050    3.5590 hc        1 BB2      0.044700
     52 H173       -0.2300    0.4740    4.6120 hc        1 BB2      0.044700
     53 H22         1.8370   -4.0260    2.3700 h1        1 BB2      0.061700
     54 H231        2.5450   -0.8320    3.7730 h1        1 BB2      0.058700
     55 H232        2.4920   -0.4720    2.1950 h1        1 BB2      0.058700
     56 H241        4.6190   -1.6440    3.0780 hc        1 BB2      0.054200
     57 H242        4.0200   -2.1560    1.6620 hc        1 BB2      0.054200
     58 H251        3.9100   -3.2380    4.0730 hc        1 BB2      0.060700
     59 H252        4.0510   -3.9240    2.6130 hc        1 BB2      0.060700
     60 H261        1.8540   -3.1520    5.0170 h1        1 BB2      0.057700
     61 H262        0.5810   -3.8160    4.2860 h1        1 BB2      0.057700
     62 H27         1.6880   -5.4060    5.3910 ho        1 BB2      0.401000
@<TRIPOS>BOND
     1    1    2 1   
     2    1    6 1   
     3    1   28 1   
     4    1   29 1   
     5    2    3 2   
     6    2    4 1   
     7    4    5 1   
     8    4   30 1   
     9    5   31 1   
    10    6    7 1   
    11    6    9 1   
    12    6   32 1   
    13    7    8 2   
    14    7   14 1   
    15    9   10 1   
    16    9   33 1   
    17    9   34 1   
    18   10   11 1   
    19   10   35 1   
    20   10   36 1   
    21   11   12 1   
    22   11   37 1   
    23   11   38 1   
    24   12   13 1   
    25   12   39 1   
    26   12   40 1   
    27   13   41 1   
    28   13   42 1   
    29   13   43 1   
    30   14   15 1   
    31   14   44 1   
    32   15   16 1   
    33   15   19 1   
    34   15   45 1   
    35   16   17 1   
    36   16   18 1   
    37   16   46 1   
    38   17   47 1   
    39   17   48 1   
    40   17   49 1   
    41   18   50 1   
    42   18   51 1   
    43   18   52 1   
    44   19   20 2   
    45   19   21 1   
    46   21   22 1   
    47   21   23 1   
    48   22   25 1   
    49   22   26 1   
    50   22   53 1   
    51   23   24 1   
    52   23   54 1   
    53   23   55 1   
    54   24   25 1   
    55   24   56 1   
    56   24   57 1   
    57   25   58 1   
    58   25   59 1   
    59   26   27 1   
    60   26   60 1   
    61   26   61 1   
    62   27   62 1   
@<TRIPOS>SUBSTRUCTURE
     1 BB2         1 TEMP              0 ****  ****    0 ROOT
