@<TRIPOS>MOLECULE
BB2
   64    64     1     0     0
SMALL
bcc


@<TRIPOS>ATOM
      1 C5         -0.2150    1.8280    0.3580 c3        1 BB2     -0.145400
      2 C3         -0.9940    1.4910   -0.8710 c         1 BB2      0.584100
      3 O4         -0.9160    0.5590   -1.6450 o         1 BB2     -0.366100
      4 N1         -2.1320    2.4900   -1.2380 ny        1 BB2     -0.468300
      5 O2         -2.6070    3.0140   -0.0870 oh        1 BB2     -0.367300
      6 C6          0.9670    0.8690    0.5450 c3        1 BB2     -0.134700
      7 C12         1.4100    0.9580    1.9940 c         1 BB2      0.546100
      8 O13         1.0140    1.7740    2.8160 o         1 BB2     -0.409100
      9 C7          2.1010    1.2310   -0.4110 c3        1 BB2     -0.104400
     10 C8          3.1290    0.1320   -0.5970 c3        1 BB2     -0.096400
     11 C9          3.8350    0.2790   -1.9330 c3        1 BB2     -0.079400
     12 C10         4.9240   -0.7640   -2.0880 c3        1 BB2     -0.080400
     13 C11         5.6160   -0.6320   -3.4200 c3        1 BB2     -0.099100
     14 N14         2.4360   -0.0320    2.4420 ny        1 BB2     -0.665800
     15 C15         2.0850   -0.7380    3.7380 c3        1 BB2      0.051500
     16 C16         0.7680   -1.5280    3.6070 c3        1 BB2     -0.068700
     17 C18         0.8220   -2.5950    2.5350 c3        1 BB2     -0.114100
     18 C17         0.3970   -2.1300    4.9470 c3        1 BB2     -0.114100
     19 C19         3.2940   -1.6720    4.0580 c         1 BB2      0.639100
     20 O20         3.8090   -2.2690    3.0820 o         1 BB2     -0.624100
     21 N21         3.7530   -1.7720    5.3260 n         1 BB2     -0.420800
     22 C22         4.9170   -2.6100    5.6650 c3        1 BB2      0.096700
     23 C23         3.2770   -1.0180    6.4750 c3        1 BB2      0.077000
     24 C24         4.1990   -1.3510    7.6590 c3        1 BB2     -0.088400
     25 C25         5.2940   -2.2620    7.1170 c3        1 BB2     -0.086400
     26 C26         4.6380   -4.1190    5.5050 c3        1 BB2      0.121400
     27 O27         5.8710   -4.7530    5.7880 oh        1 BB2     -0.590800
     28 H51        -0.9190    1.7770    1.2420 hc        1 BB2      0.140200
     29 H52         0.1570    2.8900    0.3040 hc        1 BB2      0.140200
     30 HN1        -2.8720    1.9780   -1.7620 hn        1 BB2      0.480800
     31 HO2        -3.4000    3.5710   -0.2820 ho        1 BB2      0.496000
     32 H6          0.6250   -0.1890    0.3360 hc        1 BB2      0.123700
     33 H71         2.6050    2.1750   -0.0710 hc        1 BB2      0.077200
     34 H72         1.6330    1.4490   -1.4110 hc        1 BB2      0.077200
     35 H81         3.9060    0.1810    0.2110 hc        1 BB2      0.044700
     36 H82         2.6400   -0.8780   -0.5540 hc        1 BB2      0.044700
     37 H91         3.0930    0.1700   -2.7670 hc        1 BB2      0.054700
     38 H92         4.2830    1.3040   -2.0120 hc        1 BB2      0.054700
     39 H101        4.4780   -1.7890   -1.9940 hc        1 BB2      0.046700
     40 H102        5.6750   -0.6500   -1.2620 hc        1 BB2      0.046700
     41 H111        4.8930   -0.7720   -4.2600 hc        1 BB2      0.049033
     42 H112        6.0880    0.3750   -3.5250 hc        1 BB2      0.049033
     43 H113        6.4170   -1.4060   -3.5130 hc        1 BB2      0.049033
     44 H14         2.5850   -0.7660    1.7240 hn        1 BB2      0.484800
     45 H15         1.9560    0.0650    4.5240 hx        1 BB2      0.127700
     46 H16        -0.0370   -0.7820    3.3360 hc        1 BB2      0.043700
     47 H181       -0.0790   -3.2540    2.6130 hc        1 BB2      0.065200
     48 H182        1.7310   -3.2390    2.6480 hc        1 BB2      0.065200
     49 H183        0.8290   -2.1430    1.5130 hc        1 BB2      0.065200
     50 H171        0.3090   -1.3380    5.7290 hc        1 BB2      0.065200
     51 H172        1.1510   -2.8880    5.2700 hc        1 BB2      0.065200
     52 H173       -0.5940   -2.6440    4.8600 hc        1 BB2      0.065200
     53 H22         5.7600   -2.3460    4.9600 h1        1 BB2      0.093700
     54 H231        2.2140   -1.3040    6.7070 h1        1 BB2      0.048700
     55 H232        3.3100    0.0850    6.2500 h1        1 BB2      0.048700
     56 H241        4.6310   -0.4130    8.0880 hc        1 BB2      0.076700
     57 H242        3.6170   -1.8610    8.4660 hc        1 BB2      0.076700
     58 H251        5.3890   -3.1980    7.7240 hc        1 BB2      0.087200
     59 H252        6.2880   -1.7480    7.1340 hc        1 BB2      0.087200
     60 H261        3.8510   -4.4630    6.2280 h1        1 BB2      0.038700
     61 H262        4.3110   -4.3430    4.4540 h1        1 BB2      0.038700
     62 H27         5.7480   -5.6950    5.6120 ho        1 BB2      0.425000
     63 H12        -1.7430    3.2350   -1.8470 hn        1 BB2      0.480800
     64 H142        3.3340    0.4550    2.5800 hn        1 BB2      0.484800
@<TRIPOS>BOND
     1    1    2 1   
     2    1    6 1   
     3    1   28 1   
     4    1   29 1   
     5    2    3 2   
     6    2    4 1   
     7    4    5 1   
     8    4   30 1   
     9    4   63 1   
    10    5   31 1   
    11    6    7 1   
    12    6    9 1   
    13    6   32 1   
    14    7    8 2   
    15    7   14 1   
    16    9   10 1   
    17    9   33 1   
    18    9   34 1   
    19   10   11 1   
    20   10   35 1   
    21   10   36 1   
    22   11   12 1   
    23   11   37 1   
    24   11   38 1   
    25   12   13 1   
    26   12   39 1   
    27   12   40 1   
    28   13   41 1   
    29   13   42 1   
    30   13   43 1   
    31   14   15 1   
    32   14   44 1   
    33   14   64 1   
    34   15   16 1   
    35   15   19 1   
    36   15   45 1   
    37   16   17 1   
    38   16   18 1   
    39   16   46 1   
    40   17   47 1   
    41   17   48 1   
    42   17   49 1   
    43   18   50 1   
    44   18   51 1   
    45   18   52 1   
    46   19   20 2   
    47   19   21 1   
    48   21   22 1   
    49   21   23 1   
    50   22   25 1   
    51   22   26 1   
    52   22   53 1   
    53   23   24 1   
    54   23   54 1   
    55   23   55 1   
    56   24   25 1   
    57   24   56 1   
    58   24   57 1   
    59   25   58 1   
    60   25   59 1   
    61   26   27 1   
    62   26   60 1   
    63   26   61 1   
    64   27   62 1   
@<TRIPOS>SUBSTRUCTURE
     1 BB2         1 TEMP              0 ****  ****    0 ROOT
