@<TRIPOS>MOLECULE
BB2
   62    62     1     0     0
SMALL
bcc


@<TRIPOS>ATOM
      1 C5          0.7600    2.3630    3.2250 c3        1 BB2     -0.149400
      2 C3          1.1810    2.0680    4.6460 c         1 BB2      0.590100
      3 O4          1.8460    1.0710    4.9690 o         1 BB2     -0.564100
      4 N1          0.6800    2.9470    5.6580 n         1 BB2     -0.352400
      5 O2          1.3730    2.9380    6.7990 oh        1 BB2     -0.437100
      6 C6          0.7260    1.1020    2.3720 c3        1 BB2     -0.124700
      7 C12         0.7090    1.5170    0.9030 c         1 BB2      0.656100
      8 O13         0.2260    2.6080    0.5340 o         1 BB2     -0.621100
      9 C7         -0.5050    0.2670    2.6950 c3        1 BB2     -0.079400
     10 C8         -0.4750   -1.1060    2.0600 c3        1 BB2     -0.091400
     11 C9         -1.5450   -1.9980    2.6550 c3        1 BB2     -0.075400
     12 C10        -1.5540   -3.3590    1.9910 c3        1 BB2     -0.082400
     13 C11        -2.6230   -4.2480    2.5710 c3        1 BB2     -0.092100
     14 N14         1.3030    0.6520   -0.0030 n         1 BB2     -0.537900
     15 C15         1.1420    0.8450   -1.4250 c3        1 BB2      0.037700
     16 C16         2.3390    0.3060   -2.2430 c3        1 BB2     -0.058700
     17 C18         2.6820   -1.1320   -1.9240 c3        1 BB2     -0.102600
     18 C17         2.0550    0.4740   -3.7210 c3        1 BB2     -0.102600
     19 C19        -0.1690    0.1730   -1.9140 c         1 BB2      0.635100
     20 O20        -0.3910   -1.0310   -1.6630 o         1 BB2     -0.627100
     21 N21        -1.0680    0.9110   -2.6550 n         1 BB2     -0.455800
     22 C22        -2.3500    0.3360   -3.0600 c3        1 BB2      0.061700
     23 C23        -1.1070    2.3630   -2.6700 c3        1 BB2      0.078000
     24 C24        -2.5080    2.7900   -3.1390 c3        1 BB2     -0.089400
     25 C25        -3.3200    1.5110   -3.3030 c3        1 BB2     -0.087400
     26 C26        -2.2210   -0.5490   -4.3170 c3        1 BB2      0.122400
     27 O27        -3.4550   -1.1730   -4.6080 oh        1 BB2     -0.597800
     28 H51         1.5050    3.0880    2.7960 hc        1 BB2      0.086700
     29 H52        -0.2470    2.8590    3.1910 hc        1 BB2      0.086700
     30 HN1         0.6180    3.9100    5.3450 hn        1 BB2      0.298500
     31 HO2         1.1730    2.0810    7.2260 ho        1 BB2      0.436000
     32 H6          1.6500    0.4950    2.5970 hc        1 BB2      0.095700
     33 H71        -1.4280    0.8160    2.3700 hc        1 BB2      0.056700
     34 H72        -0.5550    0.1560    3.8130 hc        1 BB2      0.056700
     35 H81         0.5310   -1.5780    2.2180 hc        1 BB2      0.049200
     36 H82        -0.6400   -1.0280    0.9510 hc        1 BB2      0.049200
     37 H91        -2.5490   -1.5120    2.5310 hc        1 BB2      0.040200
     38 H92        -1.3690   -2.1180    3.7560 hc        1 BB2      0.040200
     39 H101       -0.5500   -3.8420    2.1190 hc        1 BB2      0.043700
     40 H102       -1.7230   -3.2350    0.8880 hc        1 BB2      0.043700
     41 H111       -2.6110   -5.2460    2.0700 hc        1 BB2      0.032367
     42 H112       -2.4570   -4.4020    3.6650 hc        1 BB2      0.032367
     43 H113       -3.6340   -3.7950    2.4310 hc        1 BB2      0.032367
     44 H14         1.4680   -0.2870    0.2870 hn        1 BB2      0.321500
     45 H15         1.0970    1.9630   -1.6060 h1        1 BB2      0.094700
     46 H16         3.2270    0.9490   -1.9770 hc        1 BB2      0.059700
     47 H181        3.3960   -1.5300   -2.6870 hc        1 BB2      0.044367
     48 H182        3.1690   -1.2140   -0.9230 hc        1 BB2      0.044367
     49 H183        1.7640   -1.7700   -1.9310 hc        1 BB2      0.044367
     50 H171        1.2490   -0.2270   -4.0490 hc        1 BB2      0.044367
     51 H172        1.7330    1.5190   -3.9460 hc        1 BB2      0.044367
     52 H173        2.9770    0.2510   -4.3110 hc        1 BB2      0.044367
     53 H22        -2.7390   -0.3200   -2.2250 h1        1 BB2      0.061700
     54 H231       -0.8910    2.7790   -1.6440 h1        1 BB2      0.058200
     55 H232       -0.3200    2.7430   -3.3790 h1        1 BB2      0.058200
     56 H241       -2.9750    3.4700   -2.3860 hc        1 BB2      0.054200
     57 H242       -2.4380    3.3450   -4.1060 hc        1 BB2      0.054200
     58 H251       -4.1540    1.4720   -2.5610 hc        1 BB2      0.061200
     59 H252       -3.7670    1.4360   -4.3250 hc        1 BB2      0.061200
     60 H261       -1.9910    0.0660   -5.2260 h1        1 BB2      0.057200
     61 H262       -1.4170   -1.3180   -4.1630 h1        1 BB2      0.057200
     62 H27        -3.6470   -1.7810   -3.8840 ho        1 BB2      0.401000
@<TRIPOS>BOND
     1    1    2 1   
     2    1    6 1   
     3    1   28 1   
     4    1   29 1   
     5    2    3 2   
     6    2    4 1   
     7    4    5 1   
     8    4   30 1   
     9    5   31 1   
    10    6    7 1   
    11    6    9 1   
    12    6   32 1   
    13    7    8 2   
    14    7   14 1   
    15    9   10 1   
    16    9   33 1   
    17    9   34 1   
    18   10   11 1   
    19   10   35 1   
    20   10   36 1   
    21   11   12 1   
    22   11   37 1   
    23   11   38 1   
    24   12   13 1   
    25   12   39 1   
    26   12   40 1   
    27   13   41 1   
    28   13   42 1   
    29   13   43 1   
    30   14   15 1   
    31   14   44 1   
    32   15   16 1   
    33   15   19 1   
    34   15   45 1   
    35   16   17 1   
    36   16   18 1   
    37   16   46 1   
    38   17   47 1   
    39   17   48 1   
    40   17   49 1   
    41   18   50 1   
    42   18   51 1   
    43   18   52 1   
    44   19   20 2   
    45   19   21 1   
    46   21   22 1   
    47   21   23 1   
    48   22   25 1   
    49   22   26 1   
    50   22   53 1   
    51   23   24 1   
    52   23   54 1   
    53   23   55 1   
    54   24   25 1   
    55   24   56 1   
    56   24   57 1   
    57   25   58 1   
    58   25   59 1   
    59   26   27 1   
    60   26   60 1   
    61   26   61 1   
    62   27   62 1   
@<TRIPOS>SUBSTRUCTURE
     1 BB2         1 TEMP              0 ****  ****    0 ROOT
