@<TRIPOS>MOLECULE
BB2
   64    64     1     0     0
SMALL
bcc


@<TRIPOS>ATOM
      1 C5         -0.2630    1.7650    0.3450 c3        1 BB2     -0.145400
      2 C3         -1.0100    1.4200   -0.9010 c         1 BB2      0.584100
      3 O4         -0.8890    0.5010   -1.6850 o         1 BB2     -0.366100
      4 N1         -2.1750    2.3860   -1.2740 n4        1 BB2     -0.468300
      5 O2         -2.6860    2.8770   -0.1240 oh        1 BB2     -0.367300
      6 C6          0.9460    0.8440    0.5400 c3        1 BB2     -0.134700
      7 C12         1.3640    0.9270    1.9970 c         1 BB2      0.546100
      8 O13         0.9310    1.7220    2.8210 o         1 BB2     -0.409100
      9 C7          2.0840    1.2540   -0.3930 c3        1 BB2     -0.104400
     10 C8          3.1500    0.1930   -0.5750 c3        1 BB2     -0.096400
     11 C9          3.8750    0.3810   -1.8960 c3        1 BB2     -0.079400
     12 C10         5.0000   -0.6230   -2.0440 c3        1 BB2     -0.080400
     13 C11         5.7110   -0.4510   -3.3620 c3        1 BB2     -0.099100
     14 N14         2.4120   -0.0360    2.4500 n4        1 BB2     -0.665800
     15 C15         2.0620   -0.7690    3.7310 c3        1 BB2      0.051500
     16 C16         0.7710   -1.5950    3.5690 c3        1 BB2     -0.068700
     17 C18         0.8740   -2.6470    2.4860 c3        1 BB2     -0.114100
     18 C17         0.3950   -2.2240    4.8950 c3        1 BB2     -0.114100
     19 C19         3.2920   -1.6710    4.0590 c         1 BB2      0.639100
     20 O20         3.8400   -2.2400    3.0840 o         1 BB2     -0.624100
     21 N21         3.7330   -1.7740    5.3330 n         1 BB2     -0.420800
     22 C22         4.9160   -2.5810    5.6810 c3        1 BB2      0.096700
     23 C23         3.2170   -1.0480    6.4840 c3        1 BB2      0.077000
     24 C24         4.1290   -1.3690    7.6780 c3        1 BB2     -0.088400
     25 C25         5.2590   -2.2410    7.1440 c3        1 BB2     -0.086400
     26 C26         4.6840   -4.0960    5.4980 c3        1 BB2      0.121400
     27 O27         5.9300   -4.6970    5.7940 oh        1 BB2     -0.590800
     28 H51        -0.9790    1.6790    1.2170 hc        1 BB2      0.140200
     29 H52         0.0750    2.8400    0.3110 hc        1 BB2      0.140200
     30 HN1        -2.8880    1.8580   -1.8170 hn        1 BB2      0.480800
     31 HO2        -3.4930    3.4110   -0.3250 ho        1 BB2      0.496000
     32 H6          0.6430   -0.2230    0.3120 hc        1 BB2      0.123700
     33 H71         2.5500    2.2100   -0.0350 hc        1 BB2      0.077200
     34 H72         1.6250    1.4690   -1.3990 hc        1 BB2      0.077200
     35 H81         3.9110    0.2560    0.2480 hc        1 BB2      0.044700
     36 H82         2.6950   -0.8330   -0.5540 hc        1 BB2      0.044700
     37 H91         4.2900    1.4210   -1.9530 hc        1 BB2      0.054700
     38 H92         3.1520    0.2580   -2.7450 hc        1 BB2      0.054700
     39 H101        5.7320   -0.4950   -1.2030 hc        1 BB2      0.046700
     40 H102        4.5880   -1.6640   -1.9720 hc        1 BB2      0.046700
     41 H111        6.5390   -1.1960   -3.4510 hc        1 BB2      0.049033
     42 H112        5.0080   -0.6030   -4.2160 hc        1 BB2      0.049033
     43 H113        6.1510    0.5730   -3.4450 hc        1 BB2      0.049033
     44 H14         3.2920    0.4760    2.6080 hn        1 BB2      0.484800
     45 H15         1.8960    0.0210    4.5240 hx        1 BB2      0.127700
     46 H16        -0.0510   -0.8700    3.2930 hc        1 BB2      0.043700
     47 H181       -0.0090   -3.3330    2.5400 hc        1 BB2      0.065200
     48 H182        1.7990   -3.2660    2.6060 hc        1 BB2      0.065200
     49 H183        0.8850   -2.1830    1.4690 hc        1 BB2      0.065200
     50 H171        1.1670   -2.9630    5.2220 hc        1 BB2      0.065200
     51 H172       -0.5780   -2.7660    4.7850 hc        1 BB2      0.065200
     52 H173        0.2720   -1.4440    5.6850 hc        1 BB2      0.065200
     53 H22         5.7620   -2.2840    4.9940 h1        1 BB2      0.093700
     54 H231        2.1590   -1.3680    6.6940 h1        1 BB2      0.048700
     55 H232        3.2220    0.0580    6.2720 h1        1 BB2      0.048700
     56 H241        4.5260   -0.4240    8.1260 hc        1 BB2      0.076700
     57 H242        3.5490   -1.9060    8.4690 hc        1 BB2      0.076700
     58 H251        6.2370   -1.6980    7.1830 hc        1 BB2      0.087200
     59 H252        5.3710   -3.1810    7.7400 hc        1 BB2      0.087200
     60 H261        3.8960   -4.4710    6.2040 h1        1 BB2      0.038700
     61 H262        4.3800   -4.3160    4.4390 h1        1 BB2      0.038700
     62 H27         5.8380   -5.6400    5.6040 ho        1 BB2      0.425000
     63 H12        -1.8000    3.1520   -1.8650 hn        1 BB2      0.480800
     64 H142        2.5950   -0.7560    1.7250 hn        1 BB2      0.484800
@<TRIPOS>BOND
     1    1    2 1   
     2    1    6 1   
     3    1   28 1   
     4    1   29 1   
     5    2    3 2   
     6    2    4 1   
     7    4    5 1   
     8    4   30 1   
     9    4   63 1   
    10    5   31 1   
    11    6    7 1   
    12    6    9 1   
    13    6   32 1   
    14    7    8 2   
    15    7   14 1   
    16    9   10 1   
    17    9   33 1   
    18    9   34 1   
    19   10   11 1   
    20   10   35 1   
    21   10   36 1   
    22   11   12 1   
    23   11   37 1   
    24   11   38 1   
    25   12   13 1   
    26   12   39 1   
    27   12   40 1   
    28   13   41 1   
    29   13   42 1   
    30   13   43 1   
    31   14   15 1   
    32   14   44 1   
    33   14   64 1   
    34   15   16 1   
    35   15   19 1   
    36   15   45 1   
    37   16   17 1   
    38   16   18 1   
    39   16   46 1   
    40   17   47 1   
    41   17   48 1   
    42   17   49 1   
    43   18   50 1   
    44   18   51 1   
    45   18   52 1   
    46   19   20 2   
    47   19   21 1   
    48   21   22 1   
    49   21   23 1   
    50   22   25 1   
    51   22   26 1   
    52   22   53 1   
    53   23   24 1   
    54   23   54 1   
    55   23   55 1   
    56   24   25 1   
    57   24   56 1   
    58   24   57 1   
    59   25   58 1   
    60   25   59 1   
    61   26   27 1   
    62   26   60 1   
    63   26   61 1   
    64   27   62 1   
@<TRIPOS>SUBSTRUCTURE
     1 BB2         1 TEMP              0 ****  ****    0 ROOT
