@<TRIPOS>MOLECULE
BB3
   46    47     1     0     0
SMALL
bcc


@<TRIPOS>ATOM
      1 BR22        0.0290   -1.0670   -0.3230 br        1 BB3     -0.035100
      2 C13         1.8850   -0.8220   -0.2960 ca        1 BB3     -0.112400
      3 C14         2.6890   -1.1730    0.8150 ca        1 BB3      0.229100
      4 O20         2.0530   -1.7250    1.8860 oh        1 BB3     -0.458100
      5 C15         4.0850   -0.9520    0.7750 ca        1 BB3     -0.112400
      6 BR21        5.1930   -1.3920    2.2190 br        1 BB3     -0.035100
      7 C16         4.6600   -0.3860   -0.3600 ca        1 BB3     -0.011500
      8 C12         2.4890   -0.2620   -1.4190 ca        1 BB3     -0.011500
      9 C11         3.8700   -0.0520   -1.4690 ca        1 BB3     -0.229600
     10 C03         4.5210    0.5640   -2.6380 c         1 BB3      0.619900
     11 O19         5.6310    1.1060   -2.5610 o         1 BB3     -0.505100
     12 C9          3.8070    0.5220   -3.9240 cc        1 BB3     -0.260400
     13 C8          3.7000    1.5810   -4.8320 cd        1 BB3      0.212900
     14 C17         4.1480    2.9860   -4.8060 c3        1 BB3     -0.052200
     15 C18         5.6210    3.1050   -5.1320 c3        1 BB3     -0.101100
     16 C5          3.1600   -0.6100   -4.5290 ca        1 BB3      0.072200
     17 C6          2.9320   -1.9480   -4.1810 ca        1 BB3     -0.121000
     18 C4          2.6740   -0.1520   -5.8070 ca        1 BB3      0.000100
     19 O7          2.9990    1.1980   -5.9800 os        1 BB3     -0.171200
     20 C3          1.9990   -0.9480   -6.6990 ca        1 BB3      0.053000
     21 C2          1.7710   -2.3020   -6.3330 ca        1 BB3     -0.599500
     22 C1          2.2570   -2.7590   -5.0710 ca        1 BB3      0.002000
     23 S01         0.9600   -3.2630   -7.2670 s4        1 BB3      1.658300
     24 O01         0.5860   -4.4680   -6.7510 o         1 BB3     -0.442400
     25 O02         0.3440   -2.7030   -8.3470 o         1 BB3     -0.442400
     26 N01         2.6760   -4.1340   -8.4860 n3        1 BB3     -0.914200
     27 C01         3.6020   -4.8760   -7.6410 c3        1 BB3      0.094100
     28 C02         3.3300   -3.1100   -9.2890 c3        1 BB3      0.094100
     29 H20         2.7000   -1.8830    2.5980 ho        1 BB3      0.452000
     30 H16         5.7470   -0.1870   -0.4010 ha        1 BB3      0.163500
     31 H12         1.8670    0.0320   -2.2820 ha        1 BB3      0.163500
     32 H171        3.9570    3.3950   -3.7750 hc        1 BB3      0.093200
     33 H172        3.5430    3.5870   -5.5400 hc        1 BB3      0.093200
     34 H181        5.9200    4.1800   -5.0830 hc        1 BB3      0.063367
     35 H182        6.2350    2.5290   -4.3940 hc        1 BB3      0.063367
     36 H183        5.8340    2.7230   -6.1590 hc        1 BB3      0.063367
     37 H6          3.2790   -2.3340   -3.2070 ha        1 BB3      0.186000
     38 H3          1.6320   -0.5510   -7.6630 ha        1 BB3      0.187000
     39 H1          2.0660   -3.8140   -4.7930 ha        1 BB3      0.170000
     40 H011        3.0290   -5.6600   -7.0750 h1        1 BB3      0.077700
     41 H012        4.0910   -4.1720   -6.9160 h1        1 BB3      0.077700
     42 H013        4.4070   -5.3810   -8.2400 h1        1 BB3      0.077700
     43 H021        3.8250   -2.3640   -8.6120 h1        1 BB3      0.077700
     44 H022        2.5560   -2.5920   -9.9180 h1        1 BB3      0.077700
     45 H023        4.1140   -3.5430   -9.9680 h1        1 BB3      0.077700
     46 H014        2.2120   -4.7860   -9.1080 hn        1 BB3      0.411800
@<TRIPOS>BOND
     1    1    2 1   
     2    2    3 ar  
     3    2    8 ar  
     4    3    4 1   
     5    3    5 ar  
     6    4   29 1   
     7    5    6 1   
     8    5    7 ar  
     9    7    9 ar  
    10    7   30 1   
    11    8    9 ar  
    12    8   31 1   
    13    9   10 1   
    14   10   11 2   
    15   10   12 1   
    16   12   13 2   
    17   12   16 1   
    18   13   14 1   
    19   13   19 1   
    20   14   15 1   
    21   14   32 1   
    22   14   33 1   
    23   15   34 1   
    24   15   35 1   
    25   15   36 1   
    26   16   17 ar  
    27   16   18 ar  
    28   17   22 ar  
    29   17   37 1   
    30   18   19 1   
    31   18   20 ar  
    32   20   21 ar  
    33   20   38 1   
    34   21   22 ar  
    35   21   23 1   
    36   22   39 1   
    37   23   24 1   
    38   23   25 1   
    39   26   27 1   
    40   26   28 1   
    41   26   46 1   
    42   27   40 1   
    43   27   41 1   
    44   27   42 1   
    45   28   43 1   
    46   28   44 1   
    47   28   45 1   
@<TRIPOS>SUBSTRUCTURE
     1 BB3         1 TEMP              0 ****  ****    0 ROOT
