@<TRIPOS>MOLECULE
BB3
   46    47     1     0     0
SMALL
bcc


@<TRIPOS>ATOM
      1 Br22        0.0350   -1.0880   -0.3170 br        1 BB3     -0.035100
      2 C13         1.8880   -0.8230   -0.2930 ca        1 BB3     -0.112400
      3 C14         2.6960   -1.1610    0.8190 ca        1 BB3      0.229100
      4 O20         2.0670   -1.7150    1.8930 oh        1 BB3     -0.458100
      5 C15         4.0900   -0.9270    0.7760 ca        1 BB3     -0.112400
      6 Br21        5.2040   -1.3480    2.2210 br        1 BB3     -0.035100
      7 C16         4.6580   -0.3600   -0.3620 ca        1 BB3     -0.011500
      8 C12         2.4850   -0.2630   -1.4190 ca        1 BB3     -0.011500
      9 C11         3.8640   -0.0380   -1.4720 ca        1 BB3     -0.229600
     10 C03         4.5070    0.5790   -2.6440 c         1 BB3      0.619900
     11 O19         5.6130    1.1290   -2.5710 o         1 BB3     -0.504100
     12 C9          3.7910    0.5270   -3.9280 cc        1 BB3     -0.260400
     13 C8          3.6690    1.5830   -4.8380 cd        1 BB3      0.211900
     14 C17         4.0990    2.9930   -4.8150 c3        1 BB3     -0.052200
     15 C18         5.5710    3.1290   -5.1420 c3        1 BB3     -0.101100
     16 C5          3.1560   -0.6150   -4.5300 ca        1 BB3      0.071200
     17 C6          2.9460   -1.9550   -4.1790 ca        1 BB3     -0.121000
     18 C4          2.6620   -0.1650   -5.8070 ca        1 BB3      0.000100
     19 O7          2.9690    1.1900   -5.9830 os        1 BB3     -0.171200
     20 C3          1.9940   -0.9700   -6.6960 ca        1 BB3      0.053000
     21 C2          1.7840   -2.3260   -6.3280 ca        1 BB3     -0.599500
     22 C1          2.2780   -2.7750   -5.0660 ca        1 BB3      0.002000
     23 S01         0.9830   -3.2990   -7.2580 s4        1 BB3      1.658300
     24 O01         0.6250   -4.5080   -6.7400 o         1 BB3     -0.442400
     25 O02         0.3560   -2.7480   -8.3370 o         1 BB3     -0.442400
     26 N01         2.7060   -4.1490   -8.4810 n7        1 BB3     -0.914200
     27 C01         3.6450   -4.8770   -7.6380 c3        1 BB3      0.094100
     28 C02         3.3430   -3.1180   -9.2890 c3        1 BB3      0.094100
     29 H20         2.7170   -1.8630    2.6050 ho        1 BB3      0.452000
     30 H16         5.7440   -0.1490   -0.4050 ha        1 BB3      0.163500
     31 H12         1.8590    0.0210   -2.2830 ha        1 BB3      0.163500
     32 H171        3.9030    3.4020   -3.7840 hc        1 BB3      0.093200
     33 H172        3.4870    3.5850   -5.5500 hc        1 BB3      0.093200
     34 H181        5.8560    4.2090   -5.0950 hc        1 BB3      0.063367
     35 H182        6.1920    2.5620   -4.4040 hc        1 BB3      0.063367
     36 H183        5.7870    2.7480   -6.1680 hc        1 BB3      0.063367
     37 H6          3.3000   -2.3350   -3.2060 ha        1 BB3      0.186000
     38 H3          1.6190   -0.5790   -7.6600 ha        1 BB3      0.187000
     39 H1          2.1010   -3.8320   -4.7860 ha        1 BB3      0.170000
     40 H011        3.0840   -5.6670   -7.0680 h1        1 BB3      0.077700
     41 H012        4.1270   -4.1650   -6.9170 h1        1 BB3      0.077700
     42 H013        4.4540   -5.3720   -8.2390 h1        1 BB3      0.077700
     43 H021        3.8300   -2.3640   -8.6150 h1        1 BB3      0.077700
     44 H022        2.5600   -2.6120   -9.9160 h1        1 BB3      0.077700
     45 H023        4.1300   -3.5420   -9.9690 h1        1 BB3      0.077700
     46 H014        2.2480   -4.8090   -9.1000 hn        1 BB3      0.411800
@<TRIPOS>BOND
     1    1    2 1   
     2    2    3 ar  
     3    2    8 ar  
     4    3    4 1   
     5    3    5 ar  
     6    4   29 1   
     7    5    6 1   
     8    5    7 ar  
     9    7    9 ar  
    10    7   30 1   
    11    8    9 ar  
    12    8   31 1   
    13    9   10 1   
    14   10   11 2   
    15   10   12 1   
    16   12   13 2   
    17   12   16 1   
    18   13   14 1   
    19   13   19 1   
    20   14   15 1   
    21   14   32 1   
    22   14   33 1   
    23   15   34 1   
    24   15   35 1   
    25   15   36 1   
    26   16   17 ar  
    27   16   18 ar  
    28   17   22 ar  
    29   17   37 1   
    30   18   19 1   
    31   18   20 ar  
    32   20   21 ar  
    33   20   38 1   
    34   21   22 ar  
    35   21   23 1   
    36   22   39 1   
    37   23   24 1   
    38   23   25 1   
    39   26   27 1   
    40   26   28 1   
    41   26   46 1   
    42   27   40 1   
    43   27   41 1   
    44   27   42 1   
    45   28   43 1   
    46   28   44 1   
    47   28   45 1   
@<TRIPOS>SUBSTRUCTURE
     1 BB3         1 TEMP              0 ****  ****    0 ROOT
