@<TRIPOS>MOLECULE
BB3
   45    47     1     0     0
SMALL
bcc


@<TRIPOS>ATOM
      1 BR22       -3.2820   -0.1630   -1.6260 br        1 BB3     -0.054100
      2 C13        -1.5040    0.2360   -2.0520 ca        1 BB3     -0.108900
      3 C14        -1.1480    1.1490   -3.0710 ca        1 BB3      0.211100
      4 O20        -2.1700    1.7550   -3.7460 oh        1 BB3     -0.468100
      5 C15         0.2130    1.4020   -3.3500 ca        1 BB3     -0.108900
      6 BR21        0.7390    2.6030   -4.6890 br        1 BB3     -0.054100
      7 C16         1.2000    0.7410   -2.6210 ca        1 BB3     -0.012000
      8 C12        -0.4950   -0.4010   -1.3290 ca        1 BB3     -0.012000
      9 C11         0.8530   -0.1530   -1.6020 ca        1 BB3     -0.208600
     10 C03         1.9340   -0.8590   -0.8780 c         1 BB3      0.624900
     11 O19         3.0260   -1.0690   -1.4280 o         1 BB3     -0.538100
     12 C9          1.6770   -1.3140    0.4850 cc        1 BB3     -0.250400
     13 C8          2.2210   -2.4570    1.0600 cd        1 BB3      0.151900
     14 C17         3.1010   -3.5220    0.5410 c3        1 BB3     -0.036200
     15 C18         4.5580   -3.1270    0.6300 c3        1 BB3     -0.095100
     16 C5          0.8870   -0.6650    1.5190 ca        1 BB3     -0.016800
     17 C6          0.1260    0.4970    1.6190 ca        1 BB3     -0.121000
     18 C4          1.0050   -1.5000    2.6750 ca        1 BB3      0.019100
     19 O7          1.8130   -2.6100    2.3900 os        1 BB3     -0.187200
     20 C3          0.3990   -1.2180    3.8880 ca        1 BB3      0.004000
     21 C2         -0.3560   -0.0430    3.9650 ca        1 BB3     -0.362500
     22 C1         -0.4820    0.7870    2.8370 ca        1 BB3     -0.032000
     23 S01        -1.1510    0.3630    5.4080 sy        1 BB3      1.505200
     24 O01        -2.2950    1.1230    5.0790 o         1 BB3     -0.648300
     25 O02        -1.3600   -0.8270    6.1380 o         1 BB3     -0.648300
     26 N01        -0.0700    1.3020    6.1800 n3        1 BB3     -0.815500
     27 C01        -0.0140    2.7200    5.9880 c3        1 BB3      0.206100
     28 C02         0.9150    0.7620    7.0690 c3        1 BB3      0.206100
     29 H20        -1.7930    2.3450   -4.4230 ho        1 BB3      0.441000
     30 H16         2.2700    0.9070   -2.8410 ha        1 BB3      0.169000
     31 H12        -0.7590   -1.1140   -0.5270 ha        1 BB3      0.169000
     32 H171        2.8300   -3.7040   -0.5350 hc        1 BB3      0.076200
     33 H172        2.9230   -4.4690    1.1180 hc        1 BB3      0.076200
     34 H181        5.1930   -3.9600    0.2430 hc        1 BB3      0.051700
     35 H182        4.7480   -2.2130    0.0130 hc        1 BB3      0.051700
     36 H183        4.8480   -2.9170    1.6870 hc        1 BB3      0.051700
     37 H6          0.0030    1.1640    0.7530 ha        1 BB3      0.154000
     38 H3          0.4910   -1.8980    4.7520 ha        1 BB3      0.173000
     39 H1         -1.1070    1.6960    2.9210 ha        1 BB3      0.156000
     40 H011       -0.0970    3.2510    6.9750 h1        1 BB3      0.046033
     41 H012        0.9570    3.0180    5.5080 h1        1 BB3      0.046033
     42 H013       -0.8660    3.0500    5.3320 h1        1 BB3      0.046033
     43 H021        0.7360   -0.3380    7.2160 h1        1 BB3      0.046033
     44 H022        1.9490    0.9150    6.6560 h1        1 BB3      0.046033
     45 H023        0.8580    1.2700    8.0700 h1        1 BB3      0.046033
@<TRIPOS>BOND
     1    1    2 1   
     2    2    3 ar  
     3    2    8 ar  
     4    3    4 1   
     5    3    5 ar  
     6    4   29 1   
     7    5    6 1   
     8    5    7 ar  
     9    7    9 ar  
    10    7   30 1   
    11    8    9 ar  
    12    8   31 1   
    13    9   10 1   
    14   10   11 2   
    15   10   12 1   
    16   12   13 2   
    17   12   16 1   
    18   13   14 1   
    19   13   19 1   
    20   14   15 1   
    21   14   32 1   
    22   14   33 1   
    23   15   34 1   
    24   15   35 1   
    25   15   36 1   
    26   16   17 ar  
    27   16   18 ar  
    28   17   22 ar  
    29   17   37 1   
    30   18   19 1   
    31   18   20 ar  
    32   20   21 ar  
    33   20   38 1   
    34   21   22 ar  
    35   21   23 1   
    36   22   39 1   
    37   23   24 2   
    38   23   25 2   
    39   23   26 1   
    40   26   27 1   
    41   26   28 1   
    42   27   40 1   
    43   27   41 1   
    44   27   42 1   
    45   28   43 1   
    46   28   44 1   
    47   28   45 1   
@<TRIPOS>SUBSTRUCTURE
     1 BB3         1 TEMP              0 ****  ****    0 ROOT
