@<TRIPOS>MOLECULE
BB3
   45    39     1     0     0
SMALL
bcc


@<TRIPOS>ATOM
      1 BR22       -0.0610   -0.7730    6.6310 br        1 BB3      0.073000
      2 C13         0.2970    0.5920    5.3830 c2        1 BB3     -0.278000
      3 C14        -0.1320    1.9080    5.6400 c2        1 BB3      0.166000
      4 O20        -0.7750    2.2040    6.8250 oh        1 BB3     -0.222000
      5 C15         0.0520    2.9040    4.6810 c1        1 BB3     -0.220000
      6 BR21       -0.7120    4.6700    4.9580 br        1 BB3      0.099000
      7 C16         0.6610    2.5940    3.4690 c2        1 BB3     -0.022000
      8 C12         0.9210    0.2750    4.1390 c1        1 BB3     -0.003000
      9 C11         1.1020    1.2430    3.2030 c1        1 BB3     -0.188000
     10 C03         1.7960    0.9210    1.9160 c2        1 BB3      0.347000
     11 O19         2.9900    0.6890    1.9110 o         1 BB3     -0.300000
     12 C9          1.0480    1.0090    0.6200 c2        1 BB3     -0.244000
     13 C8          0.8130    2.1570   -0.1490 c1        1 BB3      0.114000
     14 C17         0.7020    3.7080   -0.3180 c2        1 BB3     -0.128000
     15 C18         1.8830    4.2280   -1.2810 c3        1 BB3     -0.209000
     16 C5          0.4200   -0.0490    0.0040 c1        1 BB3     -0.005000
     17 C6          0.3920   -1.4370    0.2990 c1        1 BB3     -0.076500
     18 C4         -0.1930    0.4200   -1.1210 c1        1 BB3     -0.026000
     19 O7          0.0570    1.7980   -1.2100 o         1 BB3     -0.097000
     20 C3         -0.8540   -0.4750   -1.9940 c1        1 BB3      0.003000
     21 C2         -0.8840   -1.8560   -1.7050 c1        1 BB3     -0.807000
     22 C1         -0.2700   -2.3310   -0.5750 c1        1 BB3     -0.076500
     23 S01        -1.9950   -3.0070   -2.6390 s4        1 BB3      2.060800
     24 O01        -2.5140   -4.1210   -1.7420 o         1 BB3     -0.535900
     25 O02        -3.1870   -2.3760   -3.0070 o         1 BB3     -0.535900
     26 N01        -1.2280   -3.6000   -3.9330 n2        1 BB3     -0.835000
     27 C01        -0.3970   -4.7750   -3.8000 c3        1 BB3     -0.070000
     28 C02        -1.4600   -3.0360   -5.2180 c3        1 BB3     -0.070000
     29 H20        -1.5860    1.7790    6.8470 ho        1 BB3      0.240000
     30 H16         0.7950    3.3130    2.7740 ha        1 BB3      0.166000
     31 H12         1.1940   -0.5610    3.9740 ha        1 BB3      0.172000
     32 H171        0.7850    4.1690    0.6200 ha        1 BB3      0.123500
     33 H172       -0.1400    3.9260   -0.7020 ha        1 BB3      0.123500
     34 H181        1.6840    3.9320   -2.2660 hc        1 BB3      0.087667
     35 H182        1.9300    5.1130   -1.2420 hc        1 BB3      0.087667
     36 H183        2.7660    3.8280   -0.9810 hc        1 BB3      0.087667
     37 H6          0.8280   -1.7720    1.1060 ha        1 BB3      0.155000
     38 H3         -1.3100   -0.1210   -2.8340 ha        1 BB3      0.173000
     39 H1         -0.2880   -3.2810   -0.3760 ha        1 BB3      0.155000
     40 H011       -0.9380   -5.5370   -3.7460 h1        1 BB3      0.085333
     41 H012        0.2120   -4.8510   -4.6030 h1        1 BB3      0.085333
     42 H013        0.1350   -4.7020   -2.9970 h1        1 BB3      0.085333
     43 H021       -2.1310   -2.3140   -5.1450 h1        1 BB3      0.085333
     44 H022       -1.8030   -3.7490   -5.8430 h1        1 BB3      0.085333
     45 H023       -0.6010   -2.6580   -5.5780 h1        1 BB3      0.085333
@<TRIPOS>BOND
     1    1    2 1   
     2    2    3 1   
     3    2    8 1   
     4    3    4 1   
     5    3    5 1   
     6    4   29 1   
     7    5    7 1   
     8    7    9 1   
     9    7   30 1   
    10    8   31 1   
    11    9   10 1   
    12   10   11 1   
    13   10   12 1   
    14   12   13 1   
    15   12   16 1   
    16   13   19 1   
    17   14   15 1   
    18   14   32 1   
    19   14   33 1   
    20   15   34 1   
    21   15   35 1   
    22   15   36 1   
    23   16   18 1   
    24   17   22 1   
    25   17   37 1   
    26   20   21 1   
    27   20   38 1   
    28   21   23 1   
    29   22   39 1   
    30   23   24 1   
    31   23   25 1   
    32   26   27 1   
    33   26   28 1   
    34   27   40 1   
    35   27   41 1   
    36   27   42 1   
    37   28   43 1   
    38   28   44 1   
    39   28   45 1   
@<TRIPOS>SUBSTRUCTURE
     1 BB3         1 TEMP              0 ****  ****    0 ROOT
