@<TRIPOS>MOLECULE
BB4
   25    24     1     0     0
SMALL
bcc


@<TRIPOS>ATOM
      1 BR          0.9360    2.6330   -1.2270 br        1 BB4      0.169000
      2 N1          6.6860    3.0730   -2.1890 n3        1 BB4     -0.218000
      3 O2          2.5220    0.8360   -3.4600 o         1 BB4     -0.212000
      4 N3          5.5330    0.9340   -0.4170 n3        1 BB4     -0.150000
      5 C4          4.3630   -2.8890   -1.0290 c1        1 BB4      0.330000
      6 C5          3.8830   -1.6840   -1.3020 c2        1 BB4     -0.480000
      7 C6          3.5750   -0.5910   -0.3150 c3        1 BB4      0.022000
      8 C7          2.7710    0.4330   -1.0770 c2        1 BB4     -0.230000
      9 C8          2.0260    1.3630   -0.4660 c2        1 BB4     -0.151000
     10 C9          5.7640   -1.0720    2.4350 c1        1 BB4      0.076000
     11 C10         5.3720   -0.5760    1.4130 c1        1 BB4     -0.315000
     12 C11         4.8850   -0.0170    0.2140 c2        1 BB4      0.321000
     13 C13         2.8540    0.1140   -2.5270 c2        1 BB4      0.257000
     14 O14         7.4640    2.9320   -1.1210 oh        1 BB4     -0.288000
     15 HN1         7.2030    2.8940   -3.0450 hn        1 BB4      0.154500
     16 HN3         5.1750    1.3340   -1.2720 hn        1 BB4      0.301000
     17 H4          6.4090    1.3120   -0.0860 hn        1 BB4      0.301000
     18 H7          2.9870   -0.9900    0.5600 hc        1 BB4      0.165000
     19 H9          2.0140    1.4190    0.6380 h4        1 BB4      0.158000
     20 H10         6.1090   -1.5170    3.3450 ha        1 BB4      0.271000
     21 H12         2.6940   -1.9640   -3.1060 hc        1 BB4      0.148000
     22 H12A        4.3320   -1.2310   -3.3900 hc        1 BB4      0.148000
     23 HO14        8.2290    3.5420   -1.1460 ho        1 BB4      0.205000
     24 H121        6.3230    4.0210   -2.2530 hn        1 BB4      0.154500
     25 C12         3.4630   -1.2640   -2.6810 c3        1 BB4     -0.138000
@<TRIPOS>BOND
     1    1    9 1   
     2    2   14 1   
     3    2   15 1   
     4    2   24 1   
     5    3   13 1   
     6    4   12 1   
     7    4   16 1   
     8    4   17 1   
     9    5    6 1   
    10    6    7 1   
    11    6   25 1   
    12    7    8 1   
    13    7   12 1   
    14    7   18 1   
    15    8    9 1   
    16    8   13 1   
    17    9   19 1   
    18   10   11 1   
    19   10   20 1   
    20   11   12 1   
    21   13   25 1   
    22   14   23 1   
    23   21   25 1   
    24   22   25 1   
@<TRIPOS>SUBSTRUCTURE
     1 BB4         1 TEMP              0 ****  ****    0 ROOT
