@<TRIPOS>MOLECULE
BB4
   24    25     1     0     0
SMALL
bcc


@<TRIPOS>ATOM
      1 BR          2.7310    1.5120    0.6960 br        1 BB4     -0.087100
      2 N1         -2.7680    1.5670   -0.0350 n         1 BB4     -0.355400
      3 O2         -4.8330    0.7540    0.6450 o         1 BB4     -0.567100
      4 N3         -1.1030   -2.9570   -0.5890 na        1 BB4     -0.184400
      5 C4         -2.2400   -2.4780    0.0610 cc        1 BB4     -0.075100
      6 C5         -1.9670   -1.2490    0.6660 cd        1 BB4     -0.164400
      7 C6         -0.5810   -0.9380    0.3820 ca        1 BB4     -0.100800
      8 C7          0.2610    0.1240    0.7140 ca        1 BB4     -0.066000
      9 C8          1.5770    0.1000    0.2650 ca        1 BB4     -0.046900
     10 C9          2.0670   -0.9700   -0.5110 ca        1 BB4     -0.088000
     11 C10         1.2610   -2.0420   -0.8570 ca        1 BB4     -0.139000
     12 C11        -0.0700   -2.0340   -0.4110 ca        1 BB4     -0.036200
     13 C13        -3.5990    0.6190    0.6340 c         1 BB4      0.594100
     14 O14        -3.3620    2.2340   -1.0280 oh        1 BB4     -0.436100
     15 HN1        -1.9200    1.1480   -0.4060 hn        1 BB4      0.309500
     16 HN3        -1.0370   -3.7990   -1.0960 hn        1 BB4      0.305700
     17 H4         -3.1720   -3.0490    0.0500 h4        1 BB4      0.176000
     18 H7         -0.1230    0.9570    1.3240 ha        1 BB4      0.154000
     19 H9          3.1150   -0.9580   -0.8520 ha        1 BB4      0.148000
     20 H10         1.6530   -2.8720   -1.4610 ha        1 BB4      0.141000
     21 H12        -3.6960   -1.0980    1.9140 hc        1 BB4      0.084700
     22 H12A       -2.3530    0.0650    2.3020 hc        1 BB4      0.084700
     23 HO14       -3.9780    2.8600   -0.5970 ho        1 BB4      0.432000
     24 C12        -2.9010   -0.4450    1.4610 c3        1 BB4     -0.081200
@<TRIPOS>BOND
     1    1    9 1   
     2    2   13 1   
     3    2   14 1   
     4    2   15 1   
     5    3   13 2   
     6    4    5 1   
     7    4   12 1   
     8    4   16 1   
     9    5    6 2   
    10    5   17 1   
    11    6    7 1   
    12    6   24 1   
    13    7    8 ar  
    14    7   12 ar  
    15    8    9 ar  
    16    8   18 1   
    17    9   10 ar  
    18   10   11 ar  
    19   10   19 1   
    20   11   12 ar  
    21   11   20 1   
    22   13   24 1   
    23   14   23 1   
    24   21   24 1   
    25   22   24 1   
@<TRIPOS>SUBSTRUCTURE
     1 BB4         1 TEMP              0 ****  ****    0 ROOT
