@<TRIPOS>MOLECULE
BB4
   24    19     1     0     0
SMALL
bcc


@<TRIPOS>ATOM
      1 BR         -4.8370    0.3490    0.8910 br        1 BB4      0.053000
      2 N1          2.0560   -0.8170   -3.2760 n         1 BB4     -0.196000
      3 O2          1.1320   -1.8280   -1.4500 o         1 BB4     -0.328000
      4 N3          1.0890    0.2730    2.1560 n2        1 BB4     -0.207000
      5 C4          1.6070    0.3130    0.8920 c1        1 BB4     -0.048000
      6 C5          0.5550    0.3470   -0.0000 c1        1 BB4     -0.172000
      7 C6         -0.6170    0.3280    0.7240 c1        1 BB4     -0.089000
      8 C7         -1.9670    0.3520    0.3330 c1        1 BB4     -0.066000
      9 C8         -2.9680    0.3290    1.2930 c1        1 BB4     -0.187000
     10 C9         -2.6370    0.2820    2.6400 c1        1 BB4     -0.088000
     11 C10        -1.3050    0.2590    3.0270 c1        1 BB4     -0.139000
     12 C11        -0.2900    0.2820    2.0550 c1        1 BB4      0.009000
     13 C12         0.8870    0.5260   -1.4660 c2        1 BB4     -0.114000
     14 C13         1.3620   -0.7910   -2.0390 c2        1 BB4      0.238000
     15 O14         1.9600   -1.9120   -4.0920 oh        1 BB4     -0.241000
     16 HN1         2.5550   -0.0970   -3.5350 hn        1 BB4      0.223000
     17 HN3         1.5690    0.2450    2.9310 DU        1 BB4      0.216000
     18 H4          2.5560    0.3300    0.6610 DU        1 BB4      0.216000
     19 H7         -2.2000    0.3990   -0.6140 ha        1 BB4      0.154000
     20 H9         -3.3420    0.2830    3.3160 ha        1 BB4      0.148000
     21 H10        -1.0730    0.2260    3.9750 ha        1 BB4      0.141000
     22 H12         1.5930    1.1960   -1.5610 ha        1 BB4      0.124000
     23 H12A        0.0890    0.8220   -1.9480 ha        1 BB4      0.124000
     24 HO14        2.2280   -1.6960   -4.9110 ho        1 BB4      0.231000
@<TRIPOS>BOND
     1    1    9 1   
     2    2   14 1   
     3    2   15 1   
     4    2   16 1   
     5    3   14 1   
     6    4    5 1   
     7    4   12 1   
     8    5    6 1   
     9    6    7 1   
    10    7    8 1   
    11    8   19 1   
    12    9   10 1   
    13   10   20 1   
    14   11   12 1   
    15   11   21 1   
    16   13   14 1   
    17   13   22 1   
    18   13   23 1   
    19   15   24 1   
@<TRIPOS>SUBSTRUCTURE
     1 BB4         1 TEMP              0 ****  ****    0 ROOT
