@<TRIPOS>MOLECULE
BB4
   25    24     1     0     0
SMALL
bcc


@<TRIPOS>ATOM
      1 Br          0.7630    1.6300   -2.1450 br        1 BB4      0.168000
      2 N1          6.3940    2.1440   -2.8130 n8        1 BB4     -0.213000
      3 O2          3.6850    0.8400   -3.4780 o         1 BB4     -0.244000
      4 N3          5.1390    1.6130    0.2410 n8        1 BB4     -0.168000
      5 C4          5.4790   -2.4380   -0.4450 c1        1 BB4      0.334000
      6 C5          4.8060   -1.4000   -0.9210 c2        1 BB4     -0.478000
      7 C6          3.8800   -0.4950   -0.1540 c3        1 BB4      0.025000
      8 C7          3.0850    0.2430   -1.2030 c2        1 BB4     -0.237000
      9 C8          1.8810    0.7740   -0.9610 c2        1 BB4     -0.147000
     10 C9          5.2710   -0.3840    3.1070 c1        1 BB4      0.083000
     11 C10         5.0240    0.0160    2.0020 c1        1 BB4     -0.321000
     12 C11         4.7180    0.4550    0.6990 c2        1 BB4      0.334000
     13 C13         3.8080    0.1140   -2.4970 c2        1 BB4      0.276000
     14 O14         5.3940    2.9560   -2.4080 oh        1 BB4     -0.324000
     15 HN1         7.2320    2.5050   -2.3590 hn        1 BB4      0.151000
     16 HN3         4.9140    1.9220   -0.6990 hn        1 BB4      0.296500
     17 H4          5.7100    2.2260    0.7950 hn        1 BB4      0.296500
     18 H7          3.2070   -1.0820    0.5320 hc        1 BB4      0.165000
     19 H9          1.4430    0.7150    0.0520 h4        1 BB4      0.162000
     20 H10         5.4890   -0.7460    4.0910 ha        1 BB4      0.272000
     21 H12         4.4580   -1.8840   -3.0200 hc        1 BB4      0.153500
     22 H12A        5.8090   -0.6980   -2.7310 hc        1 BB4      0.153500
     23 HO14        4.6340    2.7810   -2.9990 ho        1 BB4      0.246000
     24 H121        6.5530    2.2660   -3.8120 hn        1 BB4      0.151000
     25 C12         4.7950   -1.0270   -2.3780 c3        1 BB4     -0.135000
@<TRIPOS>BOND
     1    1    9 1   
     2    2   14 1   
     3    2   15 1   
     4    2   24 1   
     5    3   13 1   
     6    4   12 1   
     7    4   16 1   
     8    4   17 1   
     9    5    6 1   
    10    6    7 1   
    11    6   25 1   
    12    7    8 1   
    13    7   12 1   
    14    7   18 1   
    15    8    9 1   
    16    8   13 1   
    17    9   19 1   
    18   10   11 1   
    19   10   20 1   
    20   11   12 1   
    21   13   25 1   
    22   14   23 1   
    23   21   25 1   
    24   22   25 1   
@<TRIPOS>SUBSTRUCTURE
     1 BB4         1 TEMP              0 ****  ****    0 ROOT
