@<TRIPOS>MOLECULE
BB6
   14    12     1     0     0
SMALL
bcc


@<TRIPOS>ATOM
      1 N          -1.9840   -0.0720    0.4830 n3        1 BB6     -0.327000
      2 CA         -0.5650   -0.0720    0.4830 c2        1 BB6      0.050000
      3 C           0.1910   -0.0720    1.7940 c2        1 BB6      0.366000
      4 O           0.5030    1.0190    2.3400 o         1 BB6     -0.549000
      5 CB          0.1080   -0.0720   -0.6840 c1        1 BB6     -0.406000
      6 SG         -0.7780   -0.0720   -2.2190 s         1 BB6     -0.007000
      7 CD          1.6210   -0.0720   -0.6840 c3        1 BB6     -0.140000
      8 OXT         0.5090   -1.1620    2.3370 o         1 BB6     -0.549000
      9 H          -2.4400   -0.8610    0.4670 hn        1 BB6      0.185000
     10 H1         -2.4400    0.7170    0.5280 hn        1 BB6      0.185000
     11 HG         -0.5660    0.9330   -2.7950 hs        1 BB6     -0.013000
     12 HD1C        1.9470   -0.1060   -1.6030 hc        1 BB6      0.068333
     13 HD2C        1.9470    0.7420   -0.2540 hc        1 BB6      0.068333
     14 HD3C        1.9470   -0.8510   -0.1940 hc        1 BB6      0.068333
@<TRIPOS>BOND
     1    1    2 1   
     2    1    9 1   
     3    1   10 1   
     4    2    3 1   
     5    2    5 1   
     6    3    4 1   
     7    3    8 1   
     8    5    7 1   
     9    6   11 1   
    10    7   12 1   
    11    7   13 1   
    12    7   14 1   
@<TRIPOS>SUBSTRUCTURE
     1 BB6         1 TEMP              0 ****  ****    0 ROOT
