@<TRIPOS>MOLECULE
BB6
   14    13     1     0     0
SMALL
bcc


@<TRIPOS>ATOM
      1 N          -0.0740    1.8030    0.2390 nh        1 BB6     -0.818600
      2 CA          0.2070    0.4500    0.1270 ce        1 BB6      0.112800
      3 C           1.7100    0.1270   -0.1010 c         1 BB6      0.915800
      4 O           2.2540    0.7640   -1.0460 o         1 BB6     -0.814300
      5 CB         -0.7570   -0.5120    0.1950 c2        1 BB6     -0.169600
      6 SG         -2.4130   -0.0780    0.3460 sh        1 BB6     -0.419400
      7 CD         -0.4650   -1.9540    0.1920 c3        1 BB6     -0.017900
      8 OXT         2.2830   -0.7010    0.6470 o         1 BB6     -0.814300
      9 H           0.6080    2.3850   -0.2000 hn        1 BB6      0.389800
     10 H1         -1.0210    2.0590    0.0510 hn        1 BB6      0.389800
     11 HG         -2.8730   -0.6220   -0.7690 hs        1 BB6      0.158800
     12 HD1C        0.6390   -2.1430    0.2230 hc        1 BB6      0.029033
     13 HD2C       -0.9290   -2.4520    1.0810 hc        1 BB6      0.029033
     14 HD3C       -0.8840   -2.4370   -0.7290 hc        1 BB6      0.029033
@<TRIPOS>BOND
     1    1    2 1   
     2    1    9 1   
     3    1   10 1   
     4    2    3 1   
     5    2    5 2   
     6    3    4 1   
     7    3    8 1   
     8    5    6 1   
     9    5    7 1   
    10    6   11 1   
    11    7   12 1   
    12    7   13 1   
    13    7   14 1   
@<TRIPOS>SUBSTRUCTURE
     1 BB6         1 TEMP              0 ****  ****    0 ROOT
