@<TRIPOS>MOLECULE
BB7
   18    16     1     0     0
SMALL
bcc


@<TRIPOS>ATOM
      1 N          -2.8000   -0.0010    0.9620 n3        1 BB7     -0.326000
      2 CA         -1.3810   -0.0010    0.9620 c2        1 BB7      0.058000
      3 C          -0.6250   -0.0010    2.2720 c2        1 BB7      0.361000
      4 O          -0.2800   -1.0910    2.8000 o         1 BB7     -0.546000
      5 CB         -0.7070   -0.0010   -0.2050 c1        1 BB7     -0.442000
      6 SG         -1.5940   -0.0010   -1.7400 s         1 BB7      0.001000
      7 CB1         0.8050   -0.0010   -0.2050 c3        1 BB7      0.034000
      8 OB2         1.2750    0.2740   -1.5040 os        1 BB7     -0.315000
      9 CB3         2.6800    0.2610   -1.6180 c3        1 BB7     -0.077000
     10 OXT        -0.3410    1.0890    2.8350 o         1 BB7     -0.546000
     11 HN1        -3.2560    0.7880    0.9320 hn        1 BB7      0.188000
     12 HN2        -3.2560   -0.7880    1.0270 hn        1 BB7      0.188000
     13 HG         -1.7970   -1.1110   -2.0760 hs        1 BB7      0.008000
     14 H11         1.1310    0.6840    0.4100 h1        1 BB7      0.102500
     15 H12         1.1310   -0.8760    0.0810 h1        1 BB7      0.102500
     16 H31         3.0600    0.9480   -1.0370 h1        1 BB7      0.070000
     17 H32         3.0210   -0.6140   -1.3530 h1        1 BB7      0.070000
     18 H33         2.9340    0.4420   -2.5430 h1        1 BB7      0.070000
@<TRIPOS>BOND
     1    1    2 1   
     2    1   11 1   
     3    1   12 1   
     4    2    3 1   
     5    2    5 1   
     6    3    4 1   
     7    3   10 1   
     8    5    7 1   
     9    6   13 1   
    10    7    8 1   
    11    7   14 1   
    12    7   15 1   
    13    8    9 1   
    14    9   16 1   
    15    9   17 1   
    16    9   18 1   
@<TRIPOS>SUBSTRUCTURE
     1 BB7         1 TEMP              0 ****  ****    0 ROOT
