@<TRIPOS>MOLECULE
BB7
   18    17     1     0     0
SMALL
bcc


@<TRIPOS>ATOM
      1 N           1.5030    1.2090    0.8240 nh        1 BB7     -0.817600
      2 CA          0.7150    0.3190    0.1170 ce        1 BB7      0.120800
      3 C           1.2980   -1.1170    0.0110 c         1 BB7      0.910800
      4 O           1.5370   -1.6760    1.1180 o         1 BB7     -0.811300
      5 CB         -0.4850    0.6640   -0.4330 c2        1 BB7     -0.205600
      6 SG         -1.1250    2.2390   -0.2140 sh        1 BB7     -0.411400
      7 CB1        -1.2670   -0.2650   -1.2840 c3        1 BB7      0.188600
      8 OB2        -2.3760   -0.8460   -0.5830 os        1 BB7     -0.458600
      9 CB3        -1.9980   -1.9000    0.2840 c3        1 BB7      0.112700
     10 OXT         1.4950   -1.6150   -1.1230 o         1 BB7     -0.811300
     11 HN1         2.1240    0.7690    1.4690 hn        1 BB7      0.392800
     12 HN2         1.0300    2.0130    1.1810 hn        1 BB7      0.392800
     13 HG         -2.3010    1.9120    0.3010 hs        1 BB7      0.179800
     14 H11        -1.7650    0.2940   -2.1230 h1        1 BB7      0.063200
     15 H12        -0.6100   -1.0780   -1.7000 h1        1 BB7      0.063200
     16 H31        -1.8740   -2.8410   -0.3090 h1        1 BB7      0.030700
     17 H32        -1.0440   -1.6700    0.8230 h1        1 BB7      0.030700
     18 H33        -2.8470   -2.0060    1.0040 h1        1 BB7      0.030700
@<TRIPOS>BOND
     1    1    2 1   
     2    1   11 1   
     3    1   12 1   
     4    2    3 1   
     5    2    5 2   
     6    3    4 1   
     7    3   10 1   
     8    5    6 1   
     9    5    7 1   
    10    6   13 1   
    11    7    8 1   
    12    7   14 1   
    13    7   15 1   
    14    8    9 1   
    15    9   16 1   
    16    9   17 1   
    17    9   18 1   
@<TRIPOS>SUBSTRUCTURE
     1 BB7         1 TEMP              0 ****  ****    0 ROOT
