@<TRIPOS>MOLECULE
BB8
   23    23     1     0     0
SMALL
bcc


@<TRIPOS>ATOM
      1 N          -0.7860    1.5740   -0.9590 n3        1 BB8     -0.882800
      2 CA         -1.2540    0.2500   -0.5830 c3        1 BB8     -0.009500
      3 C          -2.7230    0.2190   -0.0430 c         1 BB8      0.885600
      4 CB         -0.3490   -0.4560    0.4570 c3        1 BB8      0.208400
      5 OB         -0.5650   -1.8610    0.4190 oh        1 BB8     -0.649800
      6 CG          1.1160   -0.2190    0.2190 ca        1 BB8     -0.035300
      7 CD1         1.7450    0.8860    0.8060 ca        1 BB8     -0.113000
      8 CE1         3.1030    1.1190    0.5920 ca        1 BB8     -0.143500
      9 CZ          3.8460    0.2490   -0.2050 ca        1 BB8     -0.153000
     10 CE2         3.2260   -0.8550   -0.7890 ca        1 BB8     -0.143500
     11 CD2         1.8680   -1.0890   -0.5800 ca        1 BB8     -0.113000
     12 O          -3.3990    1.2830   -0.0820 o         1 BB8     -0.838300
     13 OXT        -3.1590   -0.8870    0.3930 o         1 BB8     -0.838300
     14 HN1        -1.5670    2.0600   -1.3720 hn        1 BB8      0.333800
     15 HA2        -0.5410    2.0800   -0.1260 hn        1 BB8      0.333800
     16 HA         -1.2430   -0.3770   -1.5220 h1        1 BB8      0.058700
     17 HB         -0.6220   -0.0790    1.4850 h1        1 BB8      0.034700
     18 HC         -1.5300   -1.9940    0.4570 ho        1 BB8      0.458000
     19 HD1         1.1610    1.5750    1.4330 ha        1 BB8      0.137000
     20 HD2         1.3690   -1.9600   -1.0320 ha        1 BB8      0.137000
     21 HE1         3.5870    1.9920    1.0500 ha        1 BB8      0.112000
     22 HZ          4.9160    0.4340   -0.3730 ha        1 BB8      0.109000
     23 HE2         3.8080   -1.5430   -1.4180 ha        1 BB8      0.112000
@<TRIPOS>BOND
     1    1    2 1   
     2    1   14 1   
     3    1   15 1   
     4    2    3 1   
     5    2    4 1   
     6    2   16 1   
     7    3   12 1   
     8    3   13 1   
     9    4    5 1   
    10    4    6 1   
    11    4   17 1   
    12    5   18 1   
    13    6    7 ar  
    14    6   11 ar  
    15    7    8 ar  
    16    7   19 1   
    17    8    9 ar  
    18    8   21 1   
    19    9   10 ar  
    20    9   22 1   
    21   10   11 ar  
    22   10   23 1   
    23   11   20 1   
@<TRIPOS>SUBSTRUCTURE
     1 BB8         1 TEMP              0 ****  ****    0 ROOT
