@<TRIPOS>MOLECULE
BB9
   11     9     1     0     0
SMALL
bcc


@<TRIPOS>ATOM
      1 N          -1.4550   -0.0000    0.3260 n3        1 BB9     -0.332000
      2 CA         -0.0360   -0.0000    0.3260 c2        1 BB9      0.040000
      3 C           0.7210   -0.0000    1.6360 c2        1 BB9      0.362000
      4 O           1.0350   -1.0900    2.1820 o         1 BB9     -0.551000
      5 CB          0.6380   -0.0000   -0.8410 c1        1 BB9     -0.484000
      6 SG         -0.2490   -0.0000   -2.3760 s         1 BB9      0.012000
      7 OXT         1.0350    1.0900    2.1820 o         1 BB9     -0.551000
      8 HN1        -1.9100    0.7900    0.3380 hn        1 BB9      0.186500
      9 HN2        -1.9100   -0.7900    0.3380 hn        1 BB9      0.186500
     10 HB          1.6140   -0.0000   -0.8410 ha        1 BB9      0.152000
     11 HG          0.5170    0.0000   -3.2710 hs        1 BB9     -0.022000
@<TRIPOS>BOND
     1    1    2 1   
     2    1    8 1   
     3    1    9 1   
     4    2    3 1   
     5    2    5 1   
     6    3    4 1   
     7    3    7 1   
     8    5   10 1   
     9    6   11 1   
@<TRIPOS>SUBSTRUCTURE
     1 BB9         1 TEMP              0 ****  ****    0 ROOT
