@<TRIPOS>MOLECULE
BB9
   11    10     1     0     0
SMALL
bcc


@<TRIPOS>ATOM
      1 N          -0.0880    1.5820    0.2510 nh        1 BB9     -0.823600
      2 CA          0.1250    0.2200    0.1490 ce        1 BB9      0.102800
      3 C           1.5970   -0.2350   -0.0470 c         1 BB9      0.911800
      4 O           1.9480   -1.3390    0.4360 o         1 BB9     -0.816300
      5 CB         -0.8610   -0.7120    0.2170 c2        1 BB9     -0.243400
      6 SG         -2.5120   -0.3580    0.3690 sh        1 BB9     -0.400400
      7 OXT         2.3350    0.5460   -0.7120 o         1 BB9     -0.816300
      8 HN1         0.6500    2.1310   -0.1360 hn        1 BB9      0.391300
      9 HN2        -1.0080    1.8930    0.0270 hn        1 BB9      0.391300
     10 HB         -0.5640   -1.7670    0.2410 h4        1 BB9      0.152000
     11 HG         -2.9380   -0.8130   -0.8000 hs        1 BB9      0.149800
@<TRIPOS>BOND
     1    1    2 1   
     2    1    8 1   
     3    1    9 1   
     4    2    3 1   
     5    2    5 2   
     6    3    4 1   
     7    3    7 1   
     8    5    6 1   
     9    5   10 1   
    10    6   11 1   
@<TRIPOS>SUBSTRUCTURE
     1 BB9         1 TEMP              0 ****  ****    0 ROOT
