@<TRIPOS>MOLECULE
BBA
   56    52     1     0     0
SMALL
bcc


@<TRIPOS>ATOM
      1 C8         -2.1640    0.4970    1.1210 c3        1 BBA     -0.120000
      2 C9         -2.6660   -0.6650    1.9730 c2        1 BBA     -0.058000
      3 C14        -2.8990   -0.4700    3.3440 c2        1 BBA     -0.133000
      4 C13        -3.5190   -1.4540    4.0870 c1        1 BBA     -0.102500
      5 C10        -3.0640   -1.8600    1.3580 c1        1 BBA     -0.133000
      6 C11        -3.6870   -2.8480    2.1050 c1        1 BBA     -0.102000
      7 C12        -3.9190   -2.6500    3.4770 c1        1 BBA     -0.116000
      8 C15        -4.7300   -3.6830    4.2750 c2        1 BBA      0.115500
      9 N16        -6.1830   -3.6530    4.2390 n3        1 BBA     -0.331500
     10 N17        -4.1080   -4.5970    4.9910 n1        1 BBA     -0.302500
     11 C18         0.4590    0.9440   -1.6600 c3        1 BBA     -0.120000
     12 C19         1.5260    1.0920   -2.8030 c2        1 BBA     -0.058000
     13 C20         2.1130   -0.0480   -3.3550 c2        1 BBA     -0.133000
     14 C21         3.0150    0.0750   -4.4130 c1        1 BBA     -0.102500
     15 C24         1.8440    2.3680   -3.3150 c1        1 BBA     -0.133000
     16 C23         2.7470    2.4880   -4.3740 c1        1 BBA     -0.102000
     17 C22         3.3330    1.3450   -4.9250 c1        1 BBA     -0.116000
     18 C25         4.3730    1.4830   -6.0560 c2        1 BBA      0.115500
     19 N26         5.7370    1.7560   -5.7400 n3        1 BBA     -0.331500
     20 N27         3.9920    1.3450   -7.3430 n1        1 BBA     -0.302500
     21 C1         -0.6210    0.5280    1.1470 c3        1 BBA     -0.144500
     22 C2         -0.1500    0.5600    2.5700 c3        1 BBA     -0.151000
     23 C3          1.3220    0.1200    2.6720 c3        1 BBA     -0.159500
     24 C           2.1950    0.9000    1.6700 c3        1 BBA     -0.159500
     25 C4          1.9010    0.4810    0.2690 c3        1 BBA     -0.151000
     26 C5          0.9860    1.5090   -0.4260 c3        1 BBA     -0.144500
     27 C6         -0.1440    1.7770    0.5290 c2        1 BBA      0.234000
     28 O7         -0.6670    2.8510    0.6780 o         1 BBA     -0.296000
     29 H81        -2.5240    1.3700    1.4950 hc        1 BBA      0.101000
     30 H82        -2.4860    0.3820    0.1730 hc        1 BBA      0.101000
     31 H14        -2.6290    0.3380    3.7600 ha        1 BBA      0.136500
     32 H13        -3.6830   -1.3120    5.0550 ha        1 BBA      0.144500
     33 H10        -2.8980   -2.0010    0.3770 ha        1 BBA      0.138500
     34 H11        -3.9740   -3.7070    1.6650 ha        1 BBA      0.145000
     35 HG11       -6.6670   -4.1150    4.8670 hn        1 BBA      0.193750
     36 HG12       -6.6200   -3.1160    3.6170 hn        1 BBA      0.193750
     37 HG2        -3.1630   -4.6170    5.0140 DU        1 BBA      0.149500
     38 H181        0.2570   -0.0100   -1.5210 hc        1 BBA      0.101000
     39 H182       -0.3780    1.4270   -1.9180 hc        1 BBA      0.101000
     40 H20         1.8860   -0.9630   -2.9880 ha        1 BBA      0.136500
     41 H21         3.4290   -0.7280   -4.8030 ha        1 BBA      0.144500
     42 H24         1.4450    3.1430   -2.9420 ha        1 BBA      0.138500
     43 H23         2.9840    3.4330   -4.7560 ha        1 BBA      0.145000
     44 HG31        6.3640    1.8730   -6.4280 hn        1 BBA      0.193750
     45 HG32        6.0080    1.7480   -4.8850 hn        1 BBA      0.193750
     46 HG4         3.1150    1.1690   -7.5460 DU        1 BBA      0.149500
     47 H1         -0.4020   -0.3170    0.6390 hc        1 BBA      0.115500
     48 H21A       -0.2390    1.4940    2.9250 hc        1 BBA      0.090000
     49 H22        -0.7190   -0.0560    3.1200 hc        1 BBA      0.090000
     50 H31         1.3860   -0.8390    2.4830 hc        1 BBA      0.084500
     51 H32         1.6480    0.2930    3.5890 hc        1 BBA      0.084500
     52 H1A         2.0120    1.8500    1.7620 hc        1 BBA      0.084500
     53 H2          3.1860    0.7270    1.8730 hc        1 BBA      0.084500
     54 H41         2.7330    0.4100   -0.2270 hc        1 BBA      0.090000
     55 H42         1.4610   -0.3900    0.2830 hc        1 BBA      0.090000
     56 H5          1.4490    2.3270   -0.7780 hc        1 BBA      0.115500
@<TRIPOS>BOND
     1    1    2 1   
     2    1   21 1   
     3    1   29 1   
     4    1   30 1   
     5    2    3 1   
     6    2    5 1   
     7    3    4 1   
     8    3   31 1   
     9    4   32 1   
    10    5   33 1   
    11    6    7 1   
    12    6   34 1   
    13    7    8 1   
    14    8    9 1   
    15    8   10 1   
    16    9   35 1   
    17    9   36 1   
    18   11   12 1   
    19   11   26 1   
    20   11   38 1   
    21   11   39 1   
    22   12   13 1   
    23   12   15 1   
    24   13   14 1   
    25   13   40 1   
    26   14   41 1   
    27   15   42 1   
    28   16   17 1   
    29   16   43 1   
    30   17   18 1   
    31   18   19 1   
    32   18   20 1   
    33   19   44 1   
    34   19   45 1   
    35   21   22 1   
    36   21   27 1   
    37   21   47 1   
    38   22   23 1   
    39   22   48 1   
    40   22   49 1   
    41   23   24 1   
    42   23   50 1   
    43   23   51 1   
    44   24   25 1   
    45   24   52 1   
    46   24   53 1   
    47   25   26 1   
    48   25   54 1   
    49   25   55 1   
    50   26   27 1   
    51   26   56 1   
    52   27   28 1   
@<TRIPOS>SUBSTRUCTURE
     1 BBA         1 TEMP              0 ****  ****    0 ROOT
