@<TRIPOS>MOLECULE
BBA
   58    60     1     0     0
SMALL
bcc


@<TRIPOS>ATOM
      1 C8          0.4770    0.8360   -1.7030 c3        1 BBA     -0.048600
      2 C9         -0.9100    0.3570   -1.9660 ca        1 BBA     -0.018300
      3 C14        -1.9130    0.5350   -1.0040 ca        1 BBA     -0.119500
      4 C13        -3.2230    0.1400   -1.2660 ca        1 BBA     -0.087500
      5 C10        -1.2340   -0.2360   -3.1960 ca        1 BBA     -0.119500
      6 C11        -2.5390   -0.6350   -3.4640 ca        1 BBA     -0.087500
      7 C12        -3.5370   -0.4430   -2.4990 ca        1 BBA     -0.270900
      8 C15        -4.9400   -0.7930   -2.7980 ce        1 BBA      0.590300
      9 N16        -5.1310   -2.2840   -2.9230 n4        1 BBA     -0.824600
     10 N17        -5.9810   -0.0730   -2.9580 n2        1 BBA     -0.704100
     11 C18         4.3030    0.9130   -4.2820 c3        1 BBA     -0.048600
     12 C19         5.6710    1.4920   -4.2020 ca        1 BBA     -0.018300
     13 C20         6.7400    0.8700   -4.8630 ca        1 BBA     -0.119500
     14 C21         8.0080    1.4460   -4.8590 ca        1 BBA     -0.087500
     15 C24         5.8990    2.6930   -3.5130 ca        1 BBA     -0.119500
     16 C23         7.1630    3.2740   -3.5010 ca        1 BBA     -0.087500
     17 C22         8.2190    2.6540   -4.1830 ca        1 BBA     -0.270900
     18 C25         9.5420    3.3050   -4.2580 ce        1 BBA      0.590300
     19 N26        10.2630    3.2670   -2.9330 n4        1 BBA     -0.824600
     20 N27        10.1570    3.8710   -5.2210 n2        1 BBA     -0.704100
     21 C1          1.5290   -0.2710   -1.8310 c3        1 BBA     -0.152200
     22 C2          2.3360   -0.3840   -0.5490 c3        1 BBA     -0.073900
     23 C3          3.2970   -1.5550   -0.5460 c3        1 BBA     -0.082900
     24 C           4.6530   -1.2180   -1.1260 c3        1 BBA     -0.082900
     25 C4          4.6200   -0.9390   -2.6110 c3        1 BBA     -0.073900
     26 C5          3.8190    0.3100   -2.9650 c3        1 BBA     -0.152200
     27 C6          2.3510   -0.0430   -3.0840 c         1 BBA      0.576100
     28 O7          1.8120   -0.1570   -4.1930 o         1 BBA     -0.542100
     29 H81         0.5310    1.2900   -0.6760 hc        1 BBA      0.076700
     30 H82         0.6990    1.6620   -2.4350 hc        1 BBA      0.076700
     31 H14        -1.6720    0.9980   -0.0330 ha        1 BBA      0.168750
     32 H13        -4.0040    0.2960   -0.5040 ha        1 BBA      0.147500
     33 H10        -0.4420   -0.3730   -3.9570 ha        1 BBA      0.168750
     34 H11        -2.7820   -1.0700   -4.4460 ha        1 BBA      0.147500
     35 HG11       -4.9540   -2.7090   -2.0060 hn        1 BBA      0.470967
     36 HG12       -4.4450   -2.6380   -3.5980 hn        1 BBA      0.470967
     37 HG2        -5.8960    0.9200   -2.8910 hn        1 BBA      0.493400
     38 H181        3.5860    1.7220   -4.5950 hc        1 BBA      0.076700
     39 H182        4.2610    0.1180   -5.0770 hc        1 BBA      0.076700
     40 H20         6.5750   -0.0760   -5.4040 ha        1 BBA      0.168750
     41 H21         8.8340    0.9550   -5.3990 ha        1 BBA      0.147500
     42 H24         5.0640    3.1900   -2.9920 ha        1 BBA      0.168750
     43 H23         7.3170    4.2320   -2.9810 ha        1 BBA      0.147500
     44 HG31       11.1420    3.8010   -2.9550 hn        1 BBA      0.470967
     45 HG32       10.4660    2.2880   -2.7050 hn        1 BBA      0.470967
     46 HG4         9.7120    3.9240   -6.1150 hn        1 BBA      0.493400
     47 H1          1.0000   -1.2580   -1.9880 hc        1 BBA      0.078200
     48 H21A        2.8880    0.5710   -0.3520 hc        1 BBA      0.052950
     49 H22         1.6090   -0.5210    0.2990 hc        1 BBA      0.052950
     50 H31         2.8520   -2.4200   -1.1050 hc        1 BBA      0.053200
     51 H32         3.4450   -1.8910    0.5160 hc        1 BBA      0.053200
     52 H1A         5.3450   -2.0850   -0.9450 hc        1 BBA      0.053200
     53 H2          5.0820   -0.3330   -0.5850 hc        1 BBA      0.053200
     54 H41         4.1990   -1.8230   -3.1580 hc        1 BBA      0.052950
     55 H42         5.6750   -0.8000   -2.9740 hc        1 BBA      0.052950
     56 H5          3.9390    1.0780   -2.1510 hc        1 BBA      0.078200
     57 H163       -6.0800   -2.5290   -3.2340 hn        1 BBA      0.470967
     58 H263        9.6400    3.6590   -2.2190 hn        1 BBA      0.470967
@<TRIPOS>BOND
     1    1    2 1   
     2    1   21 1   
     3    1   29 1   
     4    1   30 1   
     5    2    3 ar  
     6    2    5 ar  
     7    3    4 ar  
     8    3   31 1   
     9    4    7 ar  
    10    4   32 1   
    11    5    6 ar  
    12    5   33 1   
    13    6    7 ar  
    14    6   34 1   
    15    7    8 1   
    16    8    9 1   
    17    8   10 2   
    18    9   35 1   
    19    9   36 1   
    20    9   57 1   
    21   10   37 1   
    22   11   12 1   
    23   11   26 1   
    24   11   38 1   
    25   11   39 1   
    26   12   13 ar  
    27   12   15 ar  
    28   13   14 ar  
    29   13   40 1   
    30   14   17 ar  
    31   14   41 1   
    32   15   16 ar  
    33   15   42 1   
    34   16   17 ar  
    35   16   43 1   
    36   17   18 1   
    37   18   19 1   
    38   18   20 2   
    39   19   44 1   
    40   19   45 1   
    41   19   58 1   
    42   20   46 1   
    43   21   22 1   
    44   21   27 1   
    45   21   47 1   
    46   22   23 1   
    47   22   48 1   
    48   22   49 1   
    49   23   24 1   
    50   23   50 1   
    51   23   51 1   
    52   24   25 1   
    53   24   52 1   
    54   24   53 1   
    55   25   26 1   
    56   25   54 1   
    57   25   55 1   
    58   26   27 1   
    59   26   56 1   
    60   27   28 2   
@<TRIPOS>SUBSTRUCTURE
     1 BBA         1 TEMP              0 ****  ****    0 ROOT
