@<TRIPOS>MOLECULE
BBA
   58    60     1     0     0
SMALL
bcc


@<TRIPOS>ATOM
      1 C8          0.4760    0.8370   -1.7040 c3        1 BBA     -0.048600
      2 C9         -0.9120    0.3670   -1.9760 ca        1 BBA     -0.018300
      3 C14        -1.9160    0.5360   -1.0140 ca        1 BBA     -0.119500
      4 C13        -3.2280    0.1500   -1.2850 ca        1 BBA     -0.087500
      5 C10        -1.2350   -0.2080   -3.2150 ca        1 BBA     -0.119500
      6 C11        -2.5420   -0.5980   -3.4920 ca        1 BBA     -0.087500
      7 C12        -3.5410   -0.4150   -2.5270 ca        1 BBA     -0.270900
      8 C15        -4.9440   -0.7560   -2.8330 ce        1 BBA      0.590300
      9 N16        -5.1410   -2.2440   -2.9790 n4        1 BBA     -0.824600
     10 N17        -5.9830   -0.0300   -2.9860 n2        1 BBA     -0.704100
     11 C18         4.3120    0.9250   -4.2710 c3        1 BBA     -0.048600
     12 C19         5.6840    1.4950   -4.1790 ca        1 BBA     -0.018300
     13 C20         6.7510    0.8750   -4.8450 ca        1 BBA     -0.119500
     14 C21         8.0230    1.4420   -4.8300 ca        1 BBA     -0.087500
     15 C24         5.9170    2.6860   -3.4760 ca        1 BBA     -0.119500
     16 C23         7.1850    3.2590   -3.4520 ca        1 BBA     -0.087500
     17 C22         8.2380    2.6410   -4.1390 ca        1 BBA     -0.270900
     18 C25         9.5650    3.2840   -4.2020 ce        1 BBA      0.590300
     19 N26        10.2820    3.2270   -2.8760 n4        1 BBA     -0.824600
     20 N27        10.1880    3.8570   -5.1570 n2        1 BBA     -0.704100
     21 C1          1.5240   -0.2730   -1.8420 c3        1 BBA     -0.152200
     22 C2          2.3260   -0.4060   -0.5590 c3        1 BBA     -0.073900
     23 C3          3.2810   -1.5810   -0.5670 c3        1 BBA     -0.082900
     24 C           4.6400   -1.2450   -1.1400 c3        1 BBA     -0.082900
     25 C4          4.6130   -0.9480   -2.6220 c3        1 BBA     -0.073900
     26 C5          3.8200    0.3090   -2.9620 c3        1 BBA     -0.152200
     27 C6          2.3510   -0.0330   -3.0900 c         1 BBA      0.576100
     28 O7          1.8140   -0.1280   -4.2010 o         1 BBA     -0.542100
     29 H81         0.5300    1.2780   -0.6710 hc        1 BBA      0.076700
     30 H82         0.7040    1.6710   -2.4250 hc        1 BBA      0.076700
     31 H14        -1.6760    0.9860   -0.0370 ha        1 BBA      0.168750
     32 H13        -4.0090    0.2990   -0.5230 ha        1 BBA      0.147500
     33 H10        -0.4420   -0.3380   -3.9760 ha        1 BBA      0.168750
     34 H11        -2.7830   -1.0180   -4.4800 ha        1 BBA      0.147500
     35 HG11       -6.0900   -2.4810   -3.2950 hn        1 BBA      0.470967
     36 HG12       -4.4550   -2.5920   -3.6570 hn        1 BBA      0.470967
     37 HG2        -5.8930    0.9630   -2.9050 hn        1 BBA      0.493400
     38 H181        4.2680    0.1410   -5.0750 hc        1 BBA      0.076700
     39 H182        3.6000    1.7420   -4.5750 hc        1 BBA      0.076700
     40 H20         6.5820   -0.0650   -5.3980 ha        1 BBA      0.168750
     41 H21         8.8460    0.9520   -5.3730 ha        1 BBA      0.147500
     42 H24         5.0840    3.1820   -2.9510 ha        1 BBA      0.168750
     43 H23         7.3430    4.2100   -2.9210 ha        1 BBA      0.147500
     44 HG31       10.4780    2.2440   -2.6580 hn        1 BBA      0.470967
     45 HG32       11.1650    3.7560   -2.8890 hn        1 BBA      0.470967
     46 HG4         9.7460    3.9230   -6.0520 hn        1 BBA      0.493400
     47 H1          0.9920   -1.2560   -2.0130 hc        1 BBA      0.078200
     48 H21A        1.5960   -0.5480    0.2850 hc        1 BBA      0.052950
     49 H22         2.8830    0.5450   -0.3490 hc        1 BBA      0.052950
     50 H31         3.4240   -1.9310    0.4910 hc        1 BBA      0.053200
     51 H32         2.8330   -2.4380   -1.1370 hc        1 BBA      0.053200
     52 H1A         5.3260   -2.1180   -0.9670 hc        1 BBA      0.053200
     53 H2          5.0730   -0.3690   -0.5870 hc        1 BBA      0.053200
     54 H41         4.1880   -1.8240   -3.1800 hc        1 BBA      0.052950
     55 H42         5.6700   -0.8110   -2.9800 hc        1 BBA      0.052950
     56 H5          3.9420    1.0670   -2.1390 hc        1 BBA      0.078200
     57 H163       -4.9680   -2.6820   -2.0680 hn        1 BBA      0.470967
     58 H263        9.6590    3.6140   -2.1600 hn        1 BBA      0.470967
@<TRIPOS>BOND
     1    1    2 1   
     2    1   21 1   
     3    1   29 1   
     4    1   30 1   
     5    2    3 ar  
     6    2    5 ar  
     7    3    4 ar  
     8    3   31 1   
     9    4    7 ar  
    10    4   32 1   
    11    5    6 ar  
    12    5   33 1   
    13    6    7 ar  
    14    6   34 1   
    15    7    8 1   
    16    8    9 1   
    17    8   10 2   
    18    9   35 1   
    19    9   36 1   
    20    9   57 1   
    21   10   37 1   
    22   11   12 1   
    23   11   26 1   
    24   11   38 1   
    25   11   39 1   
    26   12   13 ar  
    27   12   15 ar  
    28   13   14 ar  
    29   13   40 1   
    30   14   17 ar  
    31   14   41 1   
    32   15   16 ar  
    33   15   42 1   
    34   16   17 ar  
    35   16   43 1   
    36   17   18 1   
    37   18   19 1   
    38   18   20 2   
    39   19   44 1   
    40   19   45 1   
    41   19   58 1   
    42   20   46 1   
    43   21   22 1   
    44   21   27 1   
    45   21   47 1   
    46   22   23 1   
    47   22   48 1   
    48   22   49 1   
    49   23   24 1   
    50   23   50 1   
    51   23   51 1   
    52   24   25 1   
    53   24   52 1   
    54   24   53 1   
    55   25   26 1   
    56   25   54 1   
    57   25   55 1   
    58   26   27 1   
    59   26   56 1   
    60   27   28 2   
@<TRIPOS>SUBSTRUCTURE
     1 BBA         1 TEMP              0 ****  ****    0 ROOT
