@<TRIPOS>MOLECULE
BBA
   58    60     1     0     0
SMALL
bcc


@<TRIPOS>ATOM
      1 C8          0.4680    0.8200   -1.7180 c3        1 BBA     -0.048600
      2 C9         -0.9140    0.3360   -1.9970 ca        1 BBA     -0.018300
      3 C14        -1.9270    0.5010   -1.0440 ca        1 BBA     -0.119500
      4 C13        -3.2320    0.1010   -1.3210 ca        1 BBA     -0.087500
      5 C10        -1.2230   -0.2490   -3.2350 ca        1 BBA     -0.119500
      6 C11        -2.5240   -0.6520   -3.5190 ca        1 BBA     -0.087500
      7 C12        -3.5320   -0.4730   -2.5620 ca        1 BBA     -0.270900
      8 C15        -4.9300   -0.8280   -2.8770 ce        1 BBA      0.590300
      9 N16        -5.1120   -2.3200   -3.0150 nz        1 BBA     -0.824600
     10 N17        -5.9730   -0.1130   -3.0410 n2        1 BBA     -0.704100
     11 C18         4.3180    0.9350   -4.2600 c3        1 BBA     -0.048600
     12 C19         5.6840    1.5190   -4.1620 ca        1 BBA     -0.018300
     13 C20         6.7610    0.9070   -4.8180 ca        1 BBA     -0.119500
     14 C21         8.0270    1.4880   -4.7980 ca        1 BBA     -0.087500
     15 C24         5.8990    2.7150   -3.4620 ca        1 BBA     -0.119500
     16 C23         7.1610    3.3010   -3.4330 ca        1 BBA     -0.087500
     17 C22         8.2250    2.6920   -4.1110 ca        1 BBA     -0.270900
     18 C25         9.5460    3.3490   -4.1680 ce        1 BBA      0.590300
     19 N26        10.2560    3.3020   -2.8370 nz        1 BBA     -0.824600
     20 N27        10.1680    3.9250   -5.1210 n2        1 BBA     -0.704100
     21 C1          1.5270   -0.2810   -1.8440 c3        1 BBA     -0.152200
     22 C2          2.3220   -0.4000   -0.5550 c3        1 BBA     -0.073900
     23 C3          3.2890   -1.5660   -0.5520 c3        1 BBA     -0.082900
     24 C           4.6480   -1.2180   -1.1170 c3        1 BBA     -0.082900
     25 C4          4.6280   -0.9280   -2.6000 c3        1 BBA     -0.073900
     26 C5          3.8250    0.3190   -2.9520 c3        1 BBA     -0.152200
     27 C6          2.3600   -0.0400   -3.0880 c         1 BBA      0.576100
     28 O7          1.8320   -0.1460   -4.2020 o         1 BBA     -0.542100
     29 H81         0.5100    1.2660   -0.6870 hc        1 BBA      0.076700
     30 H82         0.6920    1.6520   -2.4420 hc        1 BBA      0.076700
     31 H14        -1.6980    0.9580   -0.0670 ha        1 BBA      0.168750
     32 H13        -4.0210    0.2470   -0.5660 ha        1 BBA      0.147500
     33 H10        -0.4240   -0.3760   -3.9900 ha        1 BBA      0.168750
     34 H11        -2.7550   -1.0810   -4.5070 ha        1 BBA      0.147500
     35 HG11       -4.4180   -2.6650   -3.6860 hn        1 BBA      0.470967
     36 HG12       -6.0570   -2.5670   -3.3370 hn        1 BBA      0.470967
     37 HG2        -5.8930    0.8810   -2.9660 hn        1 BBA      0.493400
     38 H181        4.2880    0.1460   -5.0610 hc        1 BBA      0.076700
     39 H182        3.6000    1.7430   -4.5730 hc        1 BBA      0.076700
     40 H20         6.6050   -0.0360   -5.3690 ha        1 BBA      0.168750
     41 H21         8.8590    1.0040   -5.3340 ha        1 BBA      0.147500
     42 H24         5.0580    3.2040   -2.9450 ha        1 BBA      0.168750
     43 H23         7.3060    4.2560   -2.9040 ha        1 BBA      0.147500
     44 HG31       11.1330    3.8390   -2.8470 hn        1 BBA      0.470967
     45 HG32       10.4600    2.3220   -2.6160 hn        1 BBA      0.470967
     46 HG4         9.7310    3.9840   -6.0190 hn        1 BBA      0.493400
     47 H1          1.0050   -1.2700   -2.0140 hc        1 BBA      0.078200
     48 H21A        1.5880   -0.5460    0.2840 hc        1 BBA      0.053200
     49 H22         2.8680    0.5570   -0.3460 hc        1 BBA      0.053200
     50 H31         3.4280   -1.9090    0.5090 hc        1 BBA      0.053200
     51 H32         2.8530   -2.4290   -1.1220 hc        1 BBA      0.053200
     52 H1A         5.0680   -0.3360   -0.5650 hc        1 BBA      0.053200
     53 H2          5.3420   -2.0840   -0.9350 hc        1 BBA      0.053200
     54 H41         4.2160   -1.8110   -3.1580 hc        1 BBA      0.053200
     55 H42         5.6860   -0.7820   -2.9520 hc        1 BBA      0.053200
     56 H5          3.9330    1.0820   -2.1310 hc        1 BBA      0.078200
     57 H163       -4.9420   -2.7510   -2.1000 hn        1 BBA      0.470967
     58 H263        9.6250    3.6850   -2.1260 hn        1 BBA      0.470967
@<TRIPOS>BOND
     1    1    2 1   
     2    1   21 1   
     3    1   29 1   
     4    1   30 1   
     5    2    3 ar  
     6    2    5 ar  
     7    3    4 ar  
     8    3   31 1   
     9    4    7 ar  
    10    4   32 1   
    11    5    6 ar  
    12    5   33 1   
    13    6    7 ar  
    14    6   34 1   
    15    7    8 1   
    16    8    9 1   
    17    8   10 2   
    18    9   35 1   
    19    9   36 1   
    20    9   57 1   
    21   10   37 1   
    22   11   12 1   
    23   11   26 1   
    24   11   38 1   
    25   11   39 1   
    26   12   13 ar  
    27   12   15 ar  
    28   13   14 ar  
    29   13   40 1   
    30   14   17 ar  
    31   14   41 1   
    32   15   16 ar  
    33   15   42 1   
    34   16   17 ar  
    35   16   43 1   
    36   17   18 1   
    37   18   19 1   
    38   18   20 2   
    39   19   44 1   
    40   19   45 1   
    41   19   58 1   
    42   20   46 1   
    43   21   22 1   
    44   21   27 1   
    45   21   47 1   
    46   22   23 1   
    47   22   48 1   
    48   22   49 1   
    49   23   24 1   
    50   23   50 1   
    51   23   51 1   
    52   24   25 1   
    53   24   52 1   
    54   24   53 1   
    55   25   26 1   
    56   25   54 1   
    57   25   55 1   
    58   26   27 1   
    59   26   56 1   
    60   27   28 2   
@<TRIPOS>SUBSTRUCTURE
     1 BBA         1 TEMP              0 ****  ****    0 ROOT
