@<TRIPOS>MOLECULE
BBA
   56    58     1     0     0
SMALL
bcc


@<TRIPOS>ATOM
      1 C8         -1.9880    0.3080   -3.2640 c3        1 BBA     -0.034100
      2 C9         -0.5490    0.0030   -3.4930 ca        1 BBA     -0.072800
      3 C14        -0.1520   -1.2790   -3.8920 ca        1 BBA     -0.129500
      4 C13         1.1910   -1.5610   -4.1280 ca        1 BBA     -0.105000
      5 C10         0.4200    1.0010   -3.3310 ca        1 BBA     -0.129500
      6 C11         1.7650    0.7210   -3.5630 ca        1 BBA     -0.105000
      7 C12         2.1530   -0.5600   -3.9640 ca        1 BBA     -0.162400
      8 C15         3.5930   -0.8690   -4.2420 ce        1 BBA      0.647300
      9 N16         4.4450   -0.7050   -3.1330 nh        1 BBA     -0.928300
     10 N17         4.0340   -1.3160   -5.3820 n2        1 BBA     -0.832100
     11 C18        -0.1830    0.2660    0.7110 c3        1 BBA     -0.034100
     12 C19         0.2540    0.2470    2.1340 ca        1 BBA     -0.072800
     13 C20         0.6080   -0.9550    2.7560 ca        1 BBA     -0.129500
     14 C21         1.0380   -0.9660    4.0820 ca        1 BBA     -0.105000
     15 C24         0.3420    1.4440    2.8570 ca        1 BBA     -0.129500
     16 C23         0.7670    1.4380    4.1830 ca        1 BBA     -0.105000
     17 C22         1.1120    0.2300    4.8000 ca        1 BBA     -0.162400
     18 C25         1.5750    0.2200    6.2250 ce        1 BBA      0.647300
     19 N26         0.6730    0.8170    7.1310 nh        1 BBA     -0.928300
     20 N27         2.6910   -0.3810    6.5070 n2        1 BBA     -0.832100
     21 C1         -2.4310   -0.0050   -1.8360 c3        1 BBA     -0.155200
     22 C2         -3.9540   -0.0570   -1.7590 c3        1 BBA     -0.071900
     23 C3         -4.4600   -0.8490   -0.5740 c3        1 BBA     -0.081400
     24 C          -4.0160   -0.2990    0.7650 c3        1 BBA     -0.081400
     25 C4         -2.5440   -0.5280    1.0390 c3        1 BBA     -0.071900
     26 C5         -1.6640    0.6150    0.5670 c3        1 BBA     -0.155200
     27 C6         -1.9280    1.0390   -0.8630 c         1 BBA      0.581100
     28 O7         -1.7430    2.2140   -1.2030 o         1 BBA     -0.543100
     29 H81        -2.1870    1.3940   -3.4750 hc        1 BBA      0.062200
     30 H82        -2.6080   -0.2960   -3.9790 hc        1 BBA      0.062200
     31 H14        -0.9070   -2.0690   -4.0220 ha        1 BBA      0.141000
     32 H13         1.4970   -2.5710   -4.4390 ha        1 BBA      0.139500
     33 H10         0.1090    2.0090   -3.0100 ha        1 BBA      0.141000
     34 H11         2.5160    1.5160   -3.4390 ha        1 BBA      0.139500
     35 HG11        5.4220   -0.7240   -3.3290 hn        1 BBA      0.399800
     36 HG12        4.1690    0.0280   -2.5210 hn        1 BBA      0.399800
     37 HG2         3.3180   -1.4830   -6.0560 hn        1 BBA      0.387900
     38 H181        0.0120   -0.7300    0.2310 hc        1 BBA      0.062200
     39 H182        0.4240    1.0340    0.1570 hc        1 BBA      0.062200
     40 H20         0.5540   -1.9000    2.1940 ha        1 BBA      0.141000
     41 H21         1.3280   -1.9150    4.5610 ha        1 BBA      0.139500
     42 H24         0.0780    2.3950    2.3700 ha        1 BBA      0.141000
     43 H23         0.8460    2.3880    4.7320 ha        1 BBA      0.139500
     44 HG31        1.0440    1.1310    7.9970 hn        1 BBA      0.399800
     45 HG32       -0.0090    1.4170    6.7310 hn        1 BBA      0.399800
     46 HG4         2.9730   -0.3710    7.4640 hn        1 BBA      0.387900
     47 H1         -2.0080   -1.0060   -1.5420 hc        1 BBA      0.075700
     48 H21A       -4.3570    0.9890   -1.7210 hc        1 BBA      0.050700
     49 H22        -4.3510   -0.5320   -2.6960 hc        1 BBA      0.050700
     50 H31        -5.5830   -0.8510   -0.6070 hc        1 BBA      0.044950
     51 H32        -4.1260   -1.9170   -0.6680 hc        1 BBA      0.044950
     52 H1A        -4.2510    0.7970    0.8210 hc        1 BBA      0.044950
     53 H2         -4.6140   -0.8060    1.5690 hc        1 BBA      0.044950
     54 H41        -2.3860   -0.6390    2.1470 hc        1 BBA      0.050700
     55 H42        -2.2130   -1.4910    0.5690 hc        1 BBA      0.050700
     56 H5         -1.8770    1.5150    1.2170 hc        1 BBA      0.075700
@<TRIPOS>BOND
     1    1    2 1   
     2    1   21 1   
     3    1   29 1   
     4    1   30 1   
     5    2    3 ar  
     6    2    5 ar  
     7    3    4 ar  
     8    3   31 1   
     9    4    7 ar  
    10    4   32 1   
    11    5    6 ar  
    12    5   33 1   
    13    6    7 ar  
    14    6   34 1   
    15    7    8 1   
    16    8    9 1   
    17    8   10 2   
    18    9   35 1   
    19    9   36 1   
    20   10   37 1   
    21   11   12 1   
    22   11   26 1   
    23   11   38 1   
    24   11   39 1   
    25   12   13 ar  
    26   12   15 ar  
    27   13   14 ar  
    28   13   40 1   
    29   14   17 ar  
    30   14   41 1   
    31   15   16 ar  
    32   15   42 1   
    33   16   17 ar  
    34   16   43 1   
    35   17   18 1   
    36   18   19 1   
    37   18   20 2   
    38   19   44 1   
    39   19   45 1   
    40   20   46 1   
    41   21   22 1   
    42   21   27 1   
    43   21   47 1   
    44   22   23 1   
    45   22   48 1   
    46   22   49 1   
    47   23   24 1   
    48   23   50 1   
    49   23   51 1   
    50   24   25 1   
    51   24   52 1   
    52   24   53 1   
    53   25   26 1   
    54   25   54 1   
    55   25   55 1   
    56   26   27 1   
    57   26   56 1   
    58   27   28 2   
@<TRIPOS>SUBSTRUCTURE
     1 BBA         1 TEMP              0 ****  ****    0 ROOT
