@<TRIPOS>MOLECULE
BBB
   51    53     1     0     0
SMALL
bcc


@<TRIPOS>ATOM
      1 OAC         1.0490    2.8570    3.0750 oh        1 BBB     -0.596800
      2 CAN         1.1810    1.6470    2.3610 c3        1 BBB      0.131400
      3 CAO         2.0610    0.6460    3.1030 c3        1 BBB      0.076400
      4 OAT         1.3400    0.2900    4.2870 os        1 BBB     -0.432600
      5 CAR         1.9440   -0.7340    5.0570 c3        1 BBB      0.300800
      6 NBC         1.5770   -2.0730    4.6110 n         1 BBB     -0.401000
      7 CBB         2.3890   -2.7390    3.6510 c         1 BBB      0.813500
      8 OAB         3.4550   -2.2150    3.2590 o         1 BBB     -0.642500
      9 NAS         1.9850   -3.9880    3.1720 ns        1 BBB     -0.584500
     10 CBA         0.7840   -4.6120    3.5620 c         1 BBB      0.736700
     11 OAA         0.4970   -5.7060    3.0450 o         1 BBB     -0.620500
     12 CAY         0.3710   -2.6620    4.9910 cc        1 BBB      0.311700
     13 CAZ        -0.0330   -3.9040    4.5500 cd        1 BBB     -0.353400
     14 CAQ        -1.2620   -4.5740    5.0440 c3        1 BBB      0.024100
     15 CAW        -2.5120   -4.0150    4.4500 ca        1 BBB     -0.059300
     16 CAK        -3.4380   -3.3340    5.2450 ca        1 BBB     -0.187000
     17 CAH        -4.6110   -2.8310    4.6780 ca        1 BBB     -0.093000
     18 CAL        -4.8740   -3.0000    3.3260 ca        1 BBB     -0.155000
     19 CAM        -2.7620   -4.2000    3.0850 ca        1 BBB     -0.192000
     20 CAX        -3.9410   -3.6930    2.5280 ca        1 BBB      0.135100
     21 OAU        -4.2920   -3.8030    1.1980 os        1 BBB     -0.326900
     22 CAP        -3.4120   -4.5980    0.3880 c3        1 BBB      0.173700
     23 CAV        -3.9900   -4.6620   -0.9870 ca        1 BBB     -0.094300
     24 CAJ        -3.7060   -5.7760   -1.7860 ca        1 BBB     -0.112500
     25 CAG        -4.2000   -5.8450   -3.0870 ca        1 BBB     -0.131000
     26 CAE        -4.9840   -4.8080   -3.5950 ca        1 BBB     -0.125000
     27 CAF        -5.2730   -3.7010   -2.7980 ca        1 BBB     -0.131000
     28 CAI        -4.7760   -3.6250   -1.4970 ca        1 BBB     -0.112500
     29 OAD        -0.3400   -1.9080    5.8930 oh        1 BBB     -0.492100
     30 HAC         0.6660    2.6370    3.9340 ho        1 BBB      0.411000
     31 HAN1        1.6710    1.9310    1.3920 h1        1 BBB      0.055700
     32 HAN2        0.1710    1.1990    2.1650 h1        1 BBB      0.055700
     33 HAO1        2.2530   -0.2610    2.4750 h1        1 BBB      0.054700
     34 HAO2        3.0360    1.1140    3.4000 h1        1 BBB      0.054700
     35 HAR1        1.5260   -0.5780    6.0960 h2        1 BBB      0.097200
     36 HAR2        3.0690   -0.6570    5.0300 h2        1 BBB      0.097200
     37 HAS         2.5820   -4.4370    2.5090 hn        1 BBB      0.356500
     38 HAQ1       -1.2010   -5.6700    4.7870 hc        1 BBB      0.072200
     39 HAQ2       -1.3020   -4.5000    6.1660 hc        1 BBB      0.072200
     40 HAK        -3.2590   -3.2110    6.3230 ha        1 BBB      0.127000
     41 HAH        -5.3370   -2.2980    5.3110 ha        1 BBB      0.136000
     42 HAL        -5.7940   -2.6110    2.8660 ha        1 BBB      0.152000
     43 HAM        -2.0230   -4.7490    2.4800 ha        1 BBB      0.155000
     44 HAP1       -2.4000   -4.1090    0.3580 h1        1 BBB      0.052700
     45 HAP2       -3.3220   -5.6250    0.8350 h1        1 BBB      0.052700
     46 HAJ        -3.0930   -6.5980   -1.3870 ha        1 BBB      0.140000
     47 HAG        -3.9720   -6.7200   -3.7130 ha        1 BBB      0.133000
     48 HAE        -5.3750   -4.8650   -4.6210 ha        1 BBB      0.132000
     49 HAF        -5.8940   -2.8840   -3.1940 ha        1 BBB      0.133000
     50 HAI        -5.0060   -2.7550   -0.8620 ha        1 BBB      0.140000
     51 HAD        -1.2580   -2.2390    5.8930 ho        1 BBB      0.464000
@<TRIPOS>BOND
     1    1    2 1   
     2    1   30 1   
     3    2    3 1   
     4    2   31 1   
     5    2   32 1   
     6    3    4 1   
     7    3   33 1   
     8    3   34 1   
     9    4    5 1   
    10    5    6 1   
    11    5   35 1   
    12    5   36 1   
    13    6    7 1   
    14    6   12 1   
    15    7    8 2   
    16    7    9 1   
    17    9   10 1   
    18    9   37 1   
    19   10   11 2   
    20   10   13 1   
    21   12   13 2   
    22   12   29 1   
    23   13   14 1   
    24   14   15 1   
    25   14   38 1   
    26   14   39 1   
    27   15   16 ar  
    28   15   19 ar  
    29   16   17 ar  
    30   16   40 1   
    31   17   18 ar  
    32   17   41 1   
    33   18   20 ar  
    34   18   42 1   
    35   19   20 ar  
    36   19   43 1   
    37   20   21 1   
    38   21   22 1   
    39   22   23 1   
    40   22   44 1   
    41   22   45 1   
    42   23   24 ar  
    43   23   28 ar  
    44   24   25 ar  
    45   24   46 1   
    46   25   26 ar  
    47   25   47 1   
    48   26   27 ar  
    49   26   48 1   
    50   27   28 ar  
    51   27   49 1   
    52   28   50 1   
    53   29   51 1   
@<TRIPOS>SUBSTRUCTURE
     1 BBB         1 TEMP              0 ****  ****    0 ROOT
