@<TRIPOS>MOLECULE
BBB
   51    53     1     0     0
SMALL
bcc


@<TRIPOS>ATOM
      1 OAC         5.9990    4.8620   -0.1500 oh        1 BBB     -0.596800
      2 CAN         6.0800    3.9430    0.9180 c3        1 BBB      0.131400
      3 CAO         4.8860    4.0660    1.8590 c3        1 BBB      0.076400
      4 OAT         3.7440    3.6450    1.1060 os        1 BBB     -0.432600
      5 CAR         2.5430    3.5710    1.8520 c3        1 BBB      0.300800
      6 NBC         2.3760    2.2920    2.5350 n         1 BBB     -0.401000
      7 CBB         2.8520    2.1430    3.8680 c         1 BBB      0.813500
      8 OAB         3.3320    3.1240    4.4760 o         1 BBB     -0.642500
      9 NAS         2.7590    0.8910    4.4830 n         1 BBB     -0.584500
     10 CBA         2.2490   -0.2510    3.8350 c         1 BBB      0.736700
     11 OAA         2.2480   -1.3260    4.4600 o         1 BBB     -0.620500
     12 CAY         1.8910    1.1680    1.8670 cc        1 BBB      0.311700
     13 CAZ         1.7670   -0.0680    2.4650 cd        1 BBB     -0.353400
     14 CAQ         1.1470   -1.2330    1.7850 c3        1 BBB      0.024100
     15 CAW         2.0480   -1.8700    0.7780 ca        1 BBB     -0.059300
     16 CAK         1.7360   -1.8310   -0.5830 ca        1 BBB     -0.187000
     17 CAH         2.5790   -2.4460   -1.5120 ca        1 BBB     -0.093000
     18 CAL         3.7310   -3.1010   -1.0990 ca        1 BBB     -0.155000
     19 CAM         3.2020   -2.5310    1.2150 ca        1 BBB     -0.192000
     20 CAX         4.0390   -3.1430    0.2760 ca        1 BBB      0.135100
     21 OAU         5.2060   -3.8120    0.5830 os        1 BBB     -0.326900
     22 CAP         5.4840   -3.9640    1.9840 c3        1 BBB      0.173700
     23 CAV         6.7340   -4.7700    2.1170 ca        1 BBB     -0.094300
     24 CAJ         6.9170   -5.5440    3.2690 ca        1 BBB     -0.112500
     25 CAG         8.0910   -6.2760    3.4380 ca        1 BBB     -0.131000
     26 CAE         9.0820   -6.2460    2.4570 ca        1 BBB     -0.125000
     27 CAF         8.8990   -5.4810    1.3060 ca        1 BBB     -0.131000
     28 CAI         7.7280   -4.7420    1.1350 ca        1 BBB     -0.112500
     29 OAD         1.4970    1.4310    0.5780 oh        1 BBB     -0.492100
     30 HAC         5.1750    4.6790   -0.6190 ho        1 BBB      0.411000
     31 HAN1        6.1520    2.8950    0.5230 h1        1 BBB      0.055700
     32 HAN2        7.0210    4.2140    1.4670 h1        1 BBB      0.055700
     33 HAO1        4.7360    5.1310    2.1790 h1        1 BBB      0.055200
     34 HAO2        5.0200    3.4160    2.7620 h1        1 BBB      0.055200
     35 HAR1        2.4920    4.3870    2.6290 h2        1 BBB      0.097200
     36 HAR2        1.7300    3.6660    1.0730 h2        1 BBB      0.097200
     37 HAS         3.0890    0.8200    5.4230 hn        1 BBB      0.356500
     38 HAQ1        0.1870   -0.9120    1.2940 hc        1 BBB      0.072200
     39 HAQ2        0.8800   -2.0030    2.5650 hc        1 BBB      0.072200
     40 HAK         0.8150   -1.3390   -0.9280 ha        1 BBB      0.127000
     41 HAH         2.3260   -2.4140   -2.5830 ha        1 BBB      0.136000
     42 HAL         4.4030   -3.5900   -1.8180 ha        1 BBB      0.152000
     43 HAM         3.4220   -2.5560    2.2930 ha        1 BBB      0.155000
     44 HAP1        4.6180   -4.4790    2.4810 h1        1 BBB      0.052700
     45 HAP2        5.6310   -2.9470    2.4400 h1        1 BBB      0.052700
     46 HAJ         6.1340   -5.5740    4.0410 ha        1 BBB      0.140000
     47 HAG         8.2330   -6.8810    4.3450 ha        1 BBB      0.133000
     48 HAE        10.0070   -6.8270    2.5910 ha        1 BBB      0.132000
     49 HAF         9.6770   -5.4580    0.5290 ha        1 BBB      0.133000
     50 HAI         7.5770   -4.1400    0.2250 ha        1 BBB      0.140000
     51 HAD         1.4380    0.5780    0.1090 ho        1 BBB      0.464000
@<TRIPOS>BOND
     1    1    2 1   
     2    1   30 1   
     3    2    3 1   
     4    2   31 1   
     5    2   32 1   
     6    3    4 1   
     7    3   33 1   
     8    3   34 1   
     9    4    5 1   
    10    5    6 1   
    11    5   35 1   
    12    5   36 1   
    13    6    7 1   
    14    6   12 1   
    15    7    8 2   
    16    7    9 1   
    17    9   10 1   
    18    9   37 1   
    19   10   11 2   
    20   10   13 1   
    21   12   13 2   
    22   12   29 1   
    23   13   14 1   
    24   14   15 1   
    25   14   38 1   
    26   14   39 1   
    27   15   16 ar  
    28   15   19 ar  
    29   16   17 ar  
    30   16   40 1   
    31   17   18 ar  
    32   17   41 1   
    33   18   20 ar  
    34   18   42 1   
    35   19   20 ar  
    36   19   43 1   
    37   20   21 1   
    38   21   22 1   
    39   22   23 1   
    40   22   44 1   
    41   22   45 1   
    42   23   24 ar  
    43   23   28 ar  
    44   24   25 ar  
    45   24   46 1   
    46   25   26 ar  
    47   25   47 1   
    48   26   27 ar  
    49   26   48 1   
    50   27   28 ar  
    51   27   49 1   
    52   28   50 1   
    53   29   51 1   
@<TRIPOS>SUBSTRUCTURE
     1 BBB         1 TEMP              0 ****  ****    0 ROOT
