@<TRIPOS>MOLECULE
BBB
   51    47     1     0     0
SMALL
bcc


@<TRIPOS>ATOM
      1 OAC         2.6920   -5.2350   -7.6090 oh        1 BBB     -0.336000
      2 CAN         1.7850   -4.7790   -6.6100 c3        1 BBB     -0.051000
      3 CAO         1.7390   -3.2410   -6.6210 c3        1 BBB     -0.071000
      4 OAT         0.9980   -2.7860   -5.5030 os        1 BBB     -0.268000
      5 CAR         1.2890   -1.4620   -5.1170 c3        1 BBB      0.097000
      6 NBC         0.3940   -1.0670   -4.0120 n3        1 BBB     -0.291000
      7 CBB        -0.9530   -1.1460   -4.1710 c1        1 BBB      0.409000
      8 OAB        -1.4110   -1.4890   -5.2380 o         1 BBB     -0.388000
      9 NAS        -1.7950   -0.6750   -3.1800 n2        1 BBB     -0.364000
     10 CBA        -1.2810   -0.1390   -2.0580 c1        1 BBB      0.374000
     11 OAA        -2.0150    0.1840   -1.1520 o         1 BBB     -0.342000
     12 CAY         0.9090   -0.5310   -2.8910 c2        1 BBB      0.267000
     13 CAZ         0.0690   -0.0600   -1.9000 c1        1 BBB     -0.334000
     14 CAQ         0.6670    0.5970   -0.6250 c3        1 BBB     -0.066000
     15 CAW        -0.0920    0.1100    0.6100 c2        1 BBB     -0.056000
     16 CAK        -0.3530   -1.2350    0.7700 c2        1 BBB     -0.148000
     17 CAH        -0.8860   -1.7010    1.9620 c1        1 BBB     -0.089000
     18 CAL        -1.1580   -0.8060    3.0050 c1        1 BBB     -0.204000
     19 CAM        -0.3640    1.0000    1.6500 c1        1 BBB     -0.182000
     20 CAX        -0.8990    0.5310    2.8460 c1        1 BBB      0.089000
     21 OAU        -1.2910    1.4720    3.8810 os        1 BBB     -0.212000
     22 CAP        -0.2640    1.7010    4.8870 c3        1 BBB      0.018000
     23 CAV        -0.6970    2.8440    5.8140 c2        1 BBB     -0.089000
     24 CAJ        -0.5720    2.7050    7.1900 c2        1 BBB     -0.122000
     25 CAG        -0.9300    3.7550    8.0340 c1        1 BBB     -0.130000
     26 CAE        -1.4100    4.9380    7.5010 c1        1 BBB     -0.127500
     27 CAF        -1.5360    5.0790    6.1180 c1        1 BBB     -0.127500
     28 CAI        -1.1800    4.0320    5.2780 c1        1 BBB     -0.101000
     29 OAD         2.3310   -0.5560   -2.6740 oh        1 BBB     -0.245000
     30 HAC         2.2550   -5.4210   -8.3340 ho        1 BBB      0.221000
     31 HAN1        0.8970   -5.1310   -6.7920 h1        1 BBB      0.094000
     32 HAN2        2.0790   -5.0830   -5.7530 h1        1 BBB      0.094000
     33 HAO1        1.3120   -2.9350   -7.4400 h1        1 BBB      0.102500
     34 HAO2        2.6430   -2.8900   -6.5760 h1        1 BBB      0.102500
     35 HAR1        1.1530   -0.8630   -5.8770 h2        1 BBB      0.147500
     36 HAR2        2.2140   -1.4060   -4.8210 h2        1 BBB      0.147500
     37 HAS        -2.7180   -0.7290   -3.2900 hn        1 BBB      0.269000
     38 HAQ1        0.5890    1.5810   -0.6930 hc        1 BBB      0.112500
     39 HAQ2        1.6090    0.3510   -0.5450 hc        1 BBB      0.112500
     40 HAK        -0.1620   -1.8630    0.0390 ha        1 BBB      0.150000
     41 HAH        -1.0660   -2.6300    2.0720 ha        1 BBB      0.136000
     42 HAL        -1.5340   -1.1340    3.8450 ha        1 BBB      0.139000
     43 HAM        -0.1800    1.9430    1.5390 ha        1 BBB      0.144000
     44 HAP1        0.5820    1.9400    4.4440 h1        1 BBB      0.089000
     45 HAP2       -0.1390    0.8930    5.4090 h1        1 BBB      0.089000
     46 HAJ        -0.2240    1.8500    7.5760 ha        1 BBB      0.131000
     47 HAG        -0.8430    3.6590    8.9810 ha        1 BBB      0.133000
     48 HAE        -1.6640    5.6830    8.0990 ha        1 BBB      0.133500
     49 HAF        -1.8780    5.9200    5.7380 ha        1 BBB      0.133500
     50 HAI        -1.2690    4.1290    4.3150 ha        1 BBB      0.147000
     51 HAD         2.5570    0.0970   -2.1220 ho        1 BBB      0.264000
@<TRIPOS>BOND
     1    1    2 1   
     2    1   30 1   
     3    2    3 1   
     4    2   31 1   
     5    2   32 1   
     6    3    4 1   
     7    3   33 1   
     8    3   34 1   
     9    4    5 1   
    10    5    6 1   
    11    5   35 1   
    12    5   36 1   
    13    6    7 1   
    14    6   12 1   
    15    7    8 1   
    16    9   10 1   
    17    9   37 1   
    18   10   11 1   
    19   12   13 1   
    20   12   29 1   
    21   13   14 1   
    22   14   15 1   
    23   14   38 1   
    24   14   39 1   
    25   15   16 1   
    26   15   19 1   
    27   16   17 1   
    28   16   40 1   
    29   17   41 1   
    30   18   20 1   
    31   18   42 1   
    32   19   43 1   
    33   20   21 1   
    34   21   22 1   
    35   22   23 1   
    36   22   44 1   
    37   22   45 1   
    38   23   24 1   
    39   23   28 1   
    40   24   25 1   
    41   24   46 1   
    42   25   47 1   
    43   26   27 1   
    44   26   48 1   
    45   27   49 1   
    46   28   50 1   
    47   29   51 1   
@<TRIPOS>SUBSTRUCTURE
     1 BBB         1 TEMP              0 ****  ****    0 ROOT
