@<TRIPOS>MOLECULE
BBB
   51    53     1     0     0
SMALL
bcc


@<TRIPOS>ATOM
      1 OAC         0.8690    2.9230    3.1580 oh        1 BBB     -0.596800
      2 CAN         1.0430    1.7260    2.4310 c3        1 BBB      0.131400
      3 CAO         1.9470    0.7440    3.1690 c3        1 BBB      0.076400
      4 OAT         1.2290    0.3520    4.3430 os        1 BBB     -0.432600
      5 CAR         1.8590   -0.6610    5.1060 c3        1 BBB      0.300800
      6 NBC         1.5350   -2.0060    4.6420 n         1 BBB     -0.401000
      7 CBB         2.3750   -2.6360    3.6810 c         1 BBB      0.813500
      8 OAB         3.4260   -2.0750    3.3030 o         1 BBB     -0.642500
      9 NAS         2.0120   -3.8910    3.1840 n         1 BBB     -0.584500
     10 CBA         0.8280   -4.5560    3.5590 c         1 BBB      0.736700
     11 OAA         0.5790   -5.6510    3.0270 o         1 BBB     -0.620500
     12 CAY         0.3460   -2.6360    5.0070 cc        1 BBB      0.311700
     13 CAZ        -0.0170   -3.8840    4.5480 cd        1 BBB     -0.353400
     14 CAQ        -1.2280   -4.5970    5.0260 c3        1 BBB      0.024100
     15 CAW        -2.4910   -4.0700    4.4290 ca        1 BBB     -0.059300
     16 CAK        -3.4420   -3.4270    5.2240 ca        1 BBB     -0.187000
     17 CAH        -4.6270   -2.9530    4.6540 ca        1 BBB     -0.093000
     18 CAL        -4.8750   -3.1150    3.2980 ca        1 BBB     -0.155000
     19 CAM        -2.7250   -4.2480    3.0590 ca        1 BBB     -0.192000
     20 CAX        -3.9150   -3.7700    2.5000 ca        1 BBB      0.135100
     21 OAU        -4.2530   -3.8760    1.1660 os        1 BBB     -0.326900
     22 CAP        -3.3440   -4.6360    0.3540 c3        1 BBB      0.173700
     23 CAV        -3.9100   -4.7030   -1.0260 ca        1 BBB     -0.094300
     24 CAJ        -3.5880   -5.8000   -1.8340 ca        1 BBB     -0.112500
     25 CAG        -4.0710   -5.8690   -3.1390 ca        1 BBB     -0.131000
     26 CAE        -4.8820   -4.8510   -3.6410 ca        1 BBB     -0.125000
     27 CAF        -5.2090   -3.7610   -2.8360 ca        1 BBB     -0.131000
     28 CAI        -4.7230   -3.6840   -1.5310 ca        1 BBB     -0.112500
     29 OAD        -0.3950   -1.9140    5.9110 oh        1 BBB     -0.492100
     30 HAC         0.4850    2.6820    4.0110 ho        1 BBB      0.411000
     31 HAN1        1.5310    2.0360    1.4690 h1        1 BBB      0.055700
     32 HAN2        0.0480    1.2500    2.2220 h1        1 BBB      0.055700
     33 HAO1        2.1720   -0.1490    2.5320 h1        1 BBB      0.055200
     34 HAO2        2.9060    1.2380    3.4790 h1        1 BBB      0.055200
     35 HAR1        1.4290   -0.5300    6.1430 h2        1 BBB      0.097200
     36 HAR2        2.9810   -0.5500    5.0880 h2        1 BBB      0.097200
     37 HAS         2.6270   -4.3130    2.5220 hn        1 BBB      0.356500
     38 HAQ1       -1.1320   -5.6880    4.7560 hc        1 BBB      0.072200
     39 HAQ2       -1.2790   -4.5370    6.1480 hc        1 BBB      0.072200
     40 HAK        -3.2750   -3.3100    6.3050 ha        1 BBB      0.127000
     41 HAH        -5.3730   -2.4500    5.2870 ha        1 BBB      0.136000
     42 HAL        -5.8020   -2.7490    2.8360 ha        1 BBB      0.152000
     43 HAM        -1.9660   -4.7660    2.4550 ha        1 BBB      0.155000
     44 HAP1       -2.3470   -4.1160    0.3370 h1        1 BBB      0.052700
     45 HAP2       -3.2260   -5.6640    0.7910 h1        1 BBB      0.052700
     46 HAJ        -2.9540   -6.6070   -1.4380 ha        1 BBB      0.140000
     47 HAG        -3.8140   -6.7310   -3.7720 ha        1 BBB      0.133000
     48 HAE        -5.2640   -4.9100   -4.6710 ha        1 BBB      0.132000
     49 HAF        -5.8520   -2.9590   -3.2280 ha        1 BBB      0.133000
     50 HAI        -4.9830   -2.8280   -0.8890 ha        1 BBB      0.140000
     51 HAD        -1.3020   -2.2730    5.9010 ho        1 BBB      0.464000
@<TRIPOS>BOND
     1    1    2 1   
     2    1   30 1   
     3    2    3 1   
     4    2   31 1   
     5    2   32 1   
     6    3    4 1   
     7    3   33 1   
     8    3   34 1   
     9    4    5 1   
    10    5    6 1   
    11    5   35 1   
    12    5   36 1   
    13    6    7 1   
    14    6   12 1   
    15    7    8 2   
    16    7    9 1   
    17    9   10 1   
    18    9   37 1   
    19   10   11 2   
    20   10   13 1   
    21   12   13 2   
    22   12   29 1   
    23   13   14 1   
    24   14   15 1   
    25   14   38 1   
    26   14   39 1   
    27   15   16 ar  
    28   15   19 ar  
    29   16   17 ar  
    30   16   40 1   
    31   17   18 ar  
    32   17   41 1   
    33   18   20 ar  
    34   18   42 1   
    35   19   20 ar  
    36   19   43 1   
    37   20   21 1   
    38   21   22 1   
    39   22   23 1   
    40   22   44 1   
    41   22   45 1   
    42   23   24 ar  
    43   23   28 ar  
    44   24   25 ar  
    45   24   46 1   
    46   25   26 ar  
    47   25   47 1   
    48   26   27 ar  
    49   26   48 1   
    50   27   28 ar  
    51   27   49 1   
    52   28   50 1   
    53   29   51 1   
@<TRIPOS>SUBSTRUCTURE
     1 BBB         1 TEMP              0 ****  ****    0 ROOT
