@<TRIPOS>MOLECULE
BBC
   28    25     1     0     0
SMALL
bcc


@<TRIPOS>ATOM
      1 N          -2.5000   -1.0300   -3.2130 n1        1 BBC     -0.557800
      2 CA         -1.2700   -1.5650   -3.1000 c1        1 BBC      0.320700
      3 CB         -0.6710   -1.8350   -1.6970 c2        1 BBC     -0.625000
      4 SG         -0.4220   -0.2970   -0.8480 s4        1 BBC      0.569100
      5 C05        -0.2700   -0.2760    0.9250 c3        1 BBC     -0.094100
      6 C          -0.4560   -1.9160   -4.3740 c3        1 BBC      0.142500
      7 O          -1.3440   -2.1370   -5.4480 oh        1 BBC     -0.587800
      8 C08         0.5370    0.9570    1.3550 c3        1 BBC     -0.059400
      9 C09         0.5870    1.0330    2.9430 c3        1 BBC     -0.078400
     10 C10         1.4390    2.2190    3.3640 c3        1 BBC      0.159800
     11 N11         1.4340    2.3330    4.8040 n3        1 BBC     -0.915800
     12 O12        -0.3990    0.9110   -1.5700 o         1 BBC     -0.382400
     13 HN         -2.9710   -0.8290   -2.4790 DU        1 BBC      0.186000
     14 HB1        -1.2910   -2.4000   -1.1790 h4        1 BBC      0.137000
     15 HB2         0.1940   -2.3000   -1.7940 h4        1 BBC      0.137000
     16 H051       -1.1810   -0.2400    1.3370 h1        1 BBC      0.087700
     17 H052        0.1890   -1.0850    1.2220 h1        1 BBC      0.087700
     18 H1          0.1540   -1.1630   -4.5970 h1        1 BBC      0.051200
     19 H2          0.0700   -2.7250   -4.2130 h1        1 BBC      0.051200
     20 HO         -0.8850   -2.2040   -6.2040 ho        1 BBC      0.421000
     21 H081        1.4700    0.8890    0.9950 hc        1 BBC      0.050700
     22 H082        0.0960    1.7930    0.9910 hc        1 BBC      0.050700
     23 H091       -0.3080    1.1400    3.2890 hc        1 BBC      0.049700
     24 H092        0.9820    0.2010    3.3020 hc        1 BBC      0.049700
     25 H101        1.0720    3.0410    2.9690 h1        1 BBC      0.025200
     26 H102        2.3420    2.0910    3.0550 h1        1 BBC      0.025200
     27 H111        2.2920    2.2380    5.1210 hn        1 BBC      0.350300
     28 H112        1.1100    3.1570    5.0440 hn        1 BBC      0.350300
@<TRIPOS>BOND
     1    1    2 3   
     2    2    6 1   
     3    3    4 2   
     4    3   14 1   
     5    3   15 1   
     6    4    5 1   
     7    4   12 1   
     8    5    8 1   
     9    5   16 1   
    10    5   17 1   
    11    6    7 1   
    12    6   18 1   
    13    6   19 1   
    14    7   20 1   
    15    8    9 1   
    16    8   21 1   
    17    8   22 1   
    18    9   10 1   
    19    9   23 1   
    20    9   24 1   
    21   10   11 1   
    22   10   25 1   
    23   10   26 1   
    24   11   27 1   
    25   11   28 1   
@<TRIPOS>SUBSTRUCTURE
     1 BBC         1 TEMP              0 ****  ****    0 ROOT
