@<TRIPOS>MOLECULE
BBC
   28    27     1     0     0
SMALL
bcc


@<TRIPOS>ATOM
      1 N           2.8510    0.6800    1.2620 n2        1 BBC     -0.770100
      2 CA          2.8550   -0.1770    0.3070 c2        1 BBC      0.456300
      3 CB          1.5740   -0.6260   -0.3310 c3        1 BBC     -0.150400
      4 SG          0.3030    0.6000   -0.1610 s4        1 BBC      0.318600
      5 C05        -1.0760   -0.4840   -0.0400 c3        1 BBC     -0.105100
      6 C           4.0540   -0.8620   -0.3190 c3        1 BBC      0.034100
      7 O           5.2130   -0.5510    0.4360 oh        1 BBC     -0.606800
      8 C08        -2.3500    0.3240   -0.0040 c3        1 BBC     -0.060400
      9 C09        -3.5680   -0.5710    0.0790 c3        1 BBC     -0.078400
     10 C10        -4.8390    0.2750    0.1280 c3        1 BBC      0.157800
     11 N11        -6.0430   -0.5110    0.2520 n3        1 BBC     -0.915800
     12 O12         0.2070    1.2020   -1.5160 o         1 BBC     -0.510200
     13 HN          3.7480    0.9120    1.6400 hn        1 BBC      0.415400
     14 HB1         1.7580   -0.8430   -1.4140 h1        1 BBC      0.097700
     15 HB2         1.2640   -1.5870    0.1520 h1        1 BBC      0.097700
     16 H051       -1.1270   -1.2100   -0.8890 h1        1 BBC      0.081200
     17 H052       -0.9830   -1.0870    0.8980 h1        1 BBC      0.081200
     18 H1          3.8890   -1.9740   -0.3200 h1        1 BBC      0.046200
     19 H2          4.1690   -0.5020   -1.3780 h1        1 BBC      0.046200
     20 HO          5.9640   -0.9020   -0.0560 ho        1 BBC      0.414000
     21 H081       -2.3360    1.0150    0.8820 hc        1 BBC      0.052700
     22 H082       -2.4100    0.9600   -0.9290 hc        1 BBC      0.052700
     23 H091       -3.5940   -1.2530   -0.8110 hc        1 BBC      0.047700
     24 H092       -3.5020   -1.2160    0.9940 hc        1 BBC      0.047700
     25 H101       -4.7900    0.9530    1.0280 h1        1 BBC      0.026200
     26 H102       -4.8490    0.9420   -0.7860 h1        1 BBC      0.026200
     27 H111       -6.8500    0.0740    0.1680 hn        1 BBC      0.348300
     28 H112       -6.0810   -1.2250   -0.4470 hn        1 BBC      0.348300
@<TRIPOS>BOND
     1    1    2 2   
     2    1   13 1   
     3    2    3 1   
     4    2    6 1   
     5    3    4 1   
     6    3   14 1   
     7    3   15 1   
     8    4    5 1   
     9    4   12 2   
    10    5    8 1   
    11    5   16 1   
    12    5   17 1   
    13    6    7 1   
    14    6   18 1   
    15    6   19 1   
    16    7   20 1   
    17    8    9 1   
    18    8   21 1   
    19    8   22 1   
    20    9   10 1   
    21    9   23 1   
    22    9   24 1   
    23   10   11 1   
    24   10   25 1   
    25   10   26 1   
    26   11   27 1   
    27   11   28 1   
@<TRIPOS>SUBSTRUCTURE
     1 BBC         1 TEMP              0 ****  ****    0 ROOT
