@<TRIPOS>MOLECULE
BBE
   48    44     1     0     0
SMALL
bcc


@<TRIPOS>ATOM
      1 CAY         0.8490    4.2810   -3.4600 c1        1 BBE     -0.100000
      2 CAZ         1.1000    4.9460   -4.6550 c1        1 BBE     -0.125000
      3 CBA         2.3750    4.9250   -5.2070 c1        1 BBE     -0.125000
      4 CAX         3.4000    4.2400   -4.5650 c1        1 BBE     -0.125000
      5 CAW         3.1500    3.5750   -3.3700 c1        1 BBE     -0.125000
      6 CAV         1.8740    3.5950   -2.8160 c1        1 BBE     -0.129000
      7 CAU         1.6310    2.9850   -1.4170 c3        1 BBE      0.005000
      8 NAN         1.0570    1.6620   -1.5580 n         1 BBE     -0.279000
      9 CAO         0.5530    0.9750   -0.4070 c2        1 BBE      0.280000
     10 NAP         0.5820    1.6110    0.8750 nh        1 BBE     -0.353000
     11 CAM         1.0510    1.0060   -2.8650 c2        1 BBE      0.411000
     12 OAL         1.4100    1.6190   -3.8560 o         1 BBE     -0.368000
     13 NAD         0.6060   -0.3910   -2.9870 n         1 BBE     -0.356000
     14 CAE         0.0700   -1.0750   -1.8460 c2        1 BBE      0.381000
     15 OAA        -0.4210   -2.1840   -1.9750 o         1 BBE     -0.365000
     16 CAF         0.0580   -0.4140   -0.5350 c2        1 BBE     -0.254000
     17 NAG        -0.2880   -1.1760    0.6600 nh        1 BBE     -0.743000
     18 CAB         0.6720   -2.0070    1.2670 c3        1 BBE     -0.056000
     19 SAH        -1.8310   -1.1180    1.2650 s4        1 BBE      2.056800
     20 OAQ        -2.0800    0.1300    1.9400 o         1 BBE     -0.547400
     21 OAC        -2.8030   -1.0620    0.2090 o         1 BBE     -0.547400
     22 CAI        -2.1280   -2.5170    2.3500 c1        1 BBE     -0.829000
     23 CAJ        -2.7280   -3.6750    1.8480 c2        1 BBE     -0.010000
     24 CAK        -3.0280   -4.7270    2.7010 c1        1 BBE     -0.154000
     25 CAT        -2.7310   -4.6310    4.0540 c1        1 BBE     -0.066000
     26 CAS        -2.1320   -3.4760    4.5570 c1        1 BBE     -0.100000
     27 CAR        -1.8320   -2.4200    3.7030 c1        1 BBE     -0.022000
     28 CAL        -1.7450   -3.3970    6.0380 c3        1 BBE     -0.180000
     29 HAY        -0.0460    4.2960   -3.0720 ha        1 BBE      0.149000
     30 HAZ         0.3830    5.4250   -5.1040 ha        1 BBE      0.137000
     31 HBA         2.5520    5.3960   -6.0530 ha        1 BBE      0.137000
     32 HAX         4.2990    4.2260   -4.9550 ha        1 BBE      0.137000
     33 HAW         3.8700    3.0940   -2.9200 ha        1 BBE      0.137000
     34 HAU1        2.4810    2.9220   -0.9370 h1        1 BBE      0.127500
     35 HAU2        1.0130    3.5580   -0.9130 h1        1 BBE      0.127500
     36 HAP1        0.1490    1.2300    1.5840 hn        1 BBE      0.241000
     37 HAP2        1.0560    2.3810    0.9910 hn        1 BBE      0.241000
     38 HAD         0.6030   -0.7970   -3.8040 hn        1 BBE      0.271000
     39 HAB1        0.9360   -1.6250    2.1330 h1        1 BBE      0.082667
     40 HAB2        0.2910   -2.8990    1.4050 h1        1 BBE      0.082667
     41 HAB3        1.4580   -2.0740    0.6870 h1        1 BBE      0.082667
     42 HAJ        -2.9380   -3.7440    0.8930 ha        1 BBE      0.172000
     43 HAR        -1.4140   -1.6160    4.0520 ha        1 BBE      0.159000
     44 HAK        -3.4500   -5.5410    2.3470 ha        1 BBE      0.144000
     45 HAT        -2.9430   -5.3750    4.6560 ha        1 BBE      0.136000
     46 HAL1       -1.5180   -4.2910    6.3630 hc        1 BBE      0.087000
     47 HAL2       -0.9690   -2.8030    6.1430 hc        1 BBE      0.087000
     48 HAL3       -2.5030   -3.0420    6.5570 hc        1 BBE      0.087000
@<TRIPOS>BOND
     1    1    6 1   
     2    1   29 1   
     3    2    3 1   
     4    2   30 1   
     5    3   31 1   
     6    4    5 1   
     7    4   32 1   
     8    5   33 1   
     9    6    7 1   
    10    7    8 1   
    11    7   34 1   
    12    7   35 1   
    13    8    9 1   
    14    8   11 1   
    15    9   10 1   
    16    9   16 1   
    17   10   36 1   
    18   10   37 1   
    19   11   12 1   
    20   11   13 1   
    21   13   14 1   
    22   13   38 1   
    23   14   15 1   
    24   14   16 1   
    25   16   17 1   
    26   17   18 1   
    27   17   19 1   
    28   18   39 1   
    29   18   40 1   
    30   18   41 1   
    31   19   20 1   
    32   19   21 1   
    33   22   23 1   
    34   22   27 1   
    35   23   24 1   
    36   23   42 1   
    37   24   44 1   
    38   25   26 1   
    39   25   45 1   
    40   26   28 1   
    41   27   43 1   
    42   28   46 1   
    43   28   47 1   
    44   28   48 1   
@<TRIPOS>SUBSTRUCTURE
     1 BBE         1 TEMP              0 ****  ****    0 ROOT
