@<TRIPOS>MOLECULE
BBE
   50    52     1     0     0
SMALL
bcc


@<TRIPOS>ATOM
      1 CAY         0.1810   -0.3450    0.3740 ca        1 BBE     -0.135000
      2 CAZ         1.5370   -0.0190    0.4120 ca        1 BBE     -0.111000
      3 CBA         1.9810    1.0410    1.2020 ca        1 BBE     -0.077000
      4 CAX         1.0660    1.7780    1.9620 ca        1 BBE     -0.111000
      5 CAW        -0.2880    1.4520    1.9330 ca        1 BBE     -0.135000
      6 CAV        -0.7370    0.3850    1.1370 ca        1 BBE     -0.217300
      7 CAU        -2.2050    0.1420    0.9990 c3        1 BBE      0.110300
      8 NAN        -2.6670   -1.1460    1.5330 n         1 BBE     -0.355400
      9 CAO        -2.3400   -1.5910    2.8060 cc        1 BBE      0.357800
     10 NAP        -1.4380   -0.7560    3.6320 nz        1 BBE     -0.800600
     11 CAM        -3.5310   -1.9370    0.7110 c         1 BBE      0.807500
     12 OAL        -3.8190   -1.5990   -0.4400 o         1 BBE     -0.483500
     13 NAD        -4.0660   -3.1390    1.2560 ns        1 BBE     -0.453100
     14 CAE        -3.7550   -3.5740    2.5090 cd        1 BBE      0.488700
     15 OAA        -4.2620   -4.6620    2.9810 os        1 BBE     -0.419800
     16 CAF        -2.8160   -2.7880    3.3430 cc        1 BBE     -0.113600
     17 NAG        -2.4490   -3.1920    4.6460 nu        1 BBE     -0.723000
     18 CAB        -1.5430   -4.3210    4.7150 c3        1 BBE      0.136100
     19 SAH        -5.8280   -5.7000    2.7240 sy        1 BBE      1.731800
     20 OAQ        -6.4920   -5.0180    3.6940 o         1 BBE     -0.599300
     21 OAC        -5.8780   -5.3140    1.4130 o         1 BBE     -0.599300
     22 CAI        -5.3800   -7.1690    3.0320 ca        1 BBE     -0.568500
     23 CAJ        -5.4930   -7.7110    4.3370 ca        1 BBE      0.021000
     24 CAK        -5.1640   -9.0310    4.5950 ca        1 BBE     -0.145000
     25 CAT        -4.7110   -9.8570    3.5630 ca        1 BBE      0.019000
     26 CAS        -4.5820   -9.3550    2.2560 ca        1 BBE     -0.080300
     27 CAR        -4.9110   -8.0280    2.0060 ca        1 BBE      0.011000
     28 CAL        -4.1180  -10.2450    1.1660 c3        1 BBE     -0.076800
     29 HAY        -0.1680   -1.1550   -0.2870 ha        1 BBE      0.146000
     30 HAZ         2.2550   -0.5860   -0.2050 ha        1 BBE      0.172500
     31 HBA         3.0500    1.3150    1.2120 ha        1 BBE      0.177000
     32 HAX         1.4140    2.6350    2.5620 ha        1 BBE      0.172500
     33 HAW        -1.0090    2.0860    2.4740 ha        1 BBE      0.146000
     34 HAU1       -2.4740    0.1720   -0.1040 h1        1 BBE      0.120200
     35 HAU2       -2.7980    0.9530    1.5160 h1        1 BBE      0.120200
     36 HAP1       -1.7920    0.2130    3.6780 hn        1 BBE      0.498133
     37 HAP2       -0.4960   -0.7300    3.1970 hn        1 BBE      0.498133
     38 HAD        -4.7120   -3.6500    0.6590 hn        1 BBE      0.424500
     39 HAB1       -1.9770   -5.2580    4.2740 h1        1 BBE      0.067700
     40 HAB2       -0.5910   -4.0760    4.1760 h1        1 BBE      0.067700
     41 HAB3       -1.3130   -4.5000    5.8010 h1        1 BBE      0.067700
     42 HAJ        -5.8680   -7.0680    5.1560 ha        1 BBE      0.170000
     43 HAR        -4.8240   -7.6320    0.9760 ha        1 BBE      0.165000
     44 HAK        -5.2690   -9.4370    5.6170 ha        1 BBE      0.183000
     45 HAT        -4.4560  -10.9140    3.7700 ha        1 BBE      0.180000
     46 HAL1       -4.9080  -11.0040    0.9300 hc        1 BBE      0.074367
     47 HAL2       -3.8950   -9.6720    0.2330 hc        1 BBE      0.074367
     48 HAL3       -3.1920  -10.7940    1.4740 hc        1 BBE      0.074367
     49 HAP3       -1.3760   -1.1500    4.5870 hn        1 BBE      0.498133
     50 HAG1       -3.2740   -3.3500    5.2050 hn        1 BBE      0.425800
@<TRIPOS>BOND
     1    1    2 ar  
     2    1    6 ar  
     3    1   29 1   
     4    2    3 ar  
     5    2   30 1   
     6    3    4 ar  
     7    3   31 1   
     8    4    5 ar  
     9    4   32 1   
    10    5    6 ar  
    11    5   33 1   
    12    6    7 1   
    13    7    8 1   
    14    7   34 1   
    15    7   35 1   
    16    8    9 2   
    17    8   11 1   
    18    9   10 1   
    19    9   16 1   
    20   10   36 1   
    21   10   37 1   
    22   10   49 1   
    23   11   12 2   
    24   11   13 1   
    25   13   14 1   
    26   13   38 1   
    27   14   15 1   
    28   14   16 2   
    29   15   19 1   
    30   16   17 1   
    31   17   18 1   
    32   17   50 1   
    33   18   39 1   
    34   18   40 1   
    35   18   41 1   
    36   19   20 2   
    37   19   21 2   
    38   19   22 1   
    39   22   23 ar  
    40   22   27 ar  
    41   23   24 ar  
    42   23   42 1   
    43   24   25 ar  
    44   24   44 1   
    45   25   26 ar  
    46   25   45 1   
    47   26   27 ar  
    48   26   28 1   
    49   27   43 1   
    50   28   46 1   
    51   28   47 1   
    52   28   48 1   
@<TRIPOS>SUBSTRUCTURE
     1 BBE         1 TEMP              0 ****  ****    0 ROOT
