@<TRIPOS>MOLECULE
BBE
   50    52     1     0     0
SMALL
bcc


@<TRIPOS>ATOM
      1 CAY         0.2620   -0.4030    0.3940 ca        1 BBE     -0.135000
      2 CAZ         1.6170   -0.0770    0.4760 ca        1 BBE     -0.111000
      3 CBA         2.0310    1.0050    1.2540 ca        1 BBE     -0.077000
      4 CAX         1.0880    1.7620    1.9570 ca        1 BBE     -0.111000
      5 CAW        -0.2640    1.4360    1.8840 ca        1 BBE     -0.135000
      6 CAV        -0.6830    0.3480    1.1010 ca        1 BBE     -0.217300
      7 CAU        -2.1450    0.1010    0.9120 c3        1 BBE      0.110300
      8 NAN        -2.6300   -1.1720    1.4630 n         1 BBE     -0.355400
      9 CAO        -2.3520   -1.5810    2.7600 cc        1 BBE      0.357800
     10 NAP        -1.4820   -0.7240    3.5970 n4        1 BBE     -0.800600
     11 CAM        -3.4620   -1.9840    0.6300 c         1 BBE      0.807500
     12 OAL        -3.7040   -1.6770   -0.5400 o         1 BBE     -0.483500
     13 NAD        -4.0180   -3.1710    1.1860 n         1 BBE     -0.453100
     14 CAE        -3.7570   -3.5710    2.4610 cd        1 BBE      0.488700
     15 OAA        -4.2840   -4.6460    2.9420 os        1 BBE     -0.419800
     16 CAF        -2.8510   -2.7630    3.3090 cc        1 BBE     -0.113600
     17 NAG        -2.5350   -3.1310    4.6360 nh        1 BBE     -0.723000
     18 CAB        -1.6340   -4.2580    4.7710 c3        1 BBE      0.136100
     19 SAH        -5.8400   -5.6910    2.6540 sy        1 BBE      1.731800
     20 OAQ        -6.5400   -4.9820    3.5780 o         1 BBE     -0.599300
     21 OAC        -5.8380   -5.3400    1.3310 o         1 BBE     -0.599300
     22 CAI        -5.4060   -7.1510    3.0180 ca        1 BBE     -0.568500
     23 CAJ        -5.5700   -7.6570    4.3320 ca        1 BBE      0.021000
     24 CAK        -5.2520   -8.9700    4.6390 ca        1 BBE     -0.145000
     25 CAT        -4.7600   -9.8240    3.6480 ca        1 BBE      0.019000
     26 CAS        -4.5800   -9.3570    2.3330 ca        1 BBE     -0.080300
     27 CAR        -4.8980   -8.0380    2.0350 ca        1 BBE      0.011000
     28 CAL        -4.0750  -10.2770    1.2870 c3        1 BBE     -0.076800
     29 HAY        -0.0610   -1.2310   -0.2570 ha        1 BBE      0.146000
     30 HAZ         2.3580   -0.6600   -0.0970 ha        1 BBE      0.172500
     31 HBA         3.0990    1.2780    1.2980 ha        1 BBE      0.177000
     32 HAX         1.4140    2.6360    2.5470 ha        1 BBE      0.172500
     33 HAW        -1.0050    2.0850    2.3800 ha        1 BBE      0.146000
     34 HAU1       -2.3710    0.1020   -0.2010 h1        1 BBE      0.120200
     35 HAU2       -2.7570    0.9270    1.3840 h1        1 BBE      0.120200
     36 HAP1       -1.4580   -1.0930    4.5640 hn        1 BBE      0.498133
     37 HAP2       -1.8360    0.2450    3.6030 hn        1 BBE      0.498133
     38 HAD        -4.6420   -3.6970    0.5780 hn        1 BBE      0.424500
     39 HAB1       -2.0510   -5.2070    4.3390 h1        1 BBE      0.067700
     40 HAB2       -0.6610   -4.0290    4.2630 h1        1 BBE      0.067700
     41 HAB3       -1.4470   -4.4090    5.8700 h1        1 BBE      0.067700
     42 HAJ        -5.9760   -6.9920    5.1180 ha        1 BBE      0.170000
     43 HAR        -4.7700   -7.6700    0.9990 ha        1 BBE      0.165000
     44 HAK        -5.3980   -9.3470    5.6670 ha        1 BBE      0.183000
     45 HAT        -4.5150  -10.8740    3.8930 ha        1 BBE      0.180000
     46 HAL1       -4.8560  -11.0420    1.0420 hc        1 BBE      0.074367
     47 HAL2       -3.8160   -9.7290    0.3480 hc        1 BBE      0.074367
     48 HAL3       -3.1620  -10.8160    1.6460 hc        1 BBE      0.074367
     49 HAP3       -0.5240   -0.7100    3.1980 hn        1 BBE      0.498133
     50 HAG1       -3.3810   -3.2750    5.1670 hn        1 BBE      0.425800
@<TRIPOS>BOND
     1    1    2 ar  
     2    1    6 ar  
     3    1   29 1   
     4    2    3 ar  
     5    2   30 1   
     6    3    4 ar  
     7    3   31 1   
     8    4    5 ar  
     9    4   32 1   
    10    5    6 ar  
    11    5   33 1   
    12    6    7 1   
    13    7    8 1   
    14    7   34 1   
    15    7   35 1   
    16    8    9 2   
    17    8   11 1   
    18    9   10 1   
    19    9   16 1   
    20   10   36 1   
    21   10   37 1   
    22   10   49 1   
    23   11   12 2   
    24   11   13 1   
    25   13   14 1   
    26   13   38 1   
    27   14   15 1   
    28   14   16 2   
    29   15   19 1   
    30   16   17 1   
    31   17   18 1   
    32   17   50 1   
    33   18   39 1   
    34   18   40 1   
    35   18   41 1   
    36   19   20 2   
    37   19   21 2   
    38   19   22 1   
    39   22   23 ar  
    40   22   27 ar  
    41   23   24 ar  
    42   23   42 1   
    43   24   25 ar  
    44   24   44 1   
    45   25   26 ar  
    46   25   45 1   
    47   26   27 ar  
    48   26   28 1   
    49   27   43 1   
    50   28   46 1   
    51   28   47 1   
    52   28   48 1   
@<TRIPOS>SUBSTRUCTURE
     1 BBE         1 TEMP              0 ****  ****    0 ROOT
