@<TRIPOS>MOLECULE
BBE
   50    52     1     0     0
SMALL
bcc


@<TRIPOS>ATOM
      1 CAY         0.2150   -0.3650    0.3920 ca        1 BBE     -0.135000
      2 CAZ         1.5720   -0.0420    0.4480 ca        1 BBE     -0.111000
      3 CBA         2.0060    1.0230    1.2370 ca        1 BBE     -0.077000
      4 CAX         1.0820    1.7670    1.9780 ca        1 BBE     -0.111000
      5 CAW        -0.2720    1.4440    1.9310 ca        1 BBE     -0.135000
      6 CAV        -0.7120    0.3730    1.1370 ca        1 BBE     -0.217300
      7 CAU        -2.1780    0.1310    0.9790 c3        1 BBE      0.110300
      8 NAN        -2.6510   -1.1520    1.5150 n         1 BBE     -0.355400
      9 CAO        -2.3430   -1.5880    2.7970 cc        1 BBE      0.357800
     10 NAP        -1.4510   -0.7490    3.6300 n4        1 BBE     -0.800600
     11 CAM        -3.5050   -1.9460    0.6870 c         1 BBE      0.807500
     12 OAL        -3.7750   -1.6160   -0.4700 o         1 BBE     -0.483500
     13 NAD        -4.0490   -3.1440    1.2320 n         1 BBE     -0.453100
     14 CAE        -3.7570   -3.5710    2.4930 cd        1 BBE      0.489700
     15 OAA        -4.2730   -4.6550    2.9650 os        1 BBE     -0.419800
     16 CAF        -2.8290   -2.7800    3.3350 cc        1 BBE     -0.113600
     17 NAG        -2.4810   -3.1750    4.6460 nh        1 BBE     -0.723000
     18 CAB        -1.5790   -4.3060    4.7360 c3        1 BBE      0.136100
     19 SAH        -5.8350   -5.6930    2.6930 sy        1 BBE      1.731800
     20 OAQ        -6.5120   -5.0040    3.6490 o         1 BBE     -0.599300
     21 OAC        -5.8670   -5.3150    1.3780 o         1 BBE     -0.599300
     22 CAI        -5.3930   -7.1610    3.0150 ca        1 BBE     -0.568500
     23 CAJ        -5.5240   -7.6940    4.3220 ca        1 BBE      0.021000
     24 CAK        -5.1990   -9.0140    4.5930 ca        1 BBE     -0.145000
     25 CAT        -4.7330   -9.8460    3.5720 ca        1 BBE      0.019000
     26 CAS        -4.5850   -9.3520    2.2640 ca        1 BBE     -0.080300
     27 CAR        -4.9100   -8.0270    2.0010 ca        1 BBE      0.011000
     28 CAL        -4.1070  -10.2490    1.1850 c3        1 BBE     -0.076800
     29 HAY        -0.1260   -1.1790   -0.2670 ha        1 BBE      0.146000
     30 HAZ         2.2970   -0.6150   -0.1540 ha        1 BBE      0.172500
     31 HBA         3.0760    1.2940    1.2610 ha        1 BBE      0.177000
     32 HAX         1.4230    2.6280    2.5770 ha        1 BBE      0.172500
     33 HAW        -0.9990    2.0840    2.4580 ha        1 BBE      0.146000
     34 HAU1       -2.4310    0.1540   -0.1280 h1        1 BBE      0.120200
     35 HAU2       -2.7770    0.9480    1.4820 h1        1 BBE      0.120200
     36 HAP1       -0.5030   -0.7270    3.2080 hn        1 BBE      0.498133
     37 HAP2       -1.8040    0.2210    3.6630 hn        1 BBE      0.498133
     38 HAD        -4.6870   -3.6580    0.6300 hn        1 BBE      0.424500
     39 HAB1       -0.6190   -4.0660    4.2090 h1        1 BBE      0.067700
     40 HAB2       -2.0080   -5.2450    4.2950 h1        1 BBE      0.067700
     41 HAB3       -1.3660   -4.4780    5.8270 h1        1 BBE      0.067700
     42 HAJ        -5.9100   -7.0460    5.1320 ha        1 BBE      0.170000
     43 HAR        -4.8090   -7.6370    0.9700 ha        1 BBE      0.165000
     44 HAK        -5.3190   -9.4120    5.6160 ha        1 BBE      0.183000
     45 HAT        -4.4820  -10.9010    3.7890 ha        1 BBE      0.180000
     46 HAL1       -4.8950  -11.0090    0.9440 hc        1 BBE      0.074367
     47 HAL2       -3.1860  -10.7960    1.5100 hc        1 BBE      0.074367
     48 HAL3       -3.8710   -9.6810    0.2520 hc        1 BBE      0.074367
     49 HAP3       -1.4050   -1.1360    4.5880 hn        1 BBE      0.498133
     50 HAG1       -3.3150   -3.3290    5.1930 hn        1 BBE      0.425800
@<TRIPOS>BOND
     1    1    2 ar  
     2    1    6 ar  
     3    1   29 1   
     4    2    3 ar  
     5    2   30 1   
     6    3    4 ar  
     7    3   31 1   
     8    4    5 ar  
     9    4   32 1   
    10    5    6 ar  
    11    5   33 1   
    12    6    7 1   
    13    7    8 1   
    14    7   34 1   
    15    7   35 1   
    16    8    9 2   
    17    8   11 1   
    18    9   10 1   
    19    9   16 1   
    20   10   36 1   
    21   10   37 1   
    22   10   49 1   
    23   11   12 2   
    24   11   13 1   
    25   13   14 1   
    26   13   38 1   
    27   14   15 1   
    28   14   16 2   
    29   15   19 1   
    30   16   17 1   
    31   17   18 1   
    32   17   50 1   
    33   18   39 1   
    34   18   40 1   
    35   18   41 1   
    36   19   20 2   
    37   19   21 2   
    38   19   22 1   
    39   22   23 ar  
    40   22   27 ar  
    41   23   24 ar  
    42   23   42 1   
    43   24   25 ar  
    44   24   44 1   
    45   25   26 ar  
    46   25   45 1   
    47   26   27 ar  
    48   26   28 1   
    49   27   43 1   
    50   28   46 1   
    51   28   47 1   
    52   28   48 1   
@<TRIPOS>SUBSTRUCTURE
     1 BBE         1 TEMP              0 ****  ****    0 ROOT
