@<TRIPOS>MOLECULE
BBE
   48    50     1     0     0
SMALL
bcc


@<TRIPOS>ATOM
      1 CAY        -5.1410   -0.3780   -0.6250 ca        1 BBE     -0.119000
      2 CAZ        -6.0730    0.1280   -1.5290 ca        1 BBE     -0.127000
      3 CBA        -6.4660    1.4650   -1.4540 ca        1 BBE     -0.118000
      4 CAX        -5.9260    2.2960   -0.4720 ca        1 BBE     -0.127000
      5 CAW        -4.9880    1.7950    0.4300 ca        1 BBE     -0.119000
      6 CAV        -4.5900    0.4560    0.3540 ca        1 BBE     -0.130300
      7 CAU        -3.6220   -0.1000    1.3580 c3        1 BBE      0.128300
      8 NAN        -2.4100   -0.6650    0.7880 n         1 BBE     -0.390000
      9 CAO        -1.3980    0.1520    0.2480 cc        1 BBE      0.382600
     10 NAP        -1.6030    1.5100    0.1570 nh        1 BBE     -0.865600
     11 CAM        -2.2560   -2.0790    0.8230 c         1 BBE      0.821500
     12 OAL        -3.2060   -2.8050    1.1900 o         1 BBE     -0.644500
     13 NAD        -1.0370   -2.6370    0.4450 n         1 BBE     -0.578500
     14 CAE         0.0540   -1.8710    0.0000 c         1 BBE      0.744700
     15 OAA         1.1150   -2.4700   -0.2620 o         1 BBE     -0.643500
     16 CAF        -0.1630   -0.4260   -0.1350 cd        1 BBE     -0.202200
     17 NAG         0.8650    0.3490   -0.6940 nh        1 BBE     -0.644300
     18 CAB         1.0230    0.2770   -2.1180 c3        1 BBE      0.219100
     19 SAH         1.8800    1.1710    0.3020 sy        1 BBE      1.501200
     20 OAQ         1.6320    2.5540    0.1140 o         1 BBE     -0.657800
     21 OAC         1.7600    0.7370    1.6360 o         1 BBE     -0.657800
     22 CAI         3.4060    0.7940   -0.2940 ca        1 BBE     -0.383500
     23 CAJ         4.2630    1.8090   -0.7430 ca        1 BBE     -0.027000
     24 CAK         5.5500    1.5090   -1.1760 ca        1 BBE     -0.158000
     25 CAT         5.9990    0.1880   -1.1680 ca        1 BBE     -0.068000
     26 CAS         5.1600   -0.8410   -0.7290 ca        1 BBE     -0.101300
     27 CAR         3.8660   -0.5270   -0.2970 ca        1 BBE     -0.008000
     28 CAL         5.6320   -2.2450   -0.7060 c3        1 BBE     -0.056800
     29 HAY        -4.8410   -1.4380   -0.6680 ha        1 BBE      0.141500
     30 HAZ        -6.5040   -0.5300   -2.2980 ha        1 BBE      0.138000
     31 HBA        -7.2040    1.8630   -2.1660 ha        1 BBE      0.137000
     32 HAX        -6.2410    3.3480   -0.4060 ha        1 BBE      0.138000
     33 HAW        -4.5770    2.4520    1.2120 ha        1 BBE      0.141500
     34 HAU1       -3.3270    0.7000    2.0990 h1        1 BBE      0.088700
     35 HAU2       -4.1510   -0.9190    1.9350 h1        1 BBE      0.088700
     36 HAP1       -2.5070    1.9010    0.2720 hn        1 BBE      0.457800
     37 HAP2       -0.8960    2.0810   -0.2460 hn        1 BBE      0.457800
     38 HAD        -0.9400   -3.6260    0.5360 hn        1 BBE      0.356500
     39 HAB1        1.8850    0.9280   -2.4260 h1        1 BBE      0.042700
     40 HAB2        1.2260   -0.7800   -2.4410 h1        1 BBE      0.042700
     41 HAB3        0.0930    0.6370   -2.6330 h1        1 BBE      0.042700
     42 HAJ         3.9060    2.8540   -0.7450 ha        1 BBE      0.158000
     43 HAR         3.1940   -1.3420    0.0400 ha        1 BBE      0.171000
     44 HAK         6.2150    2.3130   -1.5230 ha        1 BBE      0.139000
     45 HAT         7.0190   -0.0480   -1.5110 ha        1 BBE      0.135000
     46 HAL1        6.0690   -2.4830    0.2960 hc        1 BBE      0.050033
     47 HAL2        4.7870   -2.9530   -0.8950 hc        1 BBE      0.050033
     48 HAL3        6.4190   -2.4150   -1.4810 hc        1 BBE      0.050033
@<TRIPOS>BOND
     1    1    2 ar  
     2    1    6 ar  
     3    1   29 1   
     4    2    3 ar  
     5    2   30 1   
     6    3    4 ar  
     7    3   31 1   
     8    4    5 ar  
     9    4   32 1   
    10    5    6 ar  
    11    5   33 1   
    12    6    7 1   
    13    7    8 1   
    14    7   34 1   
    15    7   35 1   
    16    8    9 1   
    17    8   11 1   
    18    9   10 1   
    19    9   16 2   
    20   10   36 1   
    21   10   37 1   
    22   11   12 2   
    23   11   13 1   
    24   13   14 1   
    25   13   38 1   
    26   14   15 2   
    27   14   16 1   
    28   16   17 1   
    29   17   18 1   
    30   17   19 1   
    31   18   39 1   
    32   18   40 1   
    33   18   41 1   
    34   19   20 2   
    35   19   21 2   
    36   19   22 1   
    37   22   23 ar  
    38   22   27 ar  
    39   23   24 ar  
    40   23   42 1   
    41   24   25 ar  
    42   24   44 1   
    43   25   26 ar  
    44   25   45 1   
    45   26   27 ar  
    46   26   28 1   
    47   27   43 1   
    48   28   46 1   
    49   28   47 1   
    50   28   48 1   
@<TRIPOS>SUBSTRUCTURE
     1 BBE         1 TEMP              0 ****  ****    0 ROOT
