@<TRIPOS>MOLECULE
BBF
   12    10     1     0     0
SMALL
bcc


@<TRIPOS>ATOM
      1 F6         -2.7010    0.0010   -0.0410 f         1 BBF     -0.123000
      2 C6         -1.3620    0.0010   -0.0410 ce        1 BBF      0.074400
      3 C1         -0.6690    0.0010    1.1590 c1        1 BBF      0.056700
      4 BR1        -1.6250   -0.0110    2.8150 br        1 BBF      0.136000
      5 C5         -0.6690    0.0010   -1.2420 ce        1 BBF      0.074400
      6 F5         -1.3390   -0.0010   -2.4010 f         1 BBF     -0.123000
      7 C4          0.7170    0.0010   -1.2420 c1        1 BBF      0.056700
      8 F4          1.3860    0.0020   -2.4010 f         1 BBF     -0.057000
      9 C3          1.4100    0.0010   -0.0410 ce        1 BBF      0.074400
     10 F3          2.7490   -0.0020   -0.0410 f         1 BBF     -0.123000
     11 C2          0.7170    0.0010    1.1590 ce        1 BBF      0.074400
     12 F2          1.3860    0.0050    2.3190 f         1 BBF     -0.123000
@<TRIPOS>BOND
     1    1    2 1   
     2    2    3 2   
     3    2    5 1   
     4    3   11 2   
     5    5    6 1   
     6    5    7 2   
     7    7    9 2   
     8    9   10 1   
     9    9   11 1   
    10   11   12 1   
@<TRIPOS>SUBSTRUCTURE
     1 BBF         1 TEMP              0 ****  ****    0 ROOT
