@<TRIPOS>MOLECULE
BBH
   50    52     1     0     0
SMALL
bcc


@<TRIPOS>ATOM
      1 C1          0.2600   -0.8670    2.1520 ca        1 BBH     -0.460500
      2 C2         -0.1440    0.1040    3.0850 ca        1 BBH      0.028500
      3 C3          0.7570    0.6930    3.9550 ca        1 BBH     -0.211000
      4 C4          2.1140    0.3090    3.9010 ca        1 BBH      0.201100
      5 C5          2.5430   -0.6610    2.9790 ca        1 BBH     -0.211000
      6 C6          1.6140   -1.2330    2.1220 ca        1 BBH      0.028500
      7 O7          2.9340    0.9450    4.7970 os        1 BBH     -0.314900
      8 C8          4.3150    0.5890    4.7680 c3        1 BBH      0.108700
      9 S9         -0.8340   -1.6160    1.1490 sy        1 BBH      1.517200
     10 O10        -0.2880   -2.8410    0.7010 o         1 BBH     -0.653800
     11 O11        -2.0990   -1.6830    1.7740 o         1 BBH     -0.653800
     12 N12        -0.9870   -0.6140   -0.1570 n3        1 BBH     -0.802500
     13 C13        -1.7080    0.6360   -0.2640 c3        1 BBH      0.175500
     14 C14        -0.7540    1.8320   -0.4150 c3        1 BBH     -0.168400
     15 C15         0.3760    1.5790   -1.3920 c         1 BBH      0.699500
     16 N16         0.7540    0.2630   -1.6520 n         1 BBH     -0.485800
     17 C17        -0.1590   -0.8320   -1.3330 c3        1 BBH      0.371200
     18 O18         0.9980    2.5360   -1.8930 o         1 BBH     -0.635500
     19 C          -2.6930    0.9460    0.8830 c         1 BBH      0.571100
     20 NA         -3.9510    0.2750    0.8460 n         1 BBH     -0.328400
     21 OA         -4.7320    0.5180    1.9010 oh        1 BBH     -0.422100
     22 OB         -2.4830    1.8860    1.6650 o         1 BBH     -0.559100
     23 C7          1.7780   -0.0290   -2.6300 c3        1 BBH      0.136300
     24 C9          0.4880    0.7840   -6.1020 ca        1 BBH     -0.132500
     25 C10         0.9030    0.9260   -4.7790 ca        1 BBH     -0.116000
     26 C11         1.2950   -0.1970   -4.0430 ca        1 BBH     -0.130300
     27 C12         1.2690   -1.4610   -4.6390 ca        1 BBH     -0.116000
     28 C16         0.8560   -1.6000   -5.9640 ca        1 BBH     -0.132500
     29 C18         0.4640   -0.4790   -6.6960 ca        1 BBH     -0.122000
     30 HC21       -1.2090    0.4040    3.1270 ha        1 BBH      0.159500
     31 HC31        0.4370    1.4520    4.6840 ha        1 BBH      0.156500
     32 HC51        3.5960   -0.9700    2.9320 ha        1 BBH      0.156500
     33 HC61        1.9440   -2.0090    1.4070 ha        1 BBH      0.159500
     34 HC81        4.7620    1.2320    5.5680 h1        1 BBH      0.052700
     35 HC82        4.4450   -0.4940    5.0110 h1        1 BBH      0.052700
     36 HC83        4.7600    0.8280    3.7720 h1        1 BBH      0.052700
     37 H131       -2.3330    0.5810   -1.2140 h1        1 BBH      0.084700
     38 H141       -0.2980    2.0980    0.5770 hc        1 BBH      0.101200
     39 H142       -1.3360    2.7240   -0.7660 hc        1 BBH      0.101200
     40 H171        0.4650   -1.7670   -1.1740 h2        1 BBH      0.073200
     41 H172       -0.8450   -1.0080   -2.2210 h2        1 BBH      0.073200
     42 HNA        -3.8410   -0.7390    0.7790 hn        1 BBH      0.333500
     43 HOA        -5.0540    1.4350    1.7910 ho        1 BBH      0.426000
     44 HC71        2.5210    0.8240   -2.6060 h1        1 BBH      0.072200
     45 HC72        2.3070   -0.9700   -2.3000 h1        1 BBH      0.072200
     46 H101        0.9300    1.9210   -4.3030 ha        1 BBH      0.143000
     47 H121        1.5790   -2.3480   -4.0670 ha        1 BBH      0.143000
     48 H161        0.8390   -2.5950   -6.4310 ha        1 BBH      0.134000
     49 H181        0.1380   -0.5900   -7.7400 ha        1 BBH      0.133000
     50 HC91        0.1810    1.6690   -6.6780 ha        1 BBH      0.134000
@<TRIPOS>BOND
     1    1    2 ar  
     2    1    6 ar  
     3    1    9 1   
     4    2    3 ar  
     5    2   30 1   
     6    3    4 ar  
     7    3   31 1   
     8    4    5 ar  
     9    4    7 1   
    10    5    6 ar  
    11    5   32 1   
    12    6   33 1   
    13    7    8 1   
    14    8   34 1   
    15    8   35 1   
    16    8   36 1   
    17    9   10 2   
    18    9   11 2   
    19    9   12 1   
    20   12   13 1   
    21   12   17 1   
    22   13   14 1   
    23   13   19 1   
    24   13   37 1   
    25   14   15 1   
    26   14   38 1   
    27   14   39 1   
    28   15   16 1   
    29   15   18 2   
    30   16   17 1   
    31   16   23 1   
    32   17   40 1   
    33   17   41 1   
    34   19   20 1   
    35   19   22 2   
    36   20   21 1   
    37   20   42 1   
    38   21   43 1   
    39   23   26 1   
    40   23   44 1   
    41   23   45 1   
    42   24   25 ar  
    43   24   29 ar  
    44   24   50 1   
    45   25   26 ar  
    46   25   46 1   
    47   26   27 ar  
    48   27   28 ar  
    49   27   47 1   
    50   28   29 ar  
    51   28   48 1   
    52   29   49 1   
@<TRIPOS>SUBSTRUCTURE
     1 BBH         1 TEMP              0 ****  ****    0 ROOT
