@<TRIPOS>MOLECULE
BBH
   50    46     1     0     0
SMALL
bcc


@<TRIPOS>ATOM
      1 C1          2.3570   -1.6420    0.5850 c1        1 BBH     -0.896000
      2 C2          3.6480   -1.1500    0.6150 c1        1 BBH     -0.114750
      3 C3          4.3570   -1.1120    1.8240 c1        1 BBH     -0.114750
      4 C4          3.7590   -1.5730    3.0020 c1        1 BBH      0.157000
      5 C5          2.4700   -2.0660    2.9740 c1        1 BBH     -0.183000
      6 C6          1.7580   -2.1030    1.7620 c1        1 BBH      0.017000
      7 O7          4.4510   -1.5540    4.1650 os        1 BBH     -0.198000
      8 C8          5.2900   -2.7200    4.3700 c3        1 BBH     -0.081000
      9 S9          1.4380   -1.6960   -1.0010 s4        1 BBH      2.073800
     10 O10         2.3420   -1.7600   -2.1310 o         1 BBH     -0.541400
     11 O11         0.7010   -2.9620   -1.1540 o         1 BBH     -0.541400
     12 N12         0.4130   -0.3720   -1.1210 n2        1 BBH     -0.835000
     13 C13         0.9160    0.9110   -1.6770 c3        1 BBH      0.034000
     14 C14         0.1070    2.0440   -1.1200 c3        1 BBH     -0.196000
     15 C15        -1.3960    1.7570   -1.3030 c2        1 BBH      0.311000
     16 N16        -1.7790    0.5420   -0.8380 n         1 BBH     -0.343000
     17 C17        -0.9400   -0.5650   -1.3050 c3        1 BBH      0.098000
     18 O18        -2.1830    2.6610   -1.3370 o         1 BBH     -0.354000
     19 C           0.9430    0.9050   -3.2620 c2        1 BBH      0.221000
     20 NA          2.1080    1.3720   -3.9600 n         1 BBH     -0.198000
     21 OA          2.0700    1.5310   -5.3640 oh        1 BBH     -0.230000
     22 OB         -0.0660    0.5960   -3.8910 o         1 BBH     -0.320000
     23 C7         -2.4800    0.4410    0.4560 c3        1 BBH      0.014000
     24 C9         -6.1140    0.9020   -0.7420 c1        1 BBH     -0.114750
     25 C10        -4.7640    0.5220   -0.7000 c1        1 BBH     -0.124000
     26 C11        -3.9390    1.0040    0.3030 c2        1 BBH     -0.105000
     27 C12        -4.4620    1.8830    1.2910 c2        1 BBH     -0.105000
     28 C16        -5.8050    2.2630    1.2510 c1        1 BBH     -0.132000
     29 C18        -6.6340    1.7790    0.2440 c1        1 BBH     -0.114750
     30 HC21        4.1030   -0.7980   -0.2810 ha        1 BBH      0.142750
     31 HC31        5.2770   -0.7620    1.8450 ha        1 BBH      0.142750
     32 HC51        2.0450   -2.3950    3.8140 ha        1 BBH      0.163000
     33 HC61        0.8320   -2.4570    1.7410 ha        1 BBH      0.153000
     34 HC81        4.7390   -3.4680    4.7180 h1        1 BBH      0.093333
     35 HC82        5.9910   -2.5060    5.0150 h1        1 BBH      0.093333
     36 HC83        5.6830   -2.9750    3.5470 h1        1 BBH      0.093333
     37 H131        1.8750    1.0310   -1.4670 h1        1 BBH      0.107000
     38 H141        0.3100    2.2690   -0.1990 hc        1 BBH      0.143500
     39 H142        0.3670    2.8840   -1.5790 hc        1 BBH      0.143500
     40 H171       -1.2170   -1.4130   -0.8150 h2        1 BBH      0.129000
     41 H172       -1.1090   -0.6970   -2.2910 h2        1 BBH      0.129000
     42 HNA         2.9300    1.4750   -3.4940 hn        1 BBH      0.257000
     43 HOA         2.8800    1.8520   -5.6570 ho        1 BBH      0.227000
     44 HC71       -2.5140   -0.4600    0.7270 h1        1 BBH      0.102500
     45 HC72       -2.0290    0.9330    1.0870 h1        1 BBH      0.102500
     46 HC91       -6.6950    0.5630   -1.4480 ha        1 BBH      0.142750
     47 H101       -4.4130   -0.0700   -1.3670 ha        1 BBH      0.132000
     48 H121       -3.8650    2.2320    2.0150 ha        1 BBH      0.142000
     49 H161       -6.1670    2.8750    1.9400 ha        1 BBH      0.135000
     50 H181       -7.5900    2.0490    0.2150 ha        1 BBH      0.142750
@<TRIPOS>BOND
     1    1    6 1   
     2    1    9 1   
     3    2    3 1   
     4    2   30 1   
     5    3   31 1   
     6    4    5 1   
     7    4    7 1   
     8    5   32 1   
     9    6   33 1   
    10    7    8 1   
    11    8   34 1   
    12    8   35 1   
    13    8   36 1   
    14    9   10 1   
    15    9   11 1   
    16   12   13 1   
    17   12   17 1   
    18   13   14 1   
    19   13   19 1   
    20   13   37 1   
    21   14   15 1   
    22   14   38 1   
    23   14   39 1   
    24   15   16 1   
    25   15   18 1   
    26   16   17 1   
    27   16   23 1   
    28   17   40 1   
    29   17   41 1   
    30   19   20 1   
    31   19   22 1   
    32   20   21 1   
    33   20   42 1   
    34   21   43 1   
    35   23   26 1   
    36   23   44 1   
    37   23   45 1   
    38   24   29 1   
    39   24   46 1   
    40   25   26 1   
    41   25   47 1   
    42   26   27 1   
    43   27   28 1   
    44   27   48 1   
    45   28   49 1   
    46   29   50 1   
@<TRIPOS>SUBSTRUCTURE
     1 BBH         1 TEMP              0 ****  ****    0 ROOT
