@<TRIPOS>MOLECULE
BBH
   51    53     1     0     0
SMALL
bcc


@<TRIPOS>ATOM
      1 C1         -0.2030   -0.0800   -0.1090 ca        1 BBH     -0.521500
      2 C2          1.2000   -0.1860    0.0100 ca        1 BBH      0.037500
      3 C3          1.8310   -0.1860    1.2350 ca        1 BBH     -0.208500
      4 C4          1.0500   -0.0750    2.4130 ca        1 BBH      0.241100
      5 C5         -0.3500    0.0350    2.3250 ca        1 BBH     -0.208500
      6 C6         -0.9530    0.0320    1.0790 ca        1 BBH      0.037500
      7 O7          1.7570   -0.0860    3.5760 os        1 BBH     -0.297900
      8 C8          1.0180    0.0400    4.7950 c3        1 BBH      0.103700
      9 S9         -0.9370   -0.0210   -1.5570 sy        1 BBH      1.548200
     10 O10        -2.2320    0.5040   -1.4730 o         1 BBH     -0.668800
     11 O11        -0.0770    0.5560   -2.5530 o         1 BBH     -0.668800
     12 N12        -1.0450   -1.5990   -2.0990 n3        1 BBH     -0.812500
     13 C13        -0.1000   -2.3140   -2.9200 c3        1 BBH      0.210500
     14 C14         0.6330   -3.4200   -2.1410 c3        1 BBH     -0.184400
     15 C15        -0.3170   -4.2500   -1.2900 c         1 BBH      0.695500
     16 N16        -1.5090   -3.6740   -0.8580 n         1 BBH     -0.475800
     17 C17        -2.0440   -2.5040   -1.5440 c3        1 BBH      0.375200
     18 O18         0.0320   -5.3880   -0.9350 o         1 BBH     -0.587500
     19 C           0.9680   -1.4200   -3.5630 c         1 BBH      0.547100
     20 NA          0.5550   -0.6840   -4.8400 n4        1 BBH     -0.454300
     21 OA          1.6000   -0.4130   -5.6540 oh        1 BBH     -0.359300
     22 OB          2.1250   -1.2540   -3.2200 o         1 BBH     -0.401100
     23 C7         -2.4860   -4.4790   -0.1440 c3        1 BBH      0.133300
     24 C9         -3.9940   -7.1270   -2.3960 ca        1 BBH     -0.128500
     25 C10        -3.0790   -6.4140   -1.6240 ca        1 BBH     -0.117000
     26 C11        -3.4630   -5.2150   -1.0130 ca        1 BBH     -0.149300
     27 C12        -4.7650   -4.7360   -1.1810 ca        1 BBH     -0.117000
     28 C16        -5.6790   -5.4520   -1.9520 ca        1 BBH     -0.128500
     29 C18        -5.2940   -6.6480   -2.5610 ca        1 BBH     -0.110000
     30 HC21        1.8100   -0.2570   -0.9100 ha        1 BBH      0.151500
     31 HC31        2.9250   -0.2630    1.3230 ha        1 BBH      0.171000
     32 HC51       -0.9650    0.1300    3.2330 ha        1 BBH      0.171000
     33 HC61       -2.0530    0.1360    1.0100 ha        1 BBH      0.151500
     34 HC81        0.3150   -0.8190    4.9120 h1        1 BBH      0.066033
     35 HC82        1.8210    0.0100    5.5770 h1        1 BBH      0.066033
     36 HC83        0.4730    1.0140    4.8200 h1        1 BBH      0.066033
     37 H131       -0.6780   -2.8160   -3.7630 h1        1 BBH      0.090700
     38 H141        1.4080   -2.9820   -1.4550 hc        1 BBH      0.107200
     39 H142        1.1550   -4.1080   -2.8580 hc        1 BBH      0.107200
     40 H171       -2.6650   -1.9160   -0.7960 h2        1 BBH      0.077700
     41 H172       -2.7280   -2.8430   -2.3860 h2        1 BBH      0.077700
     42 HNA         0.0790    0.2100   -4.5570 hn        1 BBH      0.501300
     43 HOA         2.3230   -0.0070   -5.1150 ho        1 BBH      0.487000
     44 HC71       -1.9110   -5.2270    0.4790 h1        1 BBH      0.082200
     45 HC72       -3.0420   -3.7880    0.5530 h1        1 BBH      0.082200
     46 H121       -5.0770   -3.8000   -0.6920 ha        1 BBH      0.140500
     47 H161       -6.7070   -5.0790   -2.0740 ha        1 BBH      0.143500
     48 H181       -6.0190   -7.2160   -3.1640 ha        1 BBH      0.144000
     49 HC91       -3.6930   -8.0750   -2.8680 ha        1 BBH      0.143500
     50 HA2        -0.0940   -1.2610   -5.4050 hn        1 BBH      0.501300
     51 H101       -2.0540   -6.7930   -1.4800 ha        1 BBH      0.140500
@<TRIPOS>BOND
     1    1    2 ar  
     2    1    6 ar  
     3    1    9 1   
     4    2    3 ar  
     5    2   30 1   
     6    3    4 ar  
     7    3   31 1   
     8    4    5 ar  
     9    4    7 1   
    10    5    6 ar  
    11    5   32 1   
    12    6   33 1   
    13    7    8 1   
    14    8   34 1   
    15    8   35 1   
    16    8   36 1   
    17    9   10 2   
    18    9   11 2   
    19    9   12 1   
    20   12   13 1   
    21   12   17 1   
    22   13   14 1   
    23   13   19 1   
    24   13   37 1   
    25   14   15 1   
    26   14   38 1   
    27   14   39 1   
    28   15   16 1   
    29   15   18 2   
    30   16   17 1   
    31   16   23 1   
    32   17   40 1   
    33   17   41 1   
    34   19   20 1   
    35   19   22 2   
    36   20   21 1   
    37   20   42 1   
    38   20   50 1   
    39   21   43 1   
    40   23   26 1   
    41   23   44 1   
    42   23   45 1   
    43   24   25 ar  
    44   24   29 ar  
    45   24   49 1   
    46   25   26 ar  
    47   25   51 1   
    48   26   27 ar  
    49   27   28 ar  
    50   27   46 1   
    51   28   29 ar  
    52   28   47 1   
    53   29   48 1   
@<TRIPOS>SUBSTRUCTURE
     1 BBH         1 TEMP              0 ****  ****    0 ROOT
