@<TRIPOS>MOLECULE
BBH
   51    53     1     0     0
SMALL
bcc


@<TRIPOS>ATOM
      1 C1         -0.2030   -0.0820   -0.1090 ca        1 BBH     -0.521500
      2 C2          1.2000   -0.1900    0.0110 ca        1 BBH      0.037500
      3 C3          1.8290   -0.1900    1.2370 ca        1 BBH     -0.208500
      4 C4          1.0470   -0.0770    2.4150 ca        1 BBH      0.241100
      5 C5         -0.3530    0.0360    2.3250 ca        1 BBH     -0.208500
      6 C6         -0.9540    0.0320    1.0780 ca        1 BBH      0.037500
      7 O7          1.7540   -0.0880    3.5780 os        1 BBH     -0.297900
      8 C8          1.0140    0.0400    4.7960 c3        1 BBH      0.103700
      9 S9         -0.9360   -0.0220   -1.5580 sy        1 BBH      1.548200
     10 O10        -2.2300    0.5050   -1.4750 o         1 BBH     -0.668800
     11 O11        -0.0750    0.5530   -2.5530 o         1 BBH     -0.668800
     12 N12        -1.0460   -1.6000   -2.0990 n3        1 BBH     -0.812500
     13 C13        -0.1020   -2.3180   -2.9180 c3        1 BBH      0.210500
     14 C14         0.6290   -3.4240   -2.1380 c3        1 BBH     -0.184400
     15 C15        -0.3230   -4.2520   -1.2870 c         1 BBH      0.695500
     16 N16        -1.5150   -3.6740   -0.8560 n         1 BBH     -0.475800
     17 C17        -2.0470   -2.5030   -1.5440 c3        1 BBH      0.375200
     18 O18         0.0240   -5.3900   -0.9300 o         1 BBH     -0.587500
     19 C           0.9690   -1.4250   -3.5610 c         1 BBH      0.547100
     20 NA          0.5570   -0.6890   -4.8390 ny        1 BBH     -0.454300
     21 OA          1.6030   -0.4210   -5.6520 oh        1 BBH     -0.359300
     22 OB          2.1250   -1.2620   -3.2170 o         1 BBH     -0.401100
     23 C7         -2.4940   -4.4760   -0.1430 c3        1 BBH      0.133300
     24 C9         -4.0030   -7.1250   -2.3950 ca        1 BBH     -0.128500
     25 C10        -3.0880   -6.4120   -1.6220 ca        1 BBH     -0.117000
     26 C11        -3.4710   -5.2120   -1.0130 ca        1 BBH     -0.149300
     27 C12        -4.7720   -4.7310   -1.1830 ca        1 BBH     -0.117000
     28 C16        -5.6860   -5.4470   -1.9550 ca        1 BBH     -0.128500
     29 C18        -5.3020   -6.6430   -2.5620 ca        1 BBH     -0.110000
     30 HC21        1.8100   -0.2620   -0.9080 ha        1 BBH      0.151500
     31 HC31        2.9240   -0.2690    1.3260 ha        1 BBH      0.171000
     32 HC51       -0.9680    0.1320    3.2320 ha        1 BBH      0.171000
     33 HC61       -2.0540    0.1380    1.0080 ha        1 BBH      0.151500
     34 HC81        0.3090   -0.8180    4.9140 h1        1 BBH      0.066033
     35 HC82        1.8160    0.0090    5.5790 h1        1 BBH      0.066033
     36 HC83        0.4710    1.0150    4.8200 h1        1 BBH      0.066033
     37 H131       -0.6800   -2.8190   -3.7610 h1        1 BBH      0.090700
     38 H141        1.1500   -4.1130   -2.8530 hc        1 BBH      0.107200
     39 H142        1.4040   -2.9860   -1.4510 hc        1 BBH      0.107200
     40 H171       -2.7310   -2.8410   -2.3860 h2        1 BBH      0.077700
     41 H172       -2.6680   -1.9140   -0.7970 h2        1 BBH      0.077700
     42 HNA         0.0830    0.2050   -4.5570 hn        1 BBH      0.501300
     43 HOA         2.3270   -0.0170   -5.1130 ho        1 BBH      0.487000
     44 HC71       -3.0500   -3.7840    0.5530 h1        1 BBH      0.082200
     45 HC72       -1.9210   -5.2250    0.4810 h1        1 BBH      0.082200
     46 H121       -5.0840   -3.7950   -0.6950 ha        1 BBH      0.140500
     47 H161       -6.7130   -5.0720   -2.0790 ha        1 BBH      0.143500
     48 H181       -6.0260   -7.2110   -3.1660 ha        1 BBH      0.144000
     49 HC91       -3.7020   -8.0730   -2.8650 ha        1 BBH      0.143500
     50 HA2        -0.0930   -1.2660   -5.4040 hn        1 BBH      0.501300
     51 H101       -2.0630   -6.7930   -1.4760 ha        1 BBH      0.140500
@<TRIPOS>BOND
     1    1    2 ar  
     2    1    6 ar  
     3    1    9 1   
     4    2    3 ar  
     5    2   30 1   
     6    3    4 ar  
     7    3   31 1   
     8    4    5 ar  
     9    4    7 1   
    10    5    6 ar  
    11    5   32 1   
    12    6   33 1   
    13    7    8 1   
    14    8   34 1   
    15    8   35 1   
    16    8   36 1   
    17    9   10 2   
    18    9   11 2   
    19    9   12 1   
    20   12   13 1   
    21   12   17 1   
    22   13   14 1   
    23   13   19 1   
    24   13   37 1   
    25   14   15 1   
    26   14   38 1   
    27   14   39 1   
    28   15   16 1   
    29   15   18 2   
    30   16   17 1   
    31   16   23 1   
    32   17   40 1   
    33   17   41 1   
    34   19   20 1   
    35   19   22 2   
    36   20   21 1   
    37   20   42 1   
    38   20   50 1   
    39   21   43 1   
    40   23   26 1   
    41   23   44 1   
    42   23   45 1   
    43   24   25 ar  
    44   24   29 ar  
    45   24   49 1   
    46   25   26 ar  
    47   25   51 1   
    48   26   27 ar  
    49   27   28 ar  
    50   27   46 1   
    51   28   29 ar  
    52   28   47 1   
    53   29   48 1   
@<TRIPOS>SUBSTRUCTURE
     1 BBH         1 TEMP              0 ****  ****    0 ROOT
