@<TRIPOS>MOLECULE
BBH
   51    53     1     0     0
SMALL
bcc


@<TRIPOS>ATOM
      1 C1         -0.2040   -0.0810   -0.1110 ca        1 BBH     -0.521500
      2 C2          1.1990   -0.1890    0.0090 ca        1 BBH      0.037500
      3 C3          1.8280   -0.1860    1.2350 ca        1 BBH     -0.208500
      4 C4          1.0460   -0.0720    2.4130 ca        1 BBH      0.241100
      5 C5         -0.3540    0.0410    2.3230 ca        1 BBH     -0.208500
      6 C6         -0.9550    0.0350    1.0760 ca        1 BBH      0.037500
      7 O7          1.7520   -0.0810    3.5760 os        1 BBH     -0.297900
      8 C8          1.0120    0.0490    4.7940 c3        1 BBH      0.103700
      9 S9         -0.9370   -0.0240   -1.5600 sy        1 BBH      1.548200
     10 O10        -2.2310    0.5030   -1.4780 o         1 BBH     -0.668800
     11 O11        -0.0750    0.5500   -2.5560 o         1 BBH     -0.668800
     12 N12        -1.0470   -1.6030   -2.0980 n3        1 BBH     -0.812500
     13 C13        -0.1020   -2.3220   -2.9160 c3        1 BBH      0.210500
     14 C14         0.6280   -3.4270   -2.1330 c3        1 BBH     -0.184400
     15 C15        -0.3240   -4.2530   -1.2810 c         1 BBH      0.695500
     16 N16        -1.5160   -3.6740   -0.8520 n         1 BBH     -0.475800
     17 C17        -2.0480   -2.5050   -1.5420 c3        1 BBH      0.375200
     18 O18         0.0220   -5.3910   -0.9220 o         1 BBH     -0.587500
     19 C           0.9680   -1.4310   -3.5600 c         1 BBH      0.547100
     20 NA          0.5580   -0.6970   -4.8400 n4        1 BBH     -0.454300
     21 OA          1.6040   -0.4310   -5.6530 oh        1 BBH     -0.359300
     22 OB          2.1240   -1.2670   -3.2160 o         1 BBH     -0.401100
     23 C7         -2.4950   -4.4760   -0.1380 c3        1 BBH      0.133300
     24 C9         -4.0030   -7.1280   -2.3850 ca        1 BBH     -0.128500
     25 C10        -3.0890   -6.4140   -1.6130 ca        1 BBH     -0.117000
     26 C11        -3.4720   -5.2130   -1.0070 ca        1 BBH     -0.149300
     27 C12        -4.7730   -4.7320   -1.1780 ca        1 BBH     -0.117000
     28 C16        -5.6870   -5.4490   -1.9490 ca        1 BBH     -0.128500
     29 C18        -5.3020   -6.6470   -2.5540 ca        1 BBH     -0.110000
     30 HC21        1.8090   -0.2620   -0.9100 ha        1 BBH      0.151500
     31 HC31        2.9220   -0.2650    1.3240 ha        1 BBH      0.171000
     32 HC51       -0.9700    0.1390    3.2300 ha        1 BBH      0.171000
     33 HC61       -2.0550    0.1410    1.0050 ha        1 BBH      0.151500
     34 HC81        1.8140    0.0200    5.5770 h1        1 BBH      0.066033
     35 HC82        0.4690    1.0240    4.8160 h1        1 BBH      0.066033
     36 HC83        0.3080   -0.8090    4.9130 h1        1 BBH      0.066033
     37 H131       -0.6800   -2.8250   -3.7590 h1        1 BBH      0.090700
     38 H141        1.1490   -4.1170   -2.8470 hc        1 BBH      0.107200
     39 H142        1.4030   -2.9880   -1.4480 hc        1 BBH      0.107200
     40 H171       -2.6700   -1.9140   -0.7960 h2        1 BBH      0.077700
     41 H172       -2.7320   -2.8450   -2.3840 h2        1 BBH      0.077700
     42 HNA        -0.0920   -1.2750   -5.4040 hn        1 BBH      0.501300
     43 HOA         2.3270   -0.0250   -5.1140 ho        1 BBH      0.487000
     44 HC71       -3.0520   -3.7820    0.5570 h1        1 BBH      0.082200
     45 HC72       -1.9230   -5.2230    0.4880 h1        1 BBH      0.082200
     46 H121       -5.0850   -3.7950   -0.6920 ha        1 BBH      0.140500
     47 H161       -6.7140   -5.0740   -2.0740 ha        1 BBH      0.143500
     48 H181       -6.0270   -7.2160   -3.1570 ha        1 BBH      0.144000
     49 HC91       -3.7030   -8.0780   -2.8530 ha        1 BBH      0.143500
     50 HA2         0.0830    0.1980   -4.5600 hn        1 BBH      0.501300
     51 H101       -2.0640   -6.7950   -1.4660 ha        1 BBH      0.140500
@<TRIPOS>BOND
     1    1    2 ar  
     2    1    6 ar  
     3    1    9 1   
     4    2    3 ar  
     5    2   30 1   
     6    3    4 ar  
     7    3   31 1   
     8    4    5 ar  
     9    4    7 1   
    10    5    6 ar  
    11    5   32 1   
    12    6   33 1   
    13    7    8 1   
    14    8   34 1   
    15    8   35 1   
    16    8   36 1   
    17    9   10 2   
    18    9   11 2   
    19    9   12 1   
    20   12   13 1   
    21   12   17 1   
    22   13   14 1   
    23   13   19 1   
    24   13   37 1   
    25   14   15 1   
    26   14   38 1   
    27   14   39 1   
    28   15   16 1   
    29   15   18 2   
    30   16   17 1   
    31   16   23 1   
    32   17   40 1   
    33   17   41 1   
    34   19   20 1   
    35   19   22 2   
    36   20   21 1   
    37   20   42 1   
    38   20   50 1   
    39   21   43 1   
    40   23   26 1   
    41   23   44 1   
    42   23   45 1   
    43   24   25 ar  
    44   24   29 ar  
    45   24   49 1   
    46   25   26 ar  
    47   25   51 1   
    48   26   27 ar  
    49   27   28 ar  
    50   27   46 1   
    51   28   29 ar  
    52   28   47 1   
    53   29   48 1   
@<TRIPOS>SUBSTRUCTURE
     1 BBH         1 TEMP              0 ****  ****    0 ROOT
