@<TRIPOS>MOLECULE
BBI
   61    63     1     0     0
SMALL
bcc


@<TRIPOS>ATOM
      1 CAA        -1.5020    1.1750    1.4370 c3        1 BBI     -0.094100
      2 CAB        -0.0950    1.0580    0.9100 c3        1 BBI     -0.079400
      3 CAC         0.8500    0.5530    1.9800 c3        1 BBI     -0.075400
      4 CAD         2.2610    0.4300    1.4320 c3        1 BBI     -0.048200
      5 CAE         3.2150   -0.0190    2.4630 cc        1 BBI      0.161900
      6 OAF         3.2920    0.7770    3.6090 os        1 BBI     -0.182200
      7 CAG         4.2420    0.1720    4.4410 ca        1 BBI      0.051100
      8 CAH         4.6160    0.6060    5.7070 ca        1 BBI     -0.102000
      9 CAI         5.5680   -0.1690    6.3680 ca        1 BBI     -0.112000
     10 CAJ         6.1060   -1.3230    5.7800 ca        1 BBI     -0.134000
     11 CAK         5.7230   -1.7450    4.5090 ca        1 BBI     -0.107000
     12 CAL         4.7820   -0.9910    3.8100 ca        1 BBI     -0.077800
     13 CAM         4.1090   -1.0850    2.5220 cd        1 BBI     -0.259400
     14 CAN         4.2660   -2.1010    1.4970 c         1 BBI      0.617900
     15 OAO         3.3560   -2.4070    0.7130 o         1 BBI     -0.522100
     16 CAP         5.5880   -2.7780    1.3720 ca        1 BBI     -0.146600
     17 CBE         6.7820   -2.0830    1.5760 ca        1 BBI     -0.027000
     18 CBC         8.0120   -2.7150    1.3840 ca        1 BBI     -0.002600
     19 IBD         9.6850   -1.6110    1.6680 i         1 BBI     -0.111900
     20 CAQ         5.6210   -4.1190    0.9700 ca        1 BBI     -0.027000
     21 CAR         6.8380   -4.7760    0.7860 ca        1 BBI     -0.002600
     22 IAS         6.7740   -6.7120    0.2000 i         1 BBI     -0.111900
     23 CAT         8.0290   -4.0620    0.9890 ca        1 BBI      0.146100
     24 OAU         9.2480   -4.6630    0.6760 os        1 BBI     -0.374900
     25 CAV         9.8590   -5.3630    1.7670 c3        1 BBI      0.104400
     26 CAW        10.8360   -6.3610    1.1370 c3        1 BBI      0.102800
     27 NAX        11.8030   -5.7310    0.1820 nx        1 BBI     -0.688400
     28 CBA        12.9220   -5.0510    0.9170 c3        1 BBI      0.112300
     29 CBB        13.6240   -3.9870    0.0980 c3        1 BBI     -0.133100
     30 CAY        12.3350   -6.7470   -0.7890 c3        1 BBI      0.112300
     31 CAZ        11.3740   -7.0650   -1.9150 c3        1 BBI     -0.133100
     32 H1         -1.5440    1.8850    2.2970 hc        1 BBI      0.038033
     33 H2         -1.8790    0.1820    1.7830 hc        1 BBI      0.038033
     34 H3         -2.1840    1.5500    0.6360 hc        1 BBI      0.038033
     35 H4         -0.0770    0.3570    0.0330 hc        1 BBI      0.042200
     36 H5          0.2540    2.0590    0.5420 hc        1 BBI      0.042200
     37 H6          0.5020   -0.4470    2.3500 hc        1 BBI      0.055700
     38 H7          0.8480    1.2550    2.8540 hc        1 BBI      0.055700
     39 H8          2.5990    1.4280    1.0390 hc        1 BBI      0.084200
     40 H9          2.2790   -0.3090    0.5830 hc        1 BBI      0.084200
     41 H10         4.1780    1.5060    6.1580 ha        1 BBI      0.162000
     42 H11         5.8980    0.1280    7.3760 ha        1 BBI      0.146000
     43 H12         6.8460   -1.9120    6.3430 ha        1 BBI      0.135000
     44 H13         6.1480   -2.6560    4.0670 ha        1 BBI      0.131000
     45 H14         6.7380   -1.0250    1.8950 ha        1 BBI      0.182000
     46 H15         4.6620   -4.6410    0.7880 ha        1 BBI      0.182000
     47 H16         9.1000   -5.9360    2.3630 h1        1 BBI      0.084200
     48 H17        10.3770   -4.6190    2.4280 h1        1 BBI      0.084200
     49 H18        10.2410   -7.1290    0.5620 hx        1 BBI      0.112200
     50 H19        11.4160   -6.8760    1.9540 hx        1 BBI      0.112200
     51 H21        12.4790   -4.5740    1.8390 hx        1 BBI      0.099700
     52 H22        13.6530   -5.8450    1.2400 hx        1 BBI      0.099700
     53 H23        12.9150   -3.1940   -0.2450 hc        1 BBI      0.078700
     54 H24        14.1440   -4.4160   -0.7930 hc        1 BBI      0.078700
     55 H25        14.3960   -3.5050    0.7510 hc        1 BBI      0.078700
     56 H26        12.5840   -7.6800   -0.2080 hx        1 BBI      0.099700
     57 H27        13.2910   -6.3310   -1.2220 hx        1 BBI      0.099700
     58 H28        10.4310   -7.5350   -1.5440 hc        1 BBI      0.078700
     59 H29        11.8790   -7.7910   -2.6030 hc        1 BBI      0.078700
     60 H30        11.1110   -6.1520   -2.5050 hc        1 BBI      0.078700
     61 HAX1       11.2860   -5.0140   -0.3540 hn        1 BBI      0.468800
@<TRIPOS>BOND
     1    1    2 1   
     2    1   32 1   
     3    1   33 1   
     4    1   34 1   
     5    2    3 1   
     6    2   35 1   
     7    2   36 1   
     8    3    4 1   
     9    3   37 1   
    10    3   38 1   
    11    4    5 1   
    12    4   39 1   
    13    4   40 1   
    14    5    6 1   
    15    5   13 2   
    16    6    7 1   
    17    7    8 ar  
    18    7   12 ar  
    19    8    9 ar  
    20    8   41 1   
    21    9   10 ar  
    22    9   42 1   
    23   10   11 ar  
    24   10   43 1   
    25   11   12 ar  
    26   11   44 1   
    27   12   13 1   
    28   13   14 1   
    29   14   15 2   
    30   14   16 1   
    31   16   17 ar  
    32   16   20 ar  
    33   17   18 ar  
    34   17   45 1   
    35   18   19 1   
    36   18   23 ar  
    37   20   21 ar  
    38   20   46 1   
    39   21   22 1   
    40   21   23 ar  
    41   23   24 1   
    42   24   25 1   
    43   25   26 1   
    44   25   47 1   
    45   25   48 1   
    46   26   27 1   
    47   26   49 1   
    48   26   50 1   
    49   27   28 1   
    50   27   30 1   
    51   27   61 1   
    52   28   29 1   
    53   28   51 1   
    54   28   52 1   
    55   29   53 1   
    56   29   54 1   
    57   29   55 1   
    58   30   31 1   
    59   30   56 1   
    60   30   57 1   
    61   31   58 1   
    62   31   59 1   
    63   31   60 1   
@<TRIPOS>SUBSTRUCTURE
     1 BBI         1 TEMP              0 ****  ****    0 ROOT
