@<TRIPOS>MOLECULE
BBL
   28    26     1     0     0
SMALL
bcc


@<TRIPOS>ATOM
      1 OG2        -3.4510    2.9200   -2.9240 o         1 BBL     -0.561500
      2 CB2        -2.2080    2.7280   -2.6990 c2        1 BBL      0.331000
      3 OG1        -1.4330    2.3860   -3.6510 o         1 BBL     -0.561500
      4 CA         -1.6410    2.9610   -1.2980 c3        1 BBL     -0.088000
      5 CBZ        -1.0920    4.3430   -1.2050 c3        1 BBL     -0.193000
      6 N          -0.6130    2.0310   -1.0490 n         1 BBL     -0.281000
      7 C          -0.9380    0.7050   -0.6020 c2        1 BBL      0.371000
      8 O          -2.0480    0.2750   -0.7630 o         1 BBL     -0.430000
      9 OEZ        -0.0270   -0.0060    0.1490 os        1 BBL     -0.298000
     10 CB          0.1180   -1.3560   -0.2480 c3        1 BBL      0.027000
     11 CG          0.8420   -2.1270    0.8360 c2        1 BBL     -0.085000
     12 CD1         1.9780   -1.5780    1.4430 c2        1 BBL     -0.104000
     13 CE1         2.7020   -2.3220    2.3790 c1        1 BBL     -0.132000
     14 CZ          2.2890   -3.6280    2.7140 c1        1 BBL     -0.140500
     15 CE2         1.1570   -4.1780    2.1100 c1        1 BBL     -0.140500
     16 CD2         0.4290   -3.4270    1.1680 c1        1 BBL     -0.134000
     17 HA         -2.3510    2.8480   -0.6370 h1        1 BBL      0.098000
     18 HBZ1       -1.8070    4.9890   -1.3650 hc        1 BBL      0.068667
     19 HBZ2       -0.4030    4.4590   -1.8630 hc        1 BBL      0.068667
     20 HBZ3       -0.7170    4.4850   -0.3080 hc        1 BBL      0.068667
     21 HN          0.2920    2.3030   -1.1050 hn        1 BBL      0.249000
     22 HB1        -0.8020   -1.7660   -0.4010 h1        1 BBL      0.109000
     23 HB2         0.6550   -1.4000   -1.1110 h1        1 BBL      0.109000
     24 HD1         2.2620   -0.6830    1.2140 ha        1 BBL      0.159000
     25 HE1         3.4950   -1.9450    2.7860 ha        1 BBL      0.126000
     26 HZ          2.7850   -4.1370    3.3550 ha        1 BBL      0.119000
     27 HE2         0.8840   -5.0730    2.3270 ha        1 BBL      0.119000
     28 HD2        -0.3550   -3.8070    0.7490 ha        1 BBL      0.125000
@<TRIPOS>BOND
     1    1    2 1   
     2    2    3 1   
     3    2    4 1   
     4    4    5 1   
     5    4    6 1   
     6    4   17 1   
     7    5   18 1   
     8    5   19 1   
     9    5   20 1   
    10    6    7 1   
    11    6   21 1   
    12    7    8 1   
    13    7    9 1   
    14    9   10 1   
    15   10   11 1   
    16   10   22 1   
    17   10   23 1   
    18   11   12 1   
    19   11   16 1   
    20   12   13 1   
    21   12   24 1   
    22   13   25 1   
    23   14   15 1   
    24   14   26 1   
    25   15   27 1   
    26   16   28 1   
@<TRIPOS>SUBSTRUCTURE
     1 BBL         1 TEMP              0 ****  ****    0 ROOT
