@<TRIPOS>MOLECULE
BBL
   29    29     1     0     0
SMALL
bcc


@<TRIPOS>ATOM
      1 OG2        -0.0110    0.5990    0.6720 o         1 BBL     -0.751300
      2 CB2         1.0170   -0.0520    0.4370 c         1 BBL      0.940600
      3 OG1         1.2620   -0.9070   -0.4550 o         1 BBL     -0.751300
      4 CA          2.2390    0.2150    1.4560 c3        1 BBL     -0.062500
      5 CBZ         2.4460    1.6930    1.6630 c3        1 BBL     -0.108100
      6 N           3.4570   -0.4770    0.9030 n4        1 BBL     -0.618800
      7 C           4.3200   -1.0920    1.9160 c         1 BBL      0.604100
      8 O           3.9480   -1.7680    2.8710 o         1 BBL     -0.456000
      9 OEZ         5.6310   -0.8300    1.6750 os        1 BBL     -0.423900
     10 CB          6.5710   -1.4100    2.6290 c3        1 BBL      0.203700
     11 CG          7.9230   -0.9870    2.1750 ca        1 BBL     -0.124300
     12 CD1         8.5010    0.1790    2.6880 ca        1 BBL     -0.096000
     13 CE1         9.7830    0.5550    2.2880 ca        1 BBL     -0.132000
     14 CZ         10.4870   -0.2280    1.3730 ca        1 BBL     -0.103000
     15 CE2         9.9100   -1.3880    0.8560 ca        1 BBL     -0.132000
     16 CD2         8.6290   -1.7680    1.2530 ca        1 BBL     -0.096000
     17 HA          1.9630   -0.2940    2.4220 hx        1 BBL      0.107700
     18 HBZ1        1.4480    2.1230    1.9450 hc        1 BBL      0.061033
     19 HBZ2        3.1790    1.9050    2.4780 hc        1 BBL      0.061033
     20 HBZ3        2.7820    2.2020    0.7270 hc        1 BBL      0.061033
     21 HN          3.0660   -1.2260    0.2630 hn        1 BBL      0.484800
     22 HB1         6.4390   -2.5230    2.6050 h1        1 BBL      0.073700
     23 HB2         6.3150   -1.0140    3.6470 h1        1 BBL      0.073700
     24 HD1         7.9460    0.7980    3.4090 ha        1 BBL      0.137500
     25 HE1        10.2380    1.4700    2.6950 ha        1 BBL      0.142000
     26 HZ         11.4990    0.0700    1.0580 ha        1 BBL      0.141000
     27 HE2        10.4650   -2.0050    0.1330 ha        1 BBL      0.142000
     28 HD2         8.1730   -2.6830    0.8450 ha        1 BBL      0.137500
     29 H2          4.0010    0.1780    0.3350 hn        1 BBL      0.484800
@<TRIPOS>BOND
     1    1    2 1   
     2    2    3 1   
     3    2    4 1   
     4    4    5 1   
     5    4    6 1   
     6    4   17 1   
     7    5   18 1   
     8    5   19 1   
     9    5   20 1   
    10    6    7 1   
    11    6   21 1   
    12    6   29 1   
    13    7    8 2   
    14    7    9 1   
    15    9   10 1   
    16   10   11 1   
    17   10   22 1   
    18   10   23 1   
    19   11   12 ar  
    20   11   16 ar  
    21   12   13 ar  
    22   12   24 1   
    23   13   14 ar  
    24   13   25 1   
    25   14   15 ar  
    26   14   26 1   
    27   15   16 ar  
    28   15   27 1   
    29   16   28 1   
@<TRIPOS>SUBSTRUCTURE
     1 BBL         1 TEMP              0 ****  ****    0 ROOT
