@<TRIPOS>MOLECULE
BBL
   29    29     1     0     0
SMALL
bcc


@<TRIPOS>ATOM
      1 OG2        -0.0120    0.5410    0.6350 o         1 BBL     -0.751300
      2 CB2         1.0280   -0.0870    0.3940 c         1 BBL      0.940600
      3 OG1         1.2970   -0.9120   -0.5200 o         1 BBL     -0.751300
      4 CA          2.2340    0.1680    1.4350 c3        1 BBL     -0.062500
      5 CBZ         2.4160    1.6430    1.6880 c3        1 BBL     -0.108100
      6 N           3.4690   -0.4880    0.8760 ny        1 BBL     -0.618800
      7 C           4.3300   -1.1190    1.8810 c         1 BBL      0.604100
      8 O           3.9580   -1.8290    2.8110 o         1 BBL     -0.456000
      9 OEZ         5.6390   -0.8290    1.6630 os        1 BBL     -0.423900
     10 CB          6.5770   -1.4230    2.6110 c3        1 BBL      0.203700
     11 CG          7.9280   -0.9700    2.1840 ca        1 BBL     -0.124300
     12 CD1         8.4820    0.1940    2.7290 ca        1 BBL     -0.096000
     13 CE1         9.7620    0.5980    2.3530 ca        1 BBL     -0.132000
     14 CZ         10.4900   -0.1540    1.4300 ca        1 BBL     -0.103000
     15 CE2         9.9370   -1.3120    0.8820 ca        1 BBL     -0.132000
     16 CD2         8.6570   -1.7200    1.2550 ca        1 BBL     -0.096000
     17 HA          1.9550   -0.3740    2.3820 hx        1 BBL      0.107700
     18 HBZ1        1.4080    2.0480    1.9700 hc        1 BBL      0.061033
     19 HBZ2        3.1350    1.8420    2.5170 hc        1 BBL      0.061033
     20 HBZ3        2.7540    2.1840    0.7710 hc        1 BBL      0.061033
     21 HN          3.0970   -1.2240    0.2100 hn        1 BBL      0.484800
     22 HB1         6.4600   -2.5370    2.5570 h1        1 BBL      0.073700
     23 HB2         6.3050   -1.0580    3.6370 h1        1 BBL      0.073700
     24 HD1         7.9080    0.7890    3.4550 ha        1 BBL      0.137500
     25 HE1        10.1970    1.5120    2.7850 ha        1 BBL      0.142000
     26 HZ         11.5000    0.1660    1.1340 ha        1 BBL      0.141000
     27 HE2        10.5100   -1.9050    0.1530 ha        1 BBL      0.142000
     28 HD2         8.2210   -2.6320    0.8210 ha        1 BBL      0.137500
     29 H2          4.0100    0.1920    0.3340 hn        1 BBL      0.484800
@<TRIPOS>BOND
     1    1    2 1   
     2    2    3 1   
     3    2    4 1   
     4    4    5 1   
     5    4    6 1   
     6    4   17 1   
     7    5   18 1   
     8    5   19 1   
     9    5   20 1   
    10    6    7 1   
    11    6   21 1   
    12    6   29 1   
    13    7    8 2   
    14    7    9 1   
    15    9   10 1   
    16   10   11 1   
    17   10   22 1   
    18   10   23 1   
    19   11   12 ar  
    20   11   16 ar  
    21   12   13 ar  
    22   12   24 1   
    23   13   14 ar  
    24   13   25 1   
    25   14   15 ar  
    26   14   26 1   
    27   15   16 ar  
    28   15   27 1   
    29   16   28 1   
@<TRIPOS>SUBSTRUCTURE
     1 BBL         1 TEMP              0 ****  ****    0 ROOT
