@<TRIPOS>MOLECULE
BBL
   29    29     1     0     0
SMALL
bcc


@<TRIPOS>ATOM
      1 OG2        -0.0230    0.5470    0.6950 o         1 BBL     -0.751300
      2 CB2         1.0120   -0.0890    0.4520 c         1 BBL      0.940600
      3 OG1         1.2670   -0.9310   -0.4510 o         1 BBL     -0.751300
      4 CA          2.2320    0.1810    1.4720 c3        1 BBL     -0.062500
      5 CBZ         2.4210    1.6600    1.6960 c3        1 BBL     -0.108100
      6 N           3.4580   -0.4890    0.9090 n4        1 BBL     -0.618800
      7 C           4.3300   -1.1050    1.9150 c         1 BBL      0.604100
      8 O           3.9670   -1.7950    2.8620 o         1 BBL     -0.456000
      9 OEZ         5.6370   -0.8250    1.6730 os        1 BBL     -0.423900
     10 CB          6.5850   -1.4040    2.6200 c3        1 BBL      0.203700
     11 CG          7.9320   -0.9680    2.1630 ca        1 BBL     -0.124300
     12 CD1         8.4990    0.2060    2.6710 ca        1 BBL     -0.096000
     13 CE1         9.7750    0.5940    2.2680 ca        1 BBL     -0.132000
     14 CZ         10.4880   -0.1840    1.3550 ca        1 BBL     -0.103000
     15 CE2         9.9230   -1.3530    0.8430 ca        1 BBL     -0.132000
     16 CD2         8.6460   -1.7450    1.2440 ca        1 BBL     -0.096000
     17 HA          1.9640   -0.3420    2.4330 hx        1 BBL      0.107700
     18 HBZ1        3.1530    1.8720    2.5120 hc        1 BBL      0.061033
     19 HBZ2        1.4190    2.0740    1.9840 hc        1 BBL      0.061033
     20 HBZ3        2.7490    2.1830    0.7650 hc        1 BBL      0.061033
     21 HN          3.0750   -1.2360    0.2610 hn        1 BBL      0.484800
     22 HB1         6.4620   -2.5180    2.5900 h1        1 BBL      0.073700
     23 HB2         6.3310   -1.0160    3.6410 h1        1 BBL      0.073700
     24 HD1         7.9370    0.8220    3.3900 ha        1 BBL      0.137500
     25 HE1        10.2210    1.5160    2.6710 ha        1 BBL      0.142000
     26 HZ         11.4950    0.1240    1.0380 ha        1 BBL      0.141000
     27 HE2        10.4830   -1.9660    0.1220 ha        1 BBL      0.142000
     28 HD2         8.2000   -2.6660    0.8390 ha        1 BBL      0.137500
     29 H2          3.9930    0.1800    0.3480 hn        1 BBL      0.484800
@<TRIPOS>BOND
     1    1    2 1   
     2    2    3 1   
     3    2    4 1   
     4    4    5 1   
     5    4    6 1   
     6    4   17 1   
     7    5   18 1   
     8    5   19 1   
     9    5   20 1   
    10    6    7 1   
    11    6   21 1   
    12    6   29 1   
    13    7    8 2   
    14    7    9 1   
    15    9   10 1   
    16   10   11 1   
    17   10   22 1   
    18   10   23 1   
    19   11   12 ar  
    20   11   16 ar  
    21   12   13 ar  
    22   12   24 1   
    23   13   14 ar  
    24   13   25 1   
    25   14   15 ar  
    26   14   26 1   
    27   15   16 ar  
    28   15   27 1   
    29   16   28 1   
@<TRIPOS>SUBSTRUCTURE
     1 BBL         1 TEMP              0 ****  ****    0 ROOT
