@<TRIPOS>MOLECULE
BBL
   28    28     1     0     0
SMALL
bcc


@<TRIPOS>ATOM
      1 OG2         4.8530    0.6520    1.3790 o         1 BBL     -0.826800
      2 CB2         3.7690    0.8210    0.7620 c         1 BBL      0.910600
      3 OG1         3.1910    1.9290    0.5840 o         1 BBL     -0.826800
      4 CA          3.0970   -0.4790    0.1820 c3        1 BBL     -0.061300
      5 CBZ         4.0240   -1.0630   -0.8780 c3        1 BBL     -0.075100
      6 N           1.7630   -0.2150   -0.3470 n         1 BBL     -0.469900
      7 C           0.7070   -0.9850    0.0690 c         1 BBL      0.720100
      8 O           0.6710   -2.1610    0.4820 o         1 BBL     -0.625000
      9 OEZ        -0.5270   -0.3550   -0.1170 os        1 BBL     -0.463900
     10 CB         -1.6680   -1.1830    0.1320 c3        1 BBL      0.194700
     11 CG         -2.9000   -0.3610   -0.0570 ca        1 BBL     -0.076300
     12 CD1        -4.1280   -1.0210   -0.1950 ca        1 BBL     -0.117500
     13 CE1        -5.3030   -0.2900   -0.3470 ca        1 BBL     -0.137000
     14 CZ         -5.2620    1.1050   -0.3660 ca        1 BBL     -0.142000
     15 CE2        -4.0410    1.7650   -0.2330 ca        1 BBL     -0.137000
     16 CD2        -2.8620    1.0370   -0.0770 ca        1 BBL     -0.117500
     17 HA          3.0210   -1.2200    1.0310 h1        1 BBL      0.059700
     18 HBZ1        5.0370   -1.1670   -0.4180 hc        1 BBL      0.029367
     19 HBZ2        3.6700   -2.0630   -1.2230 hc        1 BBL      0.029367
     20 HBZ3        4.1010   -0.3860   -1.7620 hc        1 BBL      0.029367
     21 HN          1.5760    0.7680   -0.4540 hn        1 BBL      0.334500
     22 HB1        -1.6480   -2.0530   -0.5780 h1        1 BBL      0.056200
     23 HB2        -1.6140   -1.5740    1.1850 h1        1 BBL      0.056200
     24 HD1        -4.1600   -2.1210   -0.1830 ha        1 BBL      0.145500
     25 HE1        -6.2640   -0.8130   -0.4530 ha        1 BBL      0.123500
     26 HZ         -6.1900    1.6810   -0.4870 ha        1 BBL      0.119000
     27 HE2        -4.0050    2.8640   -0.2500 ha        1 BBL      0.123500
     28 HD2        -1.8940    1.5540    0.0250 ha        1 BBL      0.145500
@<TRIPOS>BOND
     1    1    2 1   
     2    2    3 1   
     3    2    4 1   
     4    4    5 1   
     5    4    6 1   
     6    4   17 1   
     7    5   18 1   
     8    5   19 1   
     9    5   20 1   
    10    6    7 1   
    11    6   21 1   
    12    7    8 2   
    13    7    9 1   
    14    9   10 1   
    15   10   11 1   
    16   10   22 1   
    17   10   23 1   
    18   11   12 ar  
    19   11   16 ar  
    20   12   13 ar  
    21   12   24 1   
    22   13   14 ar  
    23   13   25 1   
    24   14   15 ar  
    25   14   26 1   
    26   15   16 ar  
    27   15   27 1   
    28   16   28 1   
@<TRIPOS>SUBSTRUCTURE
     1 BBL         1 TEMP              0 ****  ****    0 ROOT
