@<TRIPOS>MOLECULE
BBM
   41    42     1     0     0
SMALL
bcc


@<TRIPOS>ATOM
      1 O1          2.8030    2.5080    0.0810 o         1 BBM     -0.373100
      2 C7          2.6190    1.3480   -0.2330 c         1 BBM      0.604700
      3 N2          2.1190    0.4100    0.8810 n4        1 BBM     -0.450300
      4 O4          2.8560    0.6800    1.9980 os        1 BBM     -0.206100
      5 C15         2.4630    0.0150    3.2250 c3        1 BBM      0.094400
      6 C16         1.0860    0.4690    3.6980 c3        1 BBM      0.104100
      7 C17         0.8340   -0.0180    5.1290 c3        1 BBM      0.103400
      8 O3         -0.5280    0.2780    5.3830 oh        1 BBM     -0.609800
      9 O2          0.1480   -0.0870    2.7850 oh        1 BBM     -0.658800
     10 C8          2.8360    0.6870   -1.5270 ca        1 BBM     -0.202600
     11 C9          4.0600    0.9270   -2.1590 ca        1 BBM     -0.019000
     12 C10         4.3730    0.3400   -3.3860 ca        1 BBM     -0.070900
     13 BR          6.0360    0.7050   -4.1510 br        1 BBM      0.027900
     14 C11         3.4220   -0.5020   -4.0010 ca        1 BBM      0.207900
     15 F1          3.6580   -1.1060   -5.1770 f         1 BBM     -0.066900
     16 C12         2.1580   -0.7230   -3.3770 ca        1 BBM      0.064900
     17 F2          1.2620   -1.5260   -3.9900 f         1 BBM     -0.091900
     18 C13         1.8440   -0.1240   -2.1310 ca        1 BBM      0.134600
     19 N           0.6240   -0.3850   -1.4580 nh        1 BBM     -0.627000
     20 C3         -0.4060    0.6010   -1.5110 ca        1 BBM      0.036600
     21 C26        -1.7030    0.2630   -1.0220 ca        1 BBM      0.103900
     22 F3         -1.9650   -0.9920   -0.5850 f         1 BBM     -0.126900
     23 C4         -0.1970    1.9100   -1.9800 ca        1 BBM     -0.154000
     24 C5         -1.2180    2.8540   -1.9450 ca        1 BBM     -0.076000
     25 C6         -2.4800    2.5200   -1.4510 ca        1 BBM      0.035900
     26 I          -3.9510    3.8990   -1.4070 i         1 BBM     -0.075900
     27 C1         -2.7240    1.2280   -0.9970 ca        1 BBM     -0.101000
     28 HN2         1.1060    0.5870    1.0600 hn        1 BBM      0.479800
     29 H151        2.5110   -1.0970    3.0930 h1        1 BBM      0.110700
     30 H152        3.2730    0.3780    3.9200 h1        1 BBM      0.110700
     31 H16         1.0040    1.5930    3.6580 h1        1 BBM      0.083700
     32 H171        1.0110   -1.1230    5.2070 h1        1 BBM      0.052200
     33 H172        1.5000    0.5290    5.8460 h1        1 BBM      0.052200
     34 HO3        -0.7220   -0.0130    6.2830 ho        1 BBM      0.438000
     35 HO2        -0.7280   -0.0570    3.1990 ho        1 BBM      0.470000
     36 H9          4.7930    1.5980   -1.6710 ha        1 BBM      0.186000
     37 HN          0.2540   -1.2920   -1.7090 hn        1 BBM      0.434800
     38 H4          0.7810    2.1990   -2.3990 ha        1 BBM      0.147000
     39 H5         -1.0170    3.8710   -2.3230 ha        1 BBM      0.168000
     40 H1         -3.7170    0.9300   -0.6170 ha        1 BBM      0.180000
     41 H22         2.2400   -0.5790    0.6070 hn        1 BBM      0.479800
@<TRIPOS>BOND
     1    1    2 2   
     2    2    3 1   
     3    2   10 1   
     4    3    4 1   
     5    3   28 1   
     6    3   41 1   
     7    4    5 1   
     8    5    6 1   
     9    5   29 1   
    10    5   30 1   
    11    6    7 1   
    12    6    9 1   
    13    6   31 1   
    14    7    8 1   
    15    7   32 1   
    16    7   33 1   
    17    8   34 1   
    18    9   35 1   
    19   10   11 ar  
    20   10   18 ar  
    21   11   12 ar  
    22   11   36 1   
    23   12   13 1   
    24   12   14 ar  
    25   14   15 1   
    26   14   16 ar  
    27   16   17 1   
    28   16   18 ar  
    29   18   19 1   
    30   19   20 1   
    31   19   37 1   
    32   20   21 ar  
    33   20   23 ar  
    34   21   22 1   
    35   21   27 ar  
    36   23   24 ar  
    37   23   38 1   
    38   24   25 ar  
    39   24   39 1   
    40   25   26 1   
    41   25   27 ar  
    42   27   40 1   
@<TRIPOS>SUBSTRUCTURE
     1 BBM         1 TEMP              0 ****  ****    0 ROOT
