@<TRIPOS>MOLECULE
BBM
   40    41     1     0     0
SMALL
bcc


@<TRIPOS>ATOM
      1 O1          2.2130   -1.3260   -1.8650 o         1 BBM     -0.546100
      2 C7          2.5280   -0.7090   -0.8350 c         1 BBM      0.622700
      3 N2          3.3440   -1.3060    0.1750 n         1 BBM     -0.347400
      4 O4          3.3180   -2.6440    0.2050 os        1 BBM     -0.271900
      5 C15         4.3260   -3.2790   -0.6350 c3        1 BBM      0.127400
      6 C16         4.1230   -4.7770   -0.4050 c3        1 BBM      0.142100
      7 C17         4.6990   -5.2050    0.9480 c3        1 BBM      0.091400
      8 O3          4.4590   -6.6000    1.0560 oh        1 BBM     -0.611800
      9 O2          4.8010   -5.4250   -1.4700 oh        1 BBM     -0.597800
     10 C8          2.1910    0.7300   -0.6260 ca        1 BBM     -0.201600
     11 C9          3.1940    1.6040   -0.2160 ca        1 BBM     -0.040000
     12 C10         2.9440    2.9590    0.0040 ca        1 BBM     -0.085900
     13 BR          4.3500    4.0510    0.5720 br        1 BBM     -0.035100
     14 C11         1.6420    3.4500   -0.2140 ca        1 BBM      0.166900
     15 F1          1.3280    4.7480   -0.0250 f         1 BBM     -0.099900
     16 C12         0.6140    2.5780   -0.6650 ca        1 BBM      0.049900
     17 F2         -0.6060    3.1120   -0.9030 f         1 BBM     -0.106900
     18 C13         0.8700    1.1920   -0.8760 ca        1 BBM      0.209600
     19 N          -0.1020    0.3360   -1.3910 nh        1 BBM     -0.642000
     20 C3         -1.3740    0.1510   -0.8400 ca        1 BBM      0.153600
     21 C26        -2.3090   -0.6980   -1.5140 ca        1 BBM      0.074900
     22 F3         -1.9590   -1.3280   -2.6630 f         1 BBM     -0.132900
     23 C4         -1.7940    0.7580    0.3610 ca        1 BBM     -0.165000
     24 C5         -3.0750    0.5530    0.8610 ca        1 BBM     -0.071000
     25 C6         -3.9770   -0.2720    0.1920 ca        1 BBM      0.008900
     26 I          -5.8330   -0.5620    0.9300 i         1 BBM     -0.126900
     27 C1         -3.5950   -0.8970   -0.9910 ca        1 BBM     -0.098000
     28 HN2         3.1150   -0.9760    1.1070 hn        1 BBM      0.303500
     29 H151        5.3480   -2.9500   -0.3230 h1        1 BBM      0.070200
     30 H152        4.1380   -3.0200   -1.7090 h1        1 BBM      0.070200
     31 H16         3.0270   -5.0320   -0.4420 h1        1 BBM      0.067700
     32 H171        4.1810   -4.6510    1.7730 h1        1 BBM      0.039200
     33 H172        5.8020   -5.0020    0.9870 h1        1 BBM      0.039200
     34 HO3         4.8310   -6.8830    1.8980 ho        1 BBM      0.410000
     35 HO2         4.7410   -6.3730   -1.2910 ho        1 BBM      0.425000
     36 H9          4.2180    1.2160   -0.0650 ha        1 BBM      0.171000
     37 HN          0.2300   -0.4030   -1.9850 hn        1 BBM      0.477800
     38 H4         -1.1050    1.4200    0.9100 ha        1 BBM      0.145000
     39 H5         -3.3650    1.0530    1.7990 ha        1 BBM      0.151000
     40 H1         -4.2870   -1.5560   -1.5420 ha        1 BBM      0.164000
@<TRIPOS>BOND
     1    1    2 2   
     2    2    3 1   
     3    2   10 1   
     4    3    4 1   
     5    3   28 1   
     6    4    5 1   
     7    5    6 1   
     8    5   29 1   
     9    5   30 1   
    10    6    7 1   
    11    6    9 1   
    12    6   31 1   
    13    7    8 1   
    14    7   32 1   
    15    7   33 1   
    16    8   34 1   
    17    9   35 1   
    18   10   11 ar  
    19   10   18 ar  
    20   11   12 ar  
    21   11   36 1   
    22   12   13 1   
    23   12   14 ar  
    24   14   15 1   
    25   14   16 ar  
    26   16   17 1   
    27   16   18 ar  
    28   18   19 1   
    29   19   20 1   
    30   19   37 1   
    31   20   21 ar  
    32   20   23 ar  
    33   21   22 1   
    34   21   27 ar  
    35   23   24 ar  
    36   23   38 1   
    37   24   25 ar  
    38   24   39 1   
    39   25   26 1   
    40   25   27 ar  
    41   27   40 1   
@<TRIPOS>SUBSTRUCTURE
     1 BBM         1 TEMP              0 ****  ****    0 ROOT
