@<TRIPOS>MOLECULE
BBM
   40    36     1     0     0
SMALL
bcc


@<TRIPOS>ATOM
      1 O1         -2.1270    0.7580    0.5800 o         1 BBM     -0.303000
      2 C7         -0.9030    0.6370    0.4920 c1        1 BBM      0.306000
      3 N2         -0.0920    0.6760    1.6750 n2        1 BBM     -0.204000
      4 O4         -0.2580    1.6820    2.5800 os        1 BBM     -0.189000
      5 C15         0.6520    1.5190    3.6520 c3        1 BBM     -0.021000
      6 C16         1.2230    2.8710    4.0420 c3        1 BBM      0.001000
      7 C17         2.7000    2.7140    4.4190 c3        1 BBM     -0.055000
      8 O3          3.2810    3.9850    4.5870 oh        1 BBM     -0.335000
      9 O2          0.5230    3.3690    5.1290 oh        1 BBM     -0.332000
     10 C8         -0.2420    0.5970   -0.8800 c2        1 BBM     -0.183000
     11 C9          0.3050    1.7620   -1.4240 c2        1 BBM     -0.040000
     12 C10         1.0290    1.7020   -2.6020 c1        1 BBM     -0.228000
     13 BR          1.6240    3.3280   -3.4510 br        1 BBM      0.103000
     14 C11         1.2120    0.4850   -3.2430 c2        1 BBM      0.134000
     15 F1          1.9820    0.4140   -4.3180 f         1 BBM     -0.065000
     16 C12         0.6650   -0.6820   -2.7000 c1        1 BBM      0.012000
     17 F2          0.8890   -1.8410   -3.2760 f         1 BBM     -0.072000
     18 C13        -0.0580   -0.6250   -1.5250 c2        1 BBM      0.133000
     19 N          -0.7340   -1.8220   -1.0240 n3        1 BBM     -0.275000
     20 C3         -1.4630   -2.6640   -1.9240 c2        1 BBM      0.071000
     21 C26        -2.1540   -2.1120   -2.9730 c2        1 BBM      0.042000
     22 F3         -2.3020   -0.8220   -3.0450 f         1 BBM     -0.097000
     23 C4         -1.4220   -4.0490   -1.7670 c1        1 BBM     -0.163000
     24 C5         -2.0770   -4.8660   -2.6660 c1        1 BBM     -0.072000
     25 C6         -2.7720   -4.3150   -3.7220 c1        1 BBM     -0.275000
     26 I          -3.7830   -5.5690   -5.0960 i         1 BBM      0.159000
     27 C1         -2.8140   -2.9360   -3.8800 c2        1 BBM     -0.098000
     28 HN2         0.5220   -0.0300    1.8540 hn        1 BBM      0.209000
     29 H151        0.1680    1.1140    4.4500 h1        1 BBM      0.116500
     30 H152        1.3550    0.9440    3.3850 h1        1 BBM      0.116500
     31 H16         1.1410    3.4970    3.2810 h1        1 BBM      0.128000
     32 H171        2.7720    2.2090    5.2550 h1        1 BBM      0.072000
     33 H172        3.1760    2.2280    3.6990 h1        1 BBM      0.072000
     34 HO3         4.1990    3.8940    4.6830 ho        1 BBM      0.207000
     35 HO2         0.5750    4.2270    5.1370 ho        1 BBM      0.223000
     36 H9          0.1210    2.5970   -1.0270 ha        1 BBM      0.168000
     37 HN         -0.6380   -2.0620   -0.1710 hn        1 BBM      0.275000
     38 H4         -0.9180   -4.4520   -0.9980 ha        1 BBM      0.145000
     39 H5         -2.0480   -5.8210   -2.5550 ha        1 BBM      0.151000
     40 H1         -3.3100   -2.5420   -4.6310 ha        1 BBM      0.164000
@<TRIPOS>BOND
     1    1    2 1   
     2    2   10 1   
     3    3    4 1   
     4    3   28 1   
     5    4    5 1   
     6    5    6 1   
     7    5   29 1   
     8    5   30 1   
     9    6    7 1   
    10    6    9 1   
    11    6   31 1   
    12    7    8 1   
    13    7   32 1   
    14    7   33 1   
    15    8   34 1   
    16    9   35 1   
    17   10   11 1   
    18   10   18 1   
    19   11   12 1   
    20   11   36 1   
    21   12   14 1   
    22   14   15 1   
    23   14   16 1   
    24   16   18 1   
    25   18   19 1   
    26   19   20 1   
    27   19   37 1   
    28   20   21 1   
    29   20   23 1   
    30   21   22 1   
    31   21   27 1   
    32   23   38 1   
    33   24   25 1   
    34   24   39 1   
    35   25   27 1   
    36   27   40 1   
@<TRIPOS>SUBSTRUCTURE
     1 BBM         1 TEMP              0 ****  ****    0 ROOT
