@<TRIPOS>MOLECULE
BBM
   41    42     1     0     0
SMALL
bcc


@<TRIPOS>ATOM
      1 O1          2.8000    2.5100    0.0790 o         1 BBM     -0.373100
      2 C7          2.6190    1.3480   -0.2300 c         1 BBM      0.604700
      3 N2          2.1170    0.4150    0.8870 ny        1 BBM     -0.450300
      4 O4          2.8490    0.6920    2.0060 os        1 BBM     -0.206100
      5 C15         2.4510    0.0350    3.2350 c3        1 BBM      0.094400
      6 C16         1.0710    0.4930    3.6980 c3        1 BBM      0.104100
      7 C17         0.8130    0.0160    5.1320 c3        1 BBM      0.103400
      8 O3         -0.5490    0.3140    5.3780 oh        1 BBM     -0.609800
      9 O2          0.1380   -0.0690    2.7850 oh        1 BBM     -0.658800
     10 C8          2.8430    0.6810   -1.5200 ca        1 BBM     -0.202600
     11 C9          4.0690    0.9210   -2.1480 ca        1 BBM     -0.019000
     12 C10         4.3890    0.3290   -3.3710 ca        1 BBM     -0.070900
     13 Br          6.0540    0.6940   -4.1310 br        1 BBM      0.027900
     14 C11         3.4420   -0.5190   -3.9860 ca        1 BBM      0.207900
     15 F1          3.6840   -1.1280   -5.1580 f         1 BBM     -0.066900
     16 C12         2.1770   -0.7400   -3.3650 ca        1 BBM      0.064900
     17 F2          1.2850   -1.5490   -3.9780 f         1 BBM     -0.091900
     18 C13         1.8560   -0.1360   -2.1240 ca        1 BBM      0.134600
     19 N           0.6340   -0.3970   -1.4540 nu        1 BBM     -0.627000
     20 C3         -0.3990    0.5850   -1.5170 ca        1 BBM      0.036600
     21 C26        -1.6980    0.2450   -1.0380 ca        1 BBM      0.103900
     22 F3         -1.9600   -1.0100   -0.6000 f         1 BBM     -0.126900
     23 C4         -0.1900    1.8940   -1.9870 ca        1 BBM     -0.154000
     24 C5         -1.2150    2.8350   -1.9610 ca        1 BBM     -0.076000
     25 C6         -2.4790    2.4980   -1.4770 ca        1 BBM      0.035900
     26 I          -3.9550    3.8730   -1.4460 i         1 BBM     -0.075900
     27 C1         -2.7230    1.2060   -1.0220 ca        1 BBM     -0.101000
     28 HN2         1.1030    0.5910    1.0600 hn        1 BBM      0.479800
     29 H151        3.2570    0.4030    3.9310 h1        1 BBM      0.110700
     30 H152        2.4990   -1.0770    3.1100 h1        1 BBM      0.110700
     31 H16         0.9900    1.6170    3.6500 h1        1 BBM      0.084700
     32 H171        0.9900   -1.0890    5.2180 h1        1 BBM      0.052200
     33 H172        1.4770    0.5670    5.8480 h1        1 BBM      0.052200
     34 HO3        -0.7470    0.0290    6.2800 ho        1 BBM      0.438000
     35 HO2        -0.7400   -0.0360    3.1960 ho        1 BBM      0.470000
     36 H9          4.7980    1.5970   -1.6610 ha        1 BBM      0.186000
     37 HN          0.2680   -1.3060   -1.7020 hn        1 BBM      0.433800
     38 H4          0.7900    2.1860   -2.3990 ha        1 BBM      0.147000
     39 H5         -1.0140    3.8520   -2.3400 ha        1 BBM      0.168000
     40 H1         -3.7180    0.9060   -0.6490 ha        1 BBM      0.180000
     41 H22         2.2410   -0.5750    0.6180 hn        1 BBM      0.479800
@<TRIPOS>BOND
     1    1    2 2   
     2    2    3 1   
     3    2   10 1   
     4    3    4 1   
     5    3   28 1   
     6    3   41 1   
     7    4    5 1   
     8    5    6 1   
     9    5   29 1   
    10    5   30 1   
    11    6    7 1   
    12    6    9 1   
    13    6   31 1   
    14    7    8 1   
    15    7   32 1   
    16    7   33 1   
    17    8   34 1   
    18    9   35 1   
    19   10   11 ar  
    20   10   18 ar  
    21   11   12 ar  
    22   11   36 1   
    23   12   13 1   
    24   12   14 ar  
    25   14   15 1   
    26   14   16 ar  
    27   16   17 1   
    28   16   18 ar  
    29   18   19 1   
    30   19   20 1   
    31   19   37 1   
    32   20   21 ar  
    33   20   23 ar  
    34   21   22 1   
    35   21   27 ar  
    36   23   24 ar  
    37   23   38 1   
    38   24   25 ar  
    39   24   39 1   
    40   25   26 1   
    41   25   27 ar  
    42   27   40 1   
@<TRIPOS>SUBSTRUCTURE
     1 BBM         1 TEMP              0 ****  ****    0 ROOT
