@<TRIPOS>MOLECULE
BBM
   42    43     1     0     0
SMALL
bcc


@<TRIPOS>ATOM
      1 O1         -0.4200   -0.4720    0.4500 o         1 BBM     -0.408100
      2 C7          0.7560   -0.3880    0.1250 c         1 BBM      0.583700
      3 N2          1.7280    0.0910    1.1920 n4        1 BBM     -0.448300
      4 O4          1.0270    0.8690    2.0730 os        1 BBM     -0.203100
      5 C15         1.7320    1.3030    3.2710 c3        1 BBM      0.091400
      6 C16         2.1640    0.1280    4.1410 c3        1 BBM      0.104100
      7 C17         2.6770    0.6320    5.4960 c3        1 BBM      0.108400
      8 O3          3.2840   -0.4990    6.0910 oh        1 BBM     -0.612800
      9 O2          3.1820   -0.5530    3.4140 oh        1 BBM     -0.684800
     10 C8          1.3370   -0.7180   -1.1880 ca        1 BBM     -0.167600
     11 C9          2.6490   -1.1830   -1.2790 ca        1 BBM     -0.045000
     12 C10         3.2340   -1.5700   -2.4940 ca        1 BBM     -0.038900
     13 BR          5.0010   -2.1600   -2.4890 br        1 BBM      0.096900
     14 C11         2.4600   -1.5050   -3.6680 ca        1 BBM      0.229900
     15 F1          2.9320   -1.8590   -4.8680 f         1 BBM     -0.026900
     16 C12         1.1000   -1.0490   -3.5930 ca        1 BBM      0.138900
     17 F2          0.3710   -1.0270   -4.7260 f         1 BBM     -0.063900
     18 C13         0.5370   -0.6450   -2.3620 ca        1 BBM      0.007600
     19 N          -0.8660   -0.2040   -2.3460 n4        1 BBM     -0.499800
     20 C3         -1.0620    1.2520   -2.3340 ca        1 BBM     -0.124400
     21 C26        -0.8100    2.0300   -3.4950 ca        1 BBM      0.174900
     22 F3         -0.3280    1.4510   -4.6150 f         1 BBM     -0.106900
     23 C4         -1.6000    1.8720   -1.1890 ca        1 BBM     -0.096000
     24 C5         -1.8650    3.2350   -1.2000 ca        1 BBM     -0.089000
     25 C6         -1.6060    4.0100   -2.3380 ca        1 BBM      0.090900
     26 I          -2.0050    5.9870   -2.3270 i         1 BBM     -0.001900
     27 C1         -1.0820    3.4120   -3.4800 ca        1 BBM     -0.106000
     28 HN2         2.4940    0.6420    0.7690 hn        1 BBM      0.489300
     29 H151        0.9120    1.9010    3.7670 h1        1 BBM      0.123200
     30 H152        2.5960    1.9560    2.9840 h1        1 BBM      0.123200
     31 H16         1.3060   -0.5870    4.3020 h1        1 BBM      0.087700
     32 H171        3.4350    1.4480    5.3540 h1        1 BBM      0.060200
     33 H172        1.8220    1.0050    6.1190 h1        1 BBM      0.060200
     34 HO3         3.5780   -0.2420    6.9760 ho        1 BBM      0.452000
     35 HO2         3.7120   -1.0730    4.0420 ho        1 BBM      0.489000
     36 H9          3.2730   -1.2930   -0.3720 ha        1 BBM      0.175000
     37 HN         -1.3400   -0.6130   -1.5220 hn        1 BBM      0.489800
     38 H4         -1.8400    1.2840   -0.2840 ha        1 BBM      0.168000
     39 H5         -2.3030    3.7010   -0.2970 ha        1 BBM      0.191000
     40 H1         -0.8810    3.9950   -4.3990 ha        1 BBM      0.209000
     41 H22         2.1360   -0.7350    1.6940 hn        1 BBM      0.489300
     42 HN3        -1.3250   -0.5690   -3.2030 hn        1 BBM      0.489800
@<TRIPOS>BOND
     1    1    2 2   
     2    2    3 1   
     3    2   10 1   
     4    3    4 1   
     5    3   28 1   
     6    3   41 1   
     7    4    5 1   
     8    5    6 1   
     9    5   29 1   
    10    5   30 1   
    11    6    7 1   
    12    6    9 1   
    13    6   31 1   
    14    7    8 1   
    15    7   32 1   
    16    7   33 1   
    17    8   34 1   
    18    9   35 1   
    19   10   11 ar  
    20   10   18 ar  
    21   11   12 ar  
    22   11   36 1   
    23   12   13 1   
    24   12   14 ar  
    25   14   15 1   
    26   14   16 ar  
    27   16   17 1   
    28   16   18 ar  
    29   18   19 1   
    30   19   20 1   
    31   19   37 1   
    32   19   42 1   
    33   20   21 ar  
    34   20   23 ar  
    35   21   22 1   
    36   21   27 ar  
    37   23   24 ar  
    38   23   38 1   
    39   24   25 ar  
    40   24   39 1   
    41   25   26 1   
    42   25   27 ar  
    43   27   40 1   
@<TRIPOS>SUBSTRUCTURE
     1 BBM         1 TEMP              0 ****  ****    0 ROOT
