@<TRIPOS>MOLECULE
BBP
   36    38     1     0     0
SMALL
bcc


@<TRIPOS>ATOM
      1 CL1         0.1560   -0.0880   -0.2020 cl        1 BBP     -0.093400
      2 C4          1.8550   -0.0660   -0.1190 ca        1 BBP      0.011400
      3 C3          2.4770    0.1760    1.1220 ca        1 BBP     -0.118000
      4 C2          3.8560    0.2010    1.2270 ca        1 BBP     -0.084000
      5 C5          2.6010   -0.2850   -1.2710 ca        1 BBP     -0.075000
      6 C6          3.9930   -0.2640   -1.1840 ca        1 BBP     -0.119100
      7 S1          5.1460   -0.4930   -2.3940 ss        1 BBP      0.030900
      8 C7          4.6380   -0.0180    0.0740 ca        1 BBP      0.118400
      9 N1          6.0350   -0.0160    0.0300 nc        1 BBP     -0.615100
     10 C1          6.4390   -0.2650   -1.2250 cd        1 BBP      0.587100
     11 N2          7.7760   -0.4700   -1.6010 nh        1 BBP     -0.418700
     12 C8          8.9100    0.0120   -0.7240 c3        1 BBP      0.384300
     13 O1          8.7200    1.2720   -0.1240 oh        1 BBP     -0.595800
     14 N3          8.0950   -0.3630   -2.9290 n2        1 BBP     -0.414400
     15 C10         9.3710   -0.0600   -3.0670 c2        1 BBP      0.356300
     16 C9         10.0800    0.1820   -1.7410 c3        1 BBP     -0.162700
     17 C11        10.1160    0.0040   -4.3700 c3        1 BBP     -0.070300
     18 C12         9.1880    0.3870   -5.5160 c3        1 BBP     -0.088433
     19 C13        11.2310    1.0370   -4.2710 c3        1 BBP     -0.088433
     20 C14        10.7180   -1.3710   -4.6440 c3        1 BBP     -0.088433
     21 H3          1.8560    0.3450    2.0160 ha        1 BBP      0.149000
     22 H2          4.3430    0.3880    2.1950 ha        1 BBP      0.153000
     23 H5          2.1070   -0.4730   -2.2370 ha        1 BBP      0.153000
     24 HO1         8.1110    1.1740    0.6200 ho        1 BBP      0.436000
     25 H9         10.5120    1.2100   -1.6850 hc        1 BBP      0.089700
     26 H9A        10.8750   -0.5780   -1.5620 hc        1 BBP      0.089700
     27 H312        8.6890    1.3610   -5.3030 hc        1 BBP      0.043144
     28 H212        9.7780    0.4840   -6.4600 hc        1 BBP      0.043144
     29 H112        8.4040   -0.3930   -5.6680 hc        1 BBP      0.043144
     30 H313       11.7600    1.1130   -5.2520 hc        1 BBP      0.043144
     31 H213       11.9740    0.7420   -3.4910 hc        1 BBP      0.043144
     32 H113       10.8130    2.0390   -4.0110 hc        1 BBP      0.043144
     33 H314        9.9120   -2.1360   -4.7430 hc        1 BBP      0.043144
     34 H214       11.4000   -1.6710   -3.8120 hc        1 BBP      0.043144
     35 H114       11.3030   -1.3410   -5.5940 hc        1 BBP      0.043144
     36 H8          9.0820   -0.7890    0.0440 h2        1 BBP      0.083700
@<TRIPOS>BOND
     1    1    2 1   
     2    2    3 ar  
     3    2    5 ar  
     4    3    4 ar  
     5    3   21 1   
     6    4    8 ar  
     7    4   22 1   
     8    5    6 ar  
     9    5   23 1   
    10    6    7 1   
    11    6    8 ar  
    12    7   10 1   
    13    8    9 1   
    14    9   10 2   
    15   10   11 1   
    16   11   12 1   
    17   11   14 1   
    18   12   13 1   
    19   12   16 1   
    20   12   36 1   
    21   13   24 1   
    22   14   15 2   
    23   15   16 1   
    24   15   17 1   
    25   16   25 1   
    26   16   26 1   
    27   17   18 1   
    28   17   19 1   
    29   17   20 1   
    30   18   27 1   
    31   18   28 1   
    32   18   29 1   
    33   19   30 1   
    34   19   31 1   
    35   19   32 1   
    36   20   33 1   
    37   20   34 1   
    38   20   35 1   
@<TRIPOS>SUBSTRUCTURE
     1 BBP         1 TEMP              0 ****  ****    0 ROOT
