@<TRIPOS>MOLECULE
BBP
   36    32     1     0     0
SMALL
bcc


@<TRIPOS>ATOM
      1 CL1        -7.9120    0.0750   -0.1120 cl        1 BBP     -0.015000
      2 C4         -6.2220    0.0150    0.3220 c2        1 BBP     -0.067000
      3 C3         -6.0160    0.3850    1.6670 c2        1 BBP     -0.118000
      4 C2         -4.7150    0.5630    2.1550 c1        1 BBP     -0.084000
      5 C5         -5.1270   -0.1750   -0.5290 c1        1 BBP     -0.075000
      6 C6         -3.8340    0.0010   -0.0470 c1        1 BBP     -0.346000
      7 S1         -2.4510   -0.1490   -0.7130 s         1 BBP      0.483000
      8 C7         -3.6260    0.3750    1.3130 c1        1 BBP     -0.021000
      9 N1         -2.0640    0.4790    1.5690 n1        1 BBP     -0.188000
     10 C1         -1.3860    0.1650    0.3550 c1        1 BBP     -0.077000
     11 N2          0.0020    0.4040    0.1130 n2        1 BBP     -0.195000
     12 C8          0.9600    1.2670    1.0080 c3        1 BBP      0.115000
     13 O1          0.5490    2.5010    1.0580 oh        1 BBP     -0.323000
     14 N3          0.7850   -0.3510   -0.5350 n2        1 BBP     -0.040000
     15 C10         2.0260    0.1110   -0.6050 c1        1 BBP     -0.082000
     16 C9          2.2960    1.1830    0.3200 c2        1 BBP     -0.166000
     17 C11         3.1440   -0.7950   -1.0550 c3        1 BBP      0.005000
     18 C12         2.8510   -1.3050   -2.4440 c3        1 BBP     -0.206333
     19 C13         4.4470   -0.0220   -1.0650 c3        1 BBP     -0.206333
     20 C14         3.2590   -1.9630   -0.1050 c3        1 BBP     -0.206333
     21 H3         -6.7810    0.5220    2.2580 ha        1 BBP      0.149000
     22 H2         -4.5730    0.8200    3.0890 ha        1 BBP      0.153000
     23 H5         -5.2700   -0.4380   -1.4590 DU        1 BBP      0.153000
     24 HO1         0.6680    2.8210    1.8820 ho        1 BBP      0.235000
     25 H9          3.0390    1.0890    0.9490 ha        1 BBP      0.129000
     26 H9A         2.5400    1.9930   -0.1650 ha        1 BBP      0.129000
     27 H312        2.0020   -1.7950   -2.4400 hc        1 BBP      0.082444
     28 H212        2.7870   -0.5490   -3.0620 hc        1 BBP      0.082444
     29 H112        3.5690   -1.9000   -2.7310 hc        1 BBP      0.082444
     30 H313        5.0990   -0.4880   -1.6310 hc        1 BBP      0.082444
     31 H213        4.2900    0.8760   -1.4200 hc        1 BBP      0.082444
     32 H113        4.7960    0.0430   -0.1500 hc        1 BBP      0.082444
     33 H314        3.9790   -2.5600   -0.4050 hc        1 BBP      0.082444
     34 H214        2.4110   -2.4560   -0.0880 hc        1 BBP      0.082444
     35 H114        3.4630   -1.6330    0.7970 hc        1 BBP      0.082444
     36 H8          1.0160    0.8900    1.9060 h2        1 BBP      0.123000
@<TRIPOS>BOND
     1    1    2 1   
     2    2    3 1   
     3    2    5 1   
     4    3    4 1   
     5    3   21 1   
     6    4   22 1   
     7    5    6 1   
     8    6    8 1   
     9    7   10 1   
    10    9   10 1   
    11   11   12 1   
    12   11   14 1   
    13   12   13 1   
    14   12   16 1   
    15   12   36 1   
    16   13   24 1   
    17   14   15 1   
    18   15   17 1   
    19   16   25 1   
    20   16   26 1   
    21   17   18 1   
    22   17   19 1   
    23   17   20 1   
    24   18   27 1   
    25   18   28 1   
    26   18   29 1   
    27   19   30 1   
    28   19   31 1   
    29   19   32 1   
    30   20   33 1   
    31   20   34 1   
    32   20   35 1   
@<TRIPOS>SUBSTRUCTURE
     1 BBP         1 TEMP              0 ****  ****    0 ROOT
