@<TRIPOS>MOLECULE
BBP
   36    38     1     0     0
SMALL
bcc


@<TRIPOS>ATOM
      1 CL1        -6.0290   -1.1040    0.0270 cl        1 BBP     -0.093400
      2 C4         -4.5060   -0.3490    0.0780 ca        1 BBP      0.011400
      3 C3         -4.4330    1.0530   -0.0370 ca        1 BBP     -0.118000
      4 C2         -3.2110    1.7010    0.0010 ca        1 BBP     -0.084000
      5 C5         -3.3610   -1.1230    0.2310 ca        1 BBP     -0.075000
      6 C6         -2.1200   -0.4870    0.2710 ca        1 BBP     -0.119100
      7 S1         -0.5800   -1.1520    0.4460 ss        1 BBP      0.031900
      8 C7         -2.0330    0.9410    0.1550 ca        1 BBP      0.118400
      9 N1         -0.7350    1.4590    0.2030 nc        1 BBP     -0.615100
     10 C1          0.1370    0.4520    0.3640 cd        1 BBP      0.587100
     11 N2          1.5120    0.6220    0.5890 nh        1 BBP     -0.418700
     12 C8          2.2010    1.9190    0.2260 c3        1 BBP      0.384300
     13 O1          1.7900    2.5050   -0.9880 oh        1 BBP     -0.595800
     14 N3          2.3360   -0.4520    0.3870 n2        1 BBP     -0.414400
     15 C10         3.5620   -0.0410    0.1230 c2        1 BBP      0.356300
     16 C9          3.6810    1.4720    0.0180 c3        1 BBP     -0.162700
     17 C11         4.7660   -0.9280   -0.0180 c3        1 BBP     -0.070300
     18 C12         4.3760   -2.3090   -0.5310 c3        1 BBP     -0.088433
     19 C13         5.7520   -0.2990   -0.9950 c3        1 BBP     -0.088433
     20 C14         5.4230   -1.0650    1.3520 c3        1 BBP     -0.088433
     21 H3         -5.3590    1.6370   -0.1570 ha        1 BBP      0.149000
     22 H2         -3.1510    2.7960   -0.0880 ha        1 BBP      0.153000
     23 H5         -3.4280   -2.2180    0.3200 ha        1 BBP      0.153000
     24 HO1         0.9330    2.9320   -0.8530 ho        1 BBP      0.436000
     25 H9          4.0570    1.7890   -0.9840 hc        1 BBP      0.089700
     26 H9A         4.3350    1.8840    0.8210 hc        1 BBP      0.089700
     27 H312        5.2950   -2.9260   -0.6830 hc        1 BBP      0.043144
     28 H212        3.7160   -2.8320    0.2020 hc        1 BBP      0.043144
     29 H112        3.8360   -2.2240   -1.5040 hc        1 BBP      0.043144
     30 H313        6.6300   -0.9760   -1.1300 hc        1 BBP      0.043144
     31 H213        5.2690   -0.1380   -1.9880 hc        1 BBP      0.043144
     32 H113        6.1190    0.6820   -0.6080 hc        1 BBP      0.043144
     33 H314        5.7140   -0.0610    1.7460 hc        1 BBP      0.043144
     34 H214        4.7210   -1.5460    2.0740 hc        1 BBP      0.043144
     35 H114        6.3400   -1.6960    1.2670 hc        1 BBP      0.043144
     36 H8          2.0490    2.6160    1.0930 h2        1 BBP      0.083700
@<TRIPOS>BOND
     1    1    2 1   
     2    2    3 ar  
     3    2    5 ar  
     4    3    4 ar  
     5    3   21 1   
     6    4    8 ar  
     7    4   22 1   
     8    5    6 ar  
     9    5   23 1   
    10    6    7 1   
    11    6    8 ar  
    12    7   10 1   
    13    8    9 1   
    14    9   10 2   
    15   10   11 1   
    16   11   12 1   
    17   11   14 1   
    18   12   13 1   
    19   12   16 1   
    20   12   36 1   
    21   13   24 1   
    22   14   15 2   
    23   15   16 1   
    24   15   17 1   
    25   16   25 1   
    26   16   26 1   
    27   17   18 1   
    28   17   19 1   
    29   17   20 1   
    30   18   27 1   
    31   18   28 1   
    32   18   29 1   
    33   19   30 1   
    34   19   31 1   
    35   19   32 1   
    36   20   33 1   
    37   20   34 1   
    38   20   35 1   
@<TRIPOS>SUBSTRUCTURE
     1 BBP         1 TEMP              0 ****  ****    0 ROOT
