@<TRIPOS>MOLECULE
BBP
   36    38     1     0     0
SMALL
bcc


@<TRIPOS>ATOM
      1 CL1         0.1610   -0.1000   -0.1980 cl        1 BBP     -0.093400
      2 C4          1.8600   -0.0710   -0.1150 ca        1 BBP      0.011400
      3 C3          2.4810    0.1840    1.1240 ca        1 BBP     -0.118000
      4 C2          3.8600    0.2150    1.2270 ca        1 BBP     -0.084000
      5 C5          2.6060   -0.2980   -1.2660 ca        1 BBP     -0.075000
      6 C6          3.9990   -0.2700   -1.1790 ca        1 BBP     -0.119100
      7 S1          5.1520   -0.5060   -2.3880 ss        1 BBP      0.031900
      8 C7          4.6430   -0.0110    0.0760 ca        1 BBP      0.118400
      9 N1          6.0400   -0.0040    0.0320 nc        1 BBP     -0.615100
     10 C1          6.4440   -0.2620   -1.2210 cd        1 BBP      0.587100
     11 N2          7.7820   -0.4650   -1.5960 nh        1 BBP     -0.418700
     12 C8          8.9140    0.0290   -0.7230 c3        1 BBP      0.384300
     13 O1          8.7200    1.2930   -0.1340 oh        1 BBP     -0.595800
     14 N3          8.1000   -0.3690   -2.9250 n2        1 BBP     -0.414400
     15 C10         9.3750   -0.0610   -3.0650 c2        1 BBP      0.356300
     16 C9         10.0840    0.1940   -1.7430 c3        1 BBP     -0.162700
     17 C11        10.1190   -0.0060   -4.3690 c3        1 BBP     -0.070300
     18 C12         9.1890    0.3640   -5.5190 c3        1 BBP     -0.088433
     19 C13        11.2310    1.0320   -4.2800 c3        1 BBP     -0.088433
     20 C14        10.7260   -1.3810   -4.6330 c3        1 BBP     -0.088433
     21 H3          1.8600    0.3590    2.0160 ha        1 BBP      0.149000
     22 H2          4.3470    0.4130    2.1940 ha        1 BBP      0.153000
     23 H5          2.1130   -0.4960   -2.2290 ha        1 BBP      0.153000
     24 HO1         8.1110    1.1990    0.6110 ho        1 BBP      0.436000
     25 H9         10.5110    1.2250   -1.6960 hc        1 BBP      0.089700
     26 H9A        10.8810   -0.5610   -1.5570 hc        1 BBP      0.089700
     27 H312        9.7780    0.4560   -6.4630 hc        1 BBP      0.043144
     28 H212        8.6860    1.3380   -5.3130 hc        1 BBP      0.043144
     29 H112        8.4080   -0.4200   -5.6640 hc        1 BBP      0.043144
     30 H313       10.8090    2.0340   -4.0290 hc        1 BBP      0.043144
     31 H213       11.9750    0.7460   -3.4970 hc        1 BBP      0.043144
     32 H113       11.7590    1.1010   -5.2610 hc        1 BBP      0.043144
     33 H314       11.3100   -1.3570   -5.5830 hc        1 BBP      0.043144
     34 H214        9.9220   -2.1500   -4.7240 hc        1 BBP      0.043144
     35 H114       11.4090   -1.6710   -3.7990 hc        1 BBP      0.043144
     36 H8          9.0900   -0.7650    0.0520 h2        1 BBP      0.083700
@<TRIPOS>BOND
     1    1    2 1   
     2    2    3 ar  
     3    2    5 ar  
     4    3    4 ar  
     5    3   21 1   
     6    4    8 ar  
     7    4   22 1   
     8    5    6 ar  
     9    5   23 1   
    10    6    7 1   
    11    6    8 ar  
    12    7   10 1   
    13    8    9 1   
    14    9   10 2   
    15   10   11 1   
    16   11   12 1   
    17   11   14 1   
    18   12   13 1   
    19   12   16 1   
    20   12   36 1   
    21   13   24 1   
    22   14   15 2   
    23   15   16 1   
    24   15   17 1   
    25   16   25 1   
    26   16   26 1   
    27   17   18 1   
    28   17   19 1   
    29   17   20 1   
    30   18   27 1   
    31   18   28 1   
    32   18   29 1   
    33   19   30 1   
    34   19   31 1   
    35   19   32 1   
    36   20   33 1   
    37   20   34 1   
    38   20   35 1   
@<TRIPOS>SUBSTRUCTURE
     1 BBP         1 TEMP              0 ****  ****    0 ROOT
