@<TRIPOS>MOLECULE
BBP
   36    38     1     0     0
SMALL
bcc


@<TRIPOS>ATOM
      1 Cl1         0.1570   -0.0710   -0.2010 cl        1 BBP     -0.093400
      2 C4          1.8550   -0.0560   -0.1180 ca        1 BBP      0.011400
      3 C3          2.4780    0.1740    1.1250 ca        1 BBP     -0.118000
      4 C2          3.8570    0.1920    1.2290 ca        1 BBP     -0.084000
      5 C5          2.6000   -0.2710   -1.2720 ca        1 BBP     -0.075000
      6 C6          3.9920   -0.2560   -1.1850 ca        1 BBP     -0.119100
      7 S1          5.1440   -0.4820   -2.3970 ss        1 BBP      0.031900
      8 C7          4.6390   -0.0220    0.0740 ca        1 BBP      0.118400
      9 N1          6.0360   -0.0250    0.0300 nc        1 BBP     -0.615100
     10 C1          6.4380   -0.2670   -1.2260 cd        1 BBP      0.587100
     11 N2          7.7740   -0.4750   -1.6050 nh        1 BBP     -0.418700
     12 C8          8.9100   -0.0050   -0.7250 c3        1 BBP      0.384300
     13 O1          8.7260    1.2510   -0.1150 oh        1 BBP     -0.595800
     14 N3          8.0930   -0.3600   -2.9320 n2        1 BBP     -0.414400
     15 C10         9.3710   -0.0610   -3.0680 c2        1 BBP      0.356300
     16 C9         10.0810    0.1670   -1.7410 c3        1 BBP     -0.162700
     17 C11        10.1150    0.0090   -4.3710 c3        1 BBP     -0.070300
     18 C12         9.1890    0.4080   -5.5130 c3        1 BBP     -0.088433
     19 C13        11.2380    1.0340   -4.2630 c3        1 BBP     -0.088433
     20 C14        10.7080   -1.3670   -4.6580 c3        1 BBP     -0.088433
     21 H3          1.8580    0.3400    2.0200 ha        1 BBP      0.149000
     22 H2          4.3460    0.3710    2.1980 ha        1 BBP      0.153000
     23 H5          2.1050   -0.4500   -2.2390 ha        1 BBP      0.153000
     24 HO1         8.1170    1.1500    0.6280 ho        1 BBP      0.436000
     25 H9         10.5170    1.1930   -1.6770 hc        1 BBP      0.089700
     26 H9A        10.8730   -0.5980   -1.5670 hc        1 BBP      0.089700
     27 H312        8.4000   -0.3650   -5.6710 hc        1 BBP      0.043144
     28 H212        8.6960    1.3850   -5.2900 hc        1 BBP      0.043144
     29 H112        9.7790    0.5110   -6.4560 hc        1 BBP      0.043144
     30 H313       10.8260    2.0370   -3.9950 hc        1 BBP      0.043144
     31 H213       11.9780    0.7280   -3.4860 hc        1 BBP      0.043144
     32 H113       11.7660    1.1150   -5.2440 hc        1 BBP      0.043144
     33 H314       11.2930   -1.3320   -5.6080 hc        1 BBP      0.043144
     34 H214       11.3880   -1.6790   -3.8290 hc        1 BBP      0.043144
     35 H114        9.8960   -2.1260   -4.7630 hc        1 BBP      0.043144
     36 H8          9.0790   -0.8120    0.0380 h2        1 BBP      0.083700
@<TRIPOS>BOND
     1    1    2 1   
     2    2    3 ar  
     3    2    5 ar  
     4    3    4 ar  
     5    3   21 1   
     6    4    8 ar  
     7    4   22 1   
     8    5    6 ar  
     9    5   23 1   
    10    6    7 1   
    11    6    8 ar  
    12    7   10 1   
    13    8    9 1   
    14    9   10 2   
    15   10   11 1   
    16   11   12 1   
    17   11   14 1   
    18   12   13 1   
    19   12   16 1   
    20   12   36 1   
    21   13   24 1   
    22   14   15 2   
    23   15   16 1   
    24   15   17 1   
    25   16   25 1   
    26   16   26 1   
    27   17   18 1   
    28   17   19 1   
    29   17   20 1   
    30   18   27 1   
    31   18   28 1   
    32   18   29 1   
    33   19   30 1   
    34   19   31 1   
    35   19   32 1   
    36   20   33 1   
    37   20   34 1   
    38   20   35 1   
@<TRIPOS>SUBSTRUCTURE
     1 BBP         1 TEMP              0 ****  ****    0 ROOT
