@<TRIPOS>MOLECULE
BBR
   14    13     1     0     0
SMALL
bcc


@<TRIPOS>ATOM
      1 P           0.7560    0.4260   -0.3940 p5        1 BBR      1.315900
      2 O1P         1.5010    0.8290    0.8480 o         1 BBR     -0.917167
      3 O2P        -0.0810   -0.8140   -0.3360 o         1 BBR     -0.917167
      4 O3P         1.4920    0.6940   -1.6880 o         1 BBR     -0.917167
      5 O1         -0.4400    1.6990   -0.4990 os        1 BBR     -0.562200
      6 C1          0.0490    2.9460   -0.2330 c3        1 BBR      0.133400
      7 C2          0.1200    3.8350   -1.4750 c         1 BBR      0.549100
      8 O3          0.1690    5.0740   -1.3890 o         1 BBR     -0.643100
      9 C3          0.1440    3.0670   -2.7480 c3        1 BBR     -0.133000
     10 BR          0.5250    4.0330   -4.3910 br        1 BBR     -0.303400
     11 H1C1        1.0950    2.8930    0.1980 h1        1 BBR      0.031700
     12 H1C2       -0.6230    3.4810    0.5020 h1        1 BBR      0.031700
     13 H3C1       -0.8500    2.5850   -2.9000 h1        1 BBR      0.165700
     14 H3C2        0.9040    2.2040   -2.6140 h1        1 BBR      0.165700
@<TRIPOS>BOND
     1    1    2 1   
     2    1    3 1   
     3    1    4 1   
     4    1    5 1   
     5    5    6 1   
     6    6    7 1   
     7    6   11 1   
     8    6   12 1   
     9    7    8 2   
    10    7    9 1   
    11    9   10 1   
    12    9   13 1   
    13    9   14 1   
@<TRIPOS>SUBSTRUCTURE
     1 BBR         1 TEMP              0 ****  ****    0 ROOT
