@<TRIPOS>MOLECULE
BBR
   14    13     1     0     0
SMALL
bcc


@<TRIPOS>ATOM
      1 P           1.0090    0.5530   -0.2790 p5        1 BBR      1.315900
      2 O1P         1.8430    1.1310    0.8290 o         1 BBR     -0.917167
      3 O2P         0.2930   -0.7360   -0.0180 o         1 BBR     -0.917167
      4 O3P         1.5760    0.7510   -1.6670 o         1 BBR     -0.917167
      5 O1         -0.2990    1.7150   -0.3600 os        1 BBR     -0.562200
      6 C1          0.1050    3.0160   -0.2630 c3        1 BBR      0.133400
      7 C2         -0.0340    3.7830   -1.5780 c         1 BBR      0.549100
      8 O3         -0.0840    5.0240   -1.6080 o         1 BBR     -0.643100
      9 C3         -0.0780    2.8980   -2.7730 c3        1 BBR     -0.133000
     10 Br          0.0410    3.7260   -4.5280 br        1 BBR     -0.303400
     11 H1C1        1.1920    3.0850    0.0490 h1        1 BBR      0.031700
     12 H1C2       -0.5290    3.5660    0.4940 h1        1 BBR      0.031700
     13 H3C1       -1.0370    2.3290   -2.7680 h1        1 BBR      0.165700
     14 H3C2        0.7640    2.1130   -2.6510 h1        1 BBR      0.165700
@<TRIPOS>BOND
     1    1    2 1   
     2    1    3 1   
     3    1    4 1   
     4    1    5 1   
     5    5    6 1   
     6    6    7 1   
     7    6   11 1   
     8    6   12 1   
     9    7    8 2   
    10    7    9 1   
    11    9   10 1   
    12    9   13 1   
    13    9   14 1   
@<TRIPOS>SUBSTRUCTURE
     1 BBR         1 TEMP              0 ****  ****    0 ROOT
