@<TRIPOS>MOLECULE
BBR
   14    13     1     0     0
SMALL
bcc


@<TRIPOS>ATOM
      1 P          12.9900  -24.3720   35.7910 p5        1 BBR      1.315900
      2 O1P        14.3200  -23.6790   35.8990 o         1 BBR     -0.917167
      3 O2P        12.7690  -25.5940   36.6270 o         1 BBR     -0.917167
      4 O3P        12.3870  -24.3720   34.4040 o         1 BBR     -0.917167
      5 O1         11.9330  -23.1930   36.5390 os        1 BBR     -0.562200
      6 C1         12.1910  -21.9030   36.1730 c3        1 BBR      0.133400
      7 C2         11.1040  -21.3090   35.2780 c         1 BBR      0.549100
      8 O3         10.9570  -20.0810   35.1550 o         1 BBR     -0.643100
      9 C3         10.2880  -22.3400   34.5810 c3        1 BBR     -0.133000
     10 BR          9.0650  -21.7500   33.1900 br        1 BBR     -0.303400
     11 H1C1       12.2440  -21.2410   37.0880 h1        1 BBR      0.031700
     12 H1C2       13.1680  -21.8250   35.6060 h1        1 BBR      0.031700
     13 H3C1       11.0210  -23.1260   34.1520 h1        1 BBR      0.165700
     14 H3C2        9.6620  -22.8760   35.3320 h1        1 BBR      0.165700
@<TRIPOS>BOND
     1    1    2 1   
     2    1    3 1   
     3    1    4 1   
     4    1    5 1   
     5    5    6 1   
     6    6    7 1   
     7    6   11 1   
     8    6   12 1   
     9    7    8 2   
    10    7    9 1   
    11    9   10 1   
    12    9   13 1   
    13    9   14 1   
@<TRIPOS>SUBSTRUCTURE
     1 BBR         1 TEMP              0 ****  ****    0 ROOT
