@<TRIPOS>MOLECULE
BBR
   14    12     1     0     0
SMALL
bcc


@<TRIPOS>ATOM
      1 P           0.7360    1.2530    2.2540 p4        1 BBR      1.684200
      2 O1P         2.0450    0.5200    2.4290 os        1 BBR     -1.240000
      3 O2P         0.0670    1.4170    3.5980 o         1 BBR     -0.915500
      4 O3P         0.9970    2.6130    1.6520 o         1 BBR     -0.964300
      5 O1         -0.2070    0.4240    1.2940 os        1 BBR     -0.562200
      6 C1          0.2840    0.0510    0.0280 c3        1 BBR      0.133400
      7 C2         -0.8340   -0.5620   -0.7870 c         1 BBR      0.549100
      8 O3         -1.9700   -0.5590   -0.3580 o         1 BBR     -0.643100
      9 C3         -0.5360   -1.1790   -2.1360 c3        1 BBR     -0.133000
     10 BR         -2.1690   -1.7530   -2.9480 br        1 BBR     -0.303400
     11 H1C1        1.0050   -0.6030    0.1370 h1        1 BBR      0.031700
     12 H1C2        0.6290    0.8430   -0.4350 h1        1 BBR      0.031700
     13 H3C1        0.0580   -1.9470   -2.0190 h1        1 BBR      0.165700
     14 H3C2       -0.1030   -0.5160   -2.7090 h1        1 BBR      0.165700
@<TRIPOS>BOND
     1    1    3 1   
     2    1    4 2   
     3    1    5 1   
     4    5    6 1   
     5    6    7 1   
     6    6   11 1   
     7    6   12 1   
     8    7    8 2   
     9    7    9 1   
    10    9   10 1   
    11    9   13 1   
    12    9   14 1   
@<TRIPOS>SUBSTRUCTURE
     1 BBR         1 TEMP              0 ****  ****    0 ROOT
