@<TRIPOS>MOLECULE
BBS
   27    23     1     0     0
SMALL
bcc


@<TRIPOS>ATOM
      1 C1         -2.1580   -1.4080    0.8570 c3        1 BBS     -0.081433
      2 C2         -0.6450   -1.4080    0.8570 c3        1 BBS     -0.038900
      3 C3         -0.1410   -1.4080    2.2840 c3        1 BBS     -0.081433
      4 C4         -0.1410   -2.6440    0.1440 c3        1 BBS     -0.081433
      5 CD2         1.2320   -0.0270    0.0210 c1        1 BBS     -0.049000
      6 CE2         1.7550    1.0710   -0.6440 c1        1 BBS     -0.049000
      7 CZ          0.9050    2.0080   -1.2110 c1        1 BBS     -0.241400
      8 CE1        -0.4680    1.8460   -1.1130 c1        1 BBS      0.012500
      9 CD1        -0.9910    0.7480   -0.4480 c1        1 BBS     -0.108500
     10 CG         -0.1410   -0.1880    0.1190 c1        1 BBS     -0.035100
     11 S           1.5740    3.3990   -2.0830 s4        1 BBS      1.630200
     12 O1          0.7000    4.6190   -1.9210 o         1 BBS     -0.678400
     13 O2          2.8610    3.8740   -1.4530 o         1 BBS     -0.678400
     14 O3          1.7720    3.0560   -3.5410 os        1 BBS     -1.065000
     15 H11        -2.4830   -1.4220   -0.0630 hc        1 BBS      0.030256
     16 H12        -2.4830   -2.1990    1.3290 hc        1 BBS      0.030256
     17 H13        -2.4830   -0.6050    1.3060 hc        1 BBS      0.030256
     18 H31        -0.3180   -0.5390    2.6910 hc        1 BBS      0.030256
     19 H32         0.8200   -1.5800    2.2890 hc        1 BBS      0.030256
     20 H33        -0.5990   -2.1050    2.7910 hc        1 BBS      0.030256
     21 H41         0.8180   -2.7420    0.3010 hc        1 BBS      0.030256
     22 H42        -0.6090   -3.4300    0.4850 hc        1 BBS      0.030256
     23 H43        -0.3060   -2.5560   -0.8140 hc        1 BBS      0.030256
     24 HD2         1.8310   -0.6780    0.4330 ha        1 BBS      0.068500
     25 HE2         2.7220    1.1850   -0.7130 ha        1 BBS      0.068500
     26 HE1        -1.0660    2.4950   -1.5300 ha        1 BBS      0.085500
     27 HD1        -1.9580    0.6390   -0.3720 ha        1 BBS      0.053500
@<TRIPOS>BOND
     1    1    2 1   
     2    1   15 1   
     3    1   16 1   
     4    1   17 1   
     5    2    3 1   
     6    2    4 1   
     7    2   10 1   
     8    3   18 1   
     9    3   19 1   
    10    3   20 1   
    11    4   21 1   
    12    4   22 1   
    13    4   23 1   
    14    5    6 3   
    15    5   24 1   
    16    6   25 1   
    17    7    8 3   
    18    7   11 1   
    19    8   26 1   
    20    9   10 3   
    21    9   27 1   
    22   11   12 1   
    23   11   13 1   
@<TRIPOS>SUBSTRUCTURE
     1 BBS         1 TEMP              0 ****  ****    0 ROOT
