@<TRIPOS>MOLECULE
BBS
   27    25     1     0     0
SMALL
bcc


@<TRIPOS>ATOM
      1 C1         -1.0930   -0.6160   -0.7490 c3        1 BBS     -0.200333
      2 C2          0.1870   -0.5040    0.0790 c3        1 BBS      0.072000
      3 C3         -0.1780   -0.5010    1.5630 c3        1 BBS     -0.200333
      4 C4          1.0760   -1.7120   -0.2130 c3        1 BBS     -0.200333
      5 CD2         7.8230    4.1590   -2.3350 c2        1 BBS     -0.546000
      6 CE2         8.7960    3.5690   -2.9500 c1        1 BBS      0.061000
      7 CZ          2.6280    3.2290   -2.0580 c2        1 BBS     -0.769000
      8 CE1         2.1480    2.9130   -0.8550 c2        1 BBS     -0.005000
      9 CD1         1.4680    1.7230   -0.5420 c1        1 BBS     -0.082000
     10 CG          0.8860    0.7120   -0.2600 c1        1 BBS     -0.217000
     11 O1          3.5260    5.4500   -1.2340 o         1 BBS     -1.073333
     12 O2          4.7510    4.2860   -2.8890 o         1 BBS     -1.073333
     13 O3          2.6970    5.3160   -3.4570 o         1 BBS     -1.073333
     14 H11        -1.7620    0.2530   -0.5430 hc        1 BBS      0.073444
     15 H12        -0.8470   -0.6270   -1.8380 hc        1 BBS      0.073444
     16 H13        -1.6310   -1.5580   -0.4890 hc        1 BBS      0.073444
     17 H31        -0.8360    0.3690    1.7970 hc        1 BBS      0.073444
     18 H32         0.7440   -0.4300    2.1870 hc        1 BBS      0.073444
     19 H33        -0.7190   -1.4420    1.8230 hc        1 BBS      0.073444
     20 H41         2.0130   -1.6570    0.3900 hc        1 BBS      0.073444
     21 H42         0.5350   -2.6530    0.0470 hc        1 BBS      0.073444
     22 H43         1.3490   -1.7380   -1.2940 hc        1 BBS      0.073444
     23 HD2         7.8500    4.7720   -1.4260 ha        1 BBS      0.238000
     24 HE2         6.7640    4.0880   -2.7150 ha        1 BBS      0.238000
     25 HE1         2.5100    2.5400   -2.9070 h4        1 BBS      0.137000
     26 HD1         2.2740    3.6180   -0.0050 ha        1 BBS      0.152000
     27 S           3.4730    4.7150   -2.4410 s6        1 BBS      2.881000
@<TRIPOS>BOND
     1    1    2 1   
     2    1   14 1   
     3    1   15 1   
     4    1   16 1   
     5    2    3 1   
     6    2    4 1   
     7    2   10 1   
     8    3   17 1   
     9    3   18 1   
    10    3   19 1   
    11    4   20 1   
    12    4   21 1   
    13    4   22 1   
    14    5    6 1   
    15    5   23 1   
    16    5   24 1   
    17    7    8 1   
    18    7   25 1   
    19    7   27 1   
    20    8    9 1   
    21    8   26 1   
    22    9   10 1   
    23   11   27 1   
    24   12   27 1   
    25   13   27 1   
@<TRIPOS>SUBSTRUCTURE
     1 BBS         1 TEMP              0 ****  ****    0 ROOT
