@<TRIPOS>MOLECULE
BBS
   27    27     1     0     0
SMALL
bcc


@<TRIPOS>ATOM
      1 C1          1.4210    0.0330    3.9000 c3        1 BBS     -0.081433
      2 C2          0.0210    0.0240    3.2970 c3        1 BBS     -0.004700
      3 C3         -0.7100   -1.2140    3.8130 c3        1 BBS     -0.081433
      4 C4         -0.7110    1.2750    3.7790 c3        1 BBS     -0.081433
      5 CD2        -1.1750   -0.0030    1.0920 ca        1 BBS     -0.167500
      6 CE2        -1.1920   -0.0180   -0.3010 ca        1 BBS     -0.044500
      7 CZ         -0.0050   -0.0230   -1.0340 ca        1 BBS     -0.255500
      8 CE1         1.2000   -0.0250   -0.3370 ca        1 BBS     -0.044500
      9 CD1         1.2310   -0.0110    1.0580 ca        1 BBS     -0.167500
     10 CG          0.0410    0.0040    1.7920 ca        1 BBS     -0.069300
     11 O1          1.1470   -0.7010   -3.1880 o         1 BBS     -0.745533
     12 O2         -1.2290   -0.6930   -3.1500 o         1 BBS     -0.745533
     13 O3         -0.0340    1.3480   -3.1710 o         1 BBS     -0.745533
     14 H11         1.9850    0.9360    3.5650 hc        1 BBS      0.030256
     15 H12         1.3530    0.0510    5.0140 hc        1 BBS      0.030256
     16 H13         1.9840   -0.8810    3.5950 hc        1 BBS      0.030256
     17 H31        -0.1910   -2.1380    3.4650 hc        1 BBS      0.030256
     18 H32        -0.7300   -1.2110    4.9290 hc        1 BBS      0.030256
     19 H33        -1.7600   -1.2330    3.4370 hc        1 BBS      0.030256
     20 H41        -0.1920    2.1900    3.4060 hc        1 BBS      0.030256
     21 H42        -1.7610    1.2830    3.4030 hc        1 BBS      0.030256
     22 H43        -0.7300    1.3020    4.8950 hc        1 BBS      0.030256
     23 HD2        -2.1260    0.0020    1.6450 ha        1 BBS      0.109500
     24 HE2        -2.1520   -0.0390   -0.8430 ha        1 BBS      0.143500
     25 HE1         2.1440   -0.0520   -0.9080 ha        1 BBS      0.143500
     26 HD1         2.2060   -0.0120    1.5650 ha        1 BBS      0.109500
     27 S          -0.0330   -0.0190   -2.8080 s6        1 BBS      1.459100
@<TRIPOS>BOND
     1    1    2 1   
     2    1   14 1   
     3    1   15 1   
     4    1   16 1   
     5    2    3 1   
     6    2    4 1   
     7    2   10 1   
     8    3   17 1   
     9    3   18 1   
    10    3   19 1   
    11    4   20 1   
    12    4   21 1   
    13    4   22 1   
    14    5    6 ar  
    15    5   10 ar  
    16    5   23 1   
    17    6    7 ar  
    18    6   24 1   
    19    7    8 ar  
    20    7   27 1   
    21    8    9 ar  
    22    8   25 1   
    23    9   10 ar  
    24    9   26 1   
    25   11   27 1   
    26   12   27 1   
    27   13   27 1   
@<TRIPOS>SUBSTRUCTURE
     1 BBS         1 TEMP              0 ****  ****    0 ROOT
