@<TRIPOS>MOLECULE
BBS
   27    26     1     0     0
SMALL
bcc


@<TRIPOS>ATOM
      1 C1         -0.1570   -0.1320   -0.1120 c3        1 BBS     -0.082767
      2 C2          1.3590   -0.0070   -0.0260 c3        1 BBS     -0.005800
      3 C3          1.7620   -0.0200    1.4450 c3        1 BBS     -0.082767
      4 C4          1.9830   -1.2060   -0.7320 c3        1 BBS     -0.082767
      5 CD2         3.1620    1.5650   -0.7130 ce        1 BBS     -0.076000
      6 CE2         3.8090    2.7260   -1.2830 ce        1 BBS     -0.091000
      7 CZ          3.3970    3.4550   -2.3190 c2        1 BBS     -0.305100
      8 CE1         0.0270    2.8630   -1.6620 c1        1 BBS     -0.168500
      9 CD1         0.8560    2.1250   -1.2090 ch        1 BBS     -0.132300
     10 CG          1.8420    1.2730   -0.6750 cf        1 BBS     -0.008900
     11 O1          3.3520    5.9010   -2.9080 o         1 BBS     -0.747867
     12 O2          5.4180    4.9820   -2.1820 o         1 BBS     -0.747867
     13 O3          4.5560    4.4330   -4.3240 o         1 BBS     -0.747867
     14 H11        -0.6470    0.7240    0.4100 hc        1 BBS      0.032033
     15 H12        -0.4860   -0.1340   -1.1790 hc        1 BBS      0.032033
     16 H13        -0.4900   -1.0830    0.3680 hc        1 BBS      0.032033
     17 H31         1.3210    0.8580    1.9730 hc        1 BBS      0.032033
     18 H32         2.8730    0.0240    1.5480 hc        1 BBS      0.032033
     19 H33         1.3960   -0.9550    1.9340 hc        1 BBS      0.032033
     20 H41         3.0950   -1.1760   -0.6490 hc        1 BBS      0.032033
     21 H42         1.6170   -2.1550   -0.2710 hc        1 BBS      0.032033
     22 H43         1.7060   -1.2020   -1.8130 hc        1 BBS      0.032033
     23 HD2         3.8660    0.8480   -0.2450 ha        1 BBS      0.108000
     24 HE2         4.7710    2.9900   -0.7950 ha        1 BBS      0.138000
     25 HE1         2.4530    3.2170   -2.8310 h4        1 BBS      0.138000
     26 HD1        -0.6800    3.5350   -2.0720 ha        1 BBS      0.160500
     27 S           4.2660    4.8240   -2.9930 s6        1 BBS      1.447700
@<TRIPOS>BOND
     1    1    2 1   
     2    1   14 1   
     3    1   15 1   
     4    1   16 1   
     5    2    3 1   
     6    2    4 1   
     7    2   10 1   
     8    3   17 1   
     9    3   18 1   
    10    3   19 1   
    11    4   20 1   
    12    4   21 1   
    13    4   22 1   
    14    5    6 1   
    15    5   10 2   
    16    5   23 1   
    17    6    7 2   
    18    6   24 1   
    19    7   25 1   
    20    7   27 1   
    21    8    9 3   
    22    8   26 1   
    23    9   10 1   
    24   11   27 1   
    25   12   27 1   
    26   13   27 1   
@<TRIPOS>SUBSTRUCTURE
     1 BBS         1 TEMP              0 ****  ****    0 ROOT
