@<TRIPOS>MOLECULE
BBT
   45    47     1     0     0
SMALL
bcc


@<TRIPOS>ATOM
      1 N1          1.8630    1.3110   -2.4120 ne        1 BBT     -0.775100
      2 C2          2.1730    0.1990   -3.0530 c2        1 BBT      0.736200
      3 O2          2.9960    0.2220   -4.1570 oh        1 BBT     -0.582600
      4 N3          1.7790   -1.0970   -2.7350 n         1 BBT     -0.516400
      5 C4          0.8960   -1.3260   -1.6660 c         1 BBT      0.708500
      6 O4          0.6530   -2.5020   -1.3750 o         1 BBT     -0.559500
      7 C5          0.2320   -0.0900   -0.9730 c3        1 BBT      0.118500
      8 C6          1.0290    1.2270   -1.2840 c         1 BBT      0.681500
      9 O6          0.9000    2.2150   -0.5490 o         1 BBT     -0.516100
     10 NP1         0.1470   -0.3810    0.4640 n3        1 BBT     -0.709600
     11 CP2         1.4570   -0.4330    1.1050 c3        1 BBT      0.163800
     12 CP3         1.3830   -0.8390    2.5750 c3        1 BBT     -0.071400
     13 CP4         0.4300    0.0640    3.3440 c3        1 BBT     -0.066700
     14 CP5        -0.9280    0.0500    2.6610 c3        1 BBT     -0.071400
     15 CP6        -0.8100    0.4460    1.1900 c3        1 BBT      0.163800
     16 CP7         0.3370   -0.3890    4.7900 c3        1 BBT     -0.080400
     17 CP8        -0.2860    0.6820    5.6700 c3        1 BBT      0.131400
     18 OP9        -0.2660    0.1860    7.0000 oh        1 BBT     -0.602800
     19 CG         -1.1400    0.0170   -1.6240 ca        1 BBT     -0.112300
     20 CD1        -1.5640    1.1840   -2.2670 ca        1 BBT     -0.104500
     21 CD2        -1.9960   -1.0930   -1.5730 ca        1 BBT     -0.104500
     22 CE1        -2.8230    1.2310   -2.8680 ca        1 BBT     -0.136500
     23 CE2        -3.2520   -1.0380   -2.1720 ca        1 BBT     -0.136500
     24 CZ         -3.6670    0.1230   -2.8240 ca        1 BBT     -0.114000
     25 HO2         3.2480    1.1440   -4.3450 ho        1 BBT      0.474000
     26 H3          2.1440   -1.8680   -3.2520 hn        1 BBT      0.352500
     27 HP21        1.9890    0.5630    1.0340 h1        1 BBT      0.046950
     28 HP22        2.0740   -1.2000    0.5540 h1        1 BBT      0.046950
     29 HP31        2.4140   -0.7690    3.0070 hc        1 BBT      0.051700
     30 HP32        1.0440   -1.9040    2.6610 hc        1 BBT      0.051700
     31 HP4         0.8350    1.1150    3.3150 hc        1 BBT      0.052700
     32 HP51       -1.3830   -0.9710    2.7490 hc        1 BBT      0.051700
     33 HP52       -1.6180    0.7790    3.1600 hc        1 BBT      0.051700
     34 HP61       -0.5340    1.5400    1.1320 h1        1 BBT      0.046950
     35 HP62       -1.8170    0.3120    0.7030 h1        1 BBT      0.046950
     36 HP71        1.3620   -0.6240    5.1810 hc        1 BBT      0.057200
     37 HP72       -0.2700   -1.3290    4.8640 hc        1 BBT      0.057200
     38 HP81       -1.3440    0.8900    5.3560 h1        1 BBT      0.021200
     39 HP82        0.3040    1.6370    5.6100 h1        1 BBT      0.021200
     40 HO9        -0.6640    0.8670    7.5530 ho        1 BBT      0.399000
     41 HD1        -0.9280    2.0830   -2.3000 ha        1 BBT      0.158500
     42 HD2        -1.6670   -2.0110   -1.0560 ha        1 BBT      0.158500
     43 HE1        -3.1470    2.1530   -3.3740 ha        1 BBT      0.138000
     44 HE2        -3.9160   -1.9140   -2.1280 ha        1 BBT      0.138000
     45 HZ         -4.6590    0.1660   -3.2990 ha        1 BBT      0.135000
@<TRIPOS>BOND
     1    1    2 2   
     2    1    8 1   
     3    2    3 1   
     4    2    4 1   
     5    3   25 1   
     6    4    5 1   
     7    4   26 1   
     8    5    6 2   
     9    5    7 1   
    10    7    8 1   
    11    7   10 1   
    12    7   19 1   
    13    8    9 2   
    14   10   11 1   
    15   10   15 1   
    16   11   12 1   
    17   11   27 1   
    18   11   28 1   
    19   12   13 1   
    20   12   29 1   
    21   12   30 1   
    22   13   14 1   
    23   13   16 1   
    24   13   31 1   
    25   14   15 1   
    26   14   32 1   
    27   14   33 1   
    28   15   34 1   
    29   15   35 1   
    30   16   17 1   
    31   16   36 1   
    32   16   37 1   
    33   17   18 1   
    34   17   38 1   
    35   17   39 1   
    36   18   40 1   
    37   19   20 ar  
    38   19   21 ar  
    39   20   22 ar  
    40   20   41 1   
    41   21   23 ar  
    42   21   42 1   
    43   22   24 ar  
    44   22   43 1   
    45   23   24 ar  
    46   23   44 1   
    47   24   45 1   
@<TRIPOS>SUBSTRUCTURE
     1 BBT         1 TEMP              0 ****  ****    0 ROOT
