@<TRIPOS>MOLECULE
BBT
   45    47     1     0     0
SMALL
bcc


@<TRIPOS>ATOM
      1 N1          0.3000   -0.5060   -0.1300 ne        1 BBT     -0.775100
      2 C2          1.5930   -0.6140    0.1180 c2        1 BBT      0.736200
      3 O2          2.4650   -1.0700   -0.8450 oh        1 BBT     -0.582600
      4 N3          2.2560   -0.2860    1.2960 n         1 BBT     -0.516400
      5 C4          1.5330    0.1530    2.4180 c         1 BBT      0.708500
      6 O4          2.1820    0.5150    3.4050 o         1 BBT     -0.559500
      7 C5         -0.0300    0.0860    2.3670 c3        1 BBT      0.118500
      8 C6         -0.5420   -0.0230    0.8860 c         1 BBT      0.681500
      9 O6         -1.7090    0.2870    0.6120 o         1 BBT     -0.516100
     10 NP1        -0.5470    1.2690    3.0650 n3        1 BBT     -0.709600
     11 CP2        -0.2640    2.5100    2.3510 c3        1 BBT      0.163800
     12 CP3        -0.7050    3.7520    3.1230 c3        1 BBT     -0.071400
     13 CP4        -2.1740    3.6630    3.5080 c3        1 BBT     -0.066700
     14 CP5        -2.4070    2.3760    4.2840 c3        1 BBT     -0.071400
     15 CP6        -1.9400    1.1590    3.4860 c3        1 BBT      0.163800
     16 CP7        -2.5760    4.8850    4.3150 c3        1 BBT     -0.080400
     17 CP8        -4.0870    5.0280    4.3940 c3        1 BBT      0.131400
     18 OP9        -4.3510    6.2260    5.1070 oh        1 BBT     -0.602800
     19 CG         -0.3770   -1.2090    3.0880 ca        1 BBT     -0.112300
     20 CD1        -1.1310   -2.2160    2.4790 ca        1 BBT     -0.104500
     21 CD2         0.0800   -1.3890    4.4030 ca        1 BBT     -0.104500
     22 CE1        -1.4090   -3.3960    3.1710 ca        1 BBT     -0.136500
     23 CE2        -0.2030   -2.5680    5.0890 ca        1 BBT     -0.136500
     24 CZ         -0.9460   -3.5760    4.4730 ca        1 BBT     -0.114000
     25 HO2         1.9620   -1.2880   -1.6510 ho        1 BBT      0.474000
     26 H3          3.2520   -0.3390    1.3370 hn        1 BBT      0.352500
     27 HP21       -0.7610    2.5230    1.3360 h1        1 BBT      0.046950
     28 HP22        0.8520    2.5660    2.1960 h1        1 BBT      0.046950
     29 HP31       -0.5320    4.6460    2.4710 hc        1 BBT      0.051450
     30 HP32       -0.0810    3.8710    4.0460 hc        1 BBT      0.051450
     31 HP4        -2.7890    3.6290    2.5640 hc        1 BBT      0.052700
     32 HP51       -1.8670    2.4240    5.2640 hc        1 BBT      0.051450
     33 HP52       -3.4990    2.2470    4.4990 hc        1 BBT      0.051450
     34 HP61       -2.6270    1.0220    2.6000 h1        1 BBT      0.046950
     35 HP62       -2.0280    0.2480    4.1430 h1        1 BBT      0.046950
     36 HP71       -2.1520    5.8090    3.8390 hc        1 BBT      0.057200
     37 HP72       -2.1550    4.8220    5.3510 hc        1 BBT      0.057200
     38 HP81       -4.5420    4.1540    4.9340 h1        1 BBT      0.021200
     39 HP82       -4.5340    5.0890    3.3650 h1        1 BBT      0.021200
     40 HO9        -5.3100    6.3100    5.1570 ho        1 BBT      0.399000
     41 HD1        -1.5290   -2.0950    1.4580 ha        1 BBT      0.158500
     42 HD2         0.6660   -0.5900    4.8890 ha        1 BBT      0.158500
     43 HE1        -2.0010   -4.1840    2.6820 ha        1 BBT      0.138000
     44 HE2         0.1600   -2.7000    6.1180 ha        1 BBT      0.138000
     45 HZ         -1.1670   -4.5080    5.0140 ha        1 BBT      0.135000
@<TRIPOS>BOND
     1    1    2 2   
     2    1    8 1   
     3    2    3 1   
     4    2    4 1   
     5    3   25 1   
     6    4    5 1   
     7    4   26 1   
     8    5    6 2   
     9    5    7 1   
    10    7    8 1   
    11    7   10 1   
    12    7   19 1   
    13    8    9 2   
    14   10   11 1   
    15   10   15 1   
    16   11   12 1   
    17   11   27 1   
    18   11   28 1   
    19   12   13 1   
    20   12   29 1   
    21   12   30 1   
    22   13   14 1   
    23   13   16 1   
    24   13   31 1   
    25   14   15 1   
    26   14   32 1   
    27   14   33 1   
    28   15   34 1   
    29   15   35 1   
    30   16   17 1   
    31   16   36 1   
    32   16   37 1   
    33   17   18 1   
    34   17   38 1   
    35   17   39 1   
    36   18   40 1   
    37   19   20 ar  
    38   19   21 ar  
    39   20   22 ar  
    40   20   41 1   
    41   21   23 ar  
    42   21   42 1   
    43   22   24 ar  
    44   22   43 1   
    45   23   24 ar  
    46   23   44 1   
    47   24   45 1   
@<TRIPOS>SUBSTRUCTURE
     1 BBT         1 TEMP              0 ****  ****    0 ROOT
