@<TRIPOS>MOLECULE
BBT
   45    43     1     0     0
SMALL
bcc


@<TRIPOS>ATOM
      1 N1         -0.4270   -0.9860   -2.5380 n1        1 BBT     -0.342000
      2 C2          0.9600   -1.0970   -2.7920 c1        1 BBT      0.305000
      3 O2          1.4390   -1.0670   -4.1280 o         1 BBT     -0.249000
      4 N3          1.8800   -1.1550   -1.7080 n         1 BBT     -0.355000
      5 C4          1.3980   -1.1170   -0.3500 c2        1 BBT      0.279000
      6 O4          2.1880   -1.1360    0.5710 o         1 BBT     -0.313000
      7 C5         -0.1030   -1.2260   -0.0670 c3        1 BBT      0.073000
      8 C6         -0.9430   -1.3560   -1.2820 c1        1 BBT      0.280000
      9 O6         -2.0590   -1.8230   -1.1990 o         1 BBT     -0.252000
     10 NP1        -0.5460   -0.1590    0.7480 n3        1 BBT     -0.263000
     11 CP2         0.6180    0.5920    1.2560 c3        1 BBT     -0.048000
     12 CP3         1.3170    1.3860    0.1670 c3        1 BBT     -0.187000
     13 CP4         0.3750    2.2450   -0.6030 c3        1 BBT     -0.095000
     14 CP5        -0.7950    1.4810   -1.1100 c3        1 BBT     -0.187000
     15 CP6        -1.4860    0.6860   -0.0150 c3        1 BBT     -0.048000
     16 CP7        -0.1360    3.4020    0.3270 c3        1 BBT     -0.163000
     17 CP8         0.0910    4.7510   -0.3630 c3        1 BBT     -0.018000
     18 OP9        -0.1910    5.7970    0.5450 oh        1 BBT     -0.329000
     19 CG         -0.3520   -2.3750    0.8320 c2        1 BBT     -0.102000
     20 CD1        -0.1290   -3.6700    0.3810 c2        1 BBT     -0.120000
     21 CD2        -0.8600   -2.1620    2.1020 c1        1 BBT     -0.093000
     22 CE1        -0.4140   -4.7510    1.2040 c1        1 BBT     -0.135000
     23 CE2        -1.1450   -3.2440    2.9260 c1        1 BBT     -0.124000
     24 CZ         -0.9220   -4.5380    2.4750 c1        1 BBT     -0.124000
     25 HO2         1.6500   -1.8940   -4.3880 ho        1 BBT      0.273000
     26 H3          2.7770   -1.2270   -1.8740 hn        1 BBT      0.262000
     27 HP21        0.3150    1.2120    1.9550 h1        1 BBT      0.096750
     28 HP22        1.2530   -0.0370    1.6450 h1        1 BBT      0.096750
     29 HP31        2.0010    1.9550    0.5790 hc        1 BBT      0.093250
     30 HP32        1.7510    0.7650   -0.4460 hc        1 BBT      0.093250
     31 HP4         0.8510    2.6350   -1.3630 hc        1 BBT      0.086000
     32 HP51       -0.4970    0.8720   -1.7990 hc        1 BBT      0.093250
     33 HP52       -1.4390    2.1100   -1.5000 hc        1 BBT      0.093250
     34 HP61       -1.9230    1.3100    0.6010 h1        1 BBT      0.096750
     35 HP62       -2.1660    0.1150   -0.4220 h1        1 BBT      0.096750
     36 HP71        0.3590    3.3820    1.1780 hc        1 BBT      0.097500
     37 HP72       -1.0870    3.2830    0.5020 hc        1 BBT      0.097500
     38 HP81        1.0240    4.8150   -0.6560 h1        1 BBT      0.058500
     39 HP82       -0.5050    4.8240   -1.1450 h1        1 BBT      0.058500
     40 HO9        -0.4520    6.5230    0.0910 ho        1 BBT      0.197000
     41 HD1         0.2290   -3.8210   -0.5160 ha        1 BBT      0.140000
     42 HD2        -1.0180   -1.2490    2.4210 ha        1 BBT      0.169000
     43 HE1        -0.2570   -5.6600    0.8880 ha        1 BBT      0.136000
     44 HE2        -1.5010   -3.0950    3.8170 ha        1 BBT      0.137500
     45 HZ         -1.1220   -5.2980    3.0540 ha        1 BBT      0.137500
@<TRIPOS>BOND
     1    1    2 1   
     2    2    4 1   
     3    3   25 1   
     4    4    5 1   
     5    4   26 1   
     6    5    6 1   
     7    5    7 1   
     8    7    8 1   
     9    7   10 1   
    10    7   19 1   
    11    8    9 1   
    12   10   11 1   
    13   10   15 1   
    14   11   12 1   
    15   11   27 1   
    16   11   28 1   
    17   12   13 1   
    18   12   29 1   
    19   12   30 1   
    20   13   14 1   
    21   13   16 1   
    22   13   31 1   
    23   14   15 1   
    24   14   32 1   
    25   14   33 1   
    26   15   34 1   
    27   15   35 1   
    28   16   17 1   
    29   16   36 1   
    30   16   37 1   
    31   17   18 1   
    32   17   38 1   
    33   17   39 1   
    34   18   40 1   
    35   19   20 1   
    36   19   21 1   
    37   20   22 1   
    38   20   41 1   
    39   21   42 1   
    40   22   43 1   
    41   23   24 1   
    42   23   44 1   
    43   24   45 1   
@<TRIPOS>SUBSTRUCTURE
     1 BBT         1 TEMP              0 ****  ****    0 ROOT
