@<TRIPOS>MOLECULE
BBT
   45    47     1     0     0
SMALL
bcc


@<TRIPOS>ATOM
      1 N1          0.2950   -0.5020   -0.1340 ne        1 BBT     -0.775100
      2 C2          1.5890   -0.6070    0.1110 c2        1 BBT      0.736200
      3 O2          2.4600   -1.0590   -0.8550 oh        1 BBT     -0.582600
      4 N3          2.2550   -0.2770    1.2870 n         1 BBT     -0.516400
      5 C4          1.5330    0.1590    2.4110 c         1 BBT      0.708500
      6 O4          2.1840    0.5220    3.3960 o         1 BBT     -0.559500
      7 C5         -0.0290    0.0880    2.3640 c3        1 BBT      0.118500
      8 C6         -0.5460   -0.0220    0.8850 c         1 BBT      0.681500
      9 O6         -1.7150    0.2850    0.6140 o         1 BBT     -0.516100
     10 NP1        -0.5480    1.2700    3.0630 n3        1 BBT     -0.709600
     11 CP2        -0.2700    2.5120    2.3490 c3        1 BBT      0.163800
     12 CP3        -0.7120    3.7520    3.1220 c3        1 BBT     -0.071400
     13 CP4        -2.1790    3.6590    3.5120 c3        1 BBT     -0.066700
     14 CP5        -2.4070    2.3720    4.2880 c3        1 BBT     -0.071400
     15 CP6        -1.9390    1.1570    3.4890 c3        1 BBT      0.163800
     16 CP7        -2.5820    4.8810    4.3190 c3        1 BBT     -0.080400
     17 CP8        -4.0930    5.0190    4.4030 c3        1 BBT      0.131400
     18 OP9        -4.3580    6.2170    5.1170 oh        1 BBT     -0.602800
     19 CG         -0.3710   -1.2080    3.0870 ca        1 BBT     -0.112300
     20 CD1        -1.1240   -2.2170    2.4790 ca        1 BBT     -0.104500
     21 CD2         0.0890   -1.3870    4.4000 ca        1 BBT     -0.104500
     22 CE1        -1.3970   -3.3980    3.1710 ca        1 BBT     -0.136500
     23 CE2        -0.1890   -2.5660    5.0860 ca        1 BBT     -0.136500
     24 CZ         -0.9300   -3.5760    4.4720 ca        1 BBT     -0.114000
     25 HO2         1.9550   -1.2780   -1.6600 ho        1 BBT      0.474000
     26 H3          3.2500   -0.3280    1.3250 hn        1 BBT      0.352500
     27 HP21        0.8450    2.5700    2.1910 h1        1 BBT      0.046950
     28 HP22       -0.7700    2.5230    1.3350 h1        1 BBT      0.046950
     29 HP31       -0.0850    3.8740    4.0430 hc        1 BBT      0.051700
     30 HP32       -0.5430    4.6470    2.4690 hc        1 BBT      0.051700
     31 HP4        -2.7970    3.6240    2.5700 hc        1 BBT      0.052700
     32 HP51       -1.8630    2.4210    5.2670 hc        1 BBT      0.051700
     33 HP52       -3.4980    2.2410    4.5060 hc        1 BBT      0.051700
     34 HP61       -2.0220    0.2450    4.1460 h1        1 BBT      0.046950
     35 HP62       -2.6280    1.0170    2.6050 h1        1 BBT      0.046950
     36 HP71       -2.1620    5.8060    3.8420 hc        1 BBT      0.057200
     37 HP72       -2.1570    4.8190    5.3540 hc        1 BBT      0.057200
     38 HP81       -4.5450    4.1450    4.9440 h1        1 BBT      0.021200
     39 HP82       -4.5430    5.0800    3.3750 h1        1 BBT      0.021200
     40 HO9        -5.3170    6.2990    5.1700 ho        1 BBT      0.399000
     41 HD1        -1.5250   -2.0970    1.4590 ha        1 BBT      0.158500
     42 HD2         0.6740   -0.5860    4.8850 ha        1 BBT      0.158500
     43 HE1        -1.9880   -4.1880    2.6840 ha        1 BBT      0.138000
     44 HE2         0.1770   -2.6980    6.1150 ha        1 BBT      0.138000
     45 HZ         -1.1480   -4.5080    5.0140 ha        1 BBT      0.135000
@<TRIPOS>BOND
     1    1    2 2   
     2    1    8 1   
     3    2    3 1   
     4    2    4 1   
     5    3   25 1   
     6    4    5 1   
     7    4   26 1   
     8    5    6 2   
     9    5    7 1   
    10    7    8 1   
    11    7   10 1   
    12    7   19 1   
    13    8    9 2   
    14   10   11 1   
    15   10   15 1   
    16   11   12 1   
    17   11   27 1   
    18   11   28 1   
    19   12   13 1   
    20   12   29 1   
    21   12   30 1   
    22   13   14 1   
    23   13   16 1   
    24   13   31 1   
    25   14   15 1   
    26   14   32 1   
    27   14   33 1   
    28   15   34 1   
    29   15   35 1   
    30   16   17 1   
    31   16   36 1   
    32   16   37 1   
    33   17   18 1   
    34   17   38 1   
    35   17   39 1   
    36   18   40 1   
    37   19   20 ar  
    38   19   21 ar  
    39   20   22 ar  
    40   20   41 1   
    41   21   23 ar  
    42   21   42 1   
    43   22   24 ar  
    44   22   43 1   
    45   23   24 ar  
    46   23   44 1   
    47   24   45 1   
@<TRIPOS>SUBSTRUCTURE
     1 BBT         1 TEMP              0 ****  ****    0 ROOT
