@<TRIPOS>MOLECULE
BBT
   45    47     1     0     0
SMALL
bcc


@<TRIPOS>ATOM
      1 N1          0.3030   -0.5020   -0.1310 ne        1 BBT     -0.775100
      2 C2          1.5960   -0.6090    0.1180 c2        1 BBT      0.736200
      3 O2          2.4700   -1.0620   -0.8450 oh        1 BBT     -0.582600
      4 N3          2.2590   -0.2800    1.2960 ns        1 BBT     -0.516400
      5 C4          1.5340    0.1580    2.4180 c         1 BBT      0.708500
      6 O4          2.1830    0.5200    3.4050 o         1 BBT     -0.559500
      7 C5         -0.0280    0.0880    2.3660 c3        1 BBT      0.118500
      8 C6         -0.5400   -0.0210    0.8850 c         1 BBT      0.681500
      9 O6         -1.7080    0.2870    0.6110 o         1 BBT     -0.516100
     10 NP1        -0.5480    1.2700    3.0650 n3        1 BBT     -0.709600
     11 CP2        -0.2660    2.5120    2.3520 c3        1 BBT      0.163800
     12 CP3        -0.7100    3.7520    3.1240 c3        1 BBT     -0.071400
     13 CP4        -2.1790    3.6600    3.5090 c3        1 BBT     -0.066700
     14 CP5        -2.4100    2.3730    4.2840 c3        1 BBT     -0.071400
     15 CP6        -1.9400    1.1570    3.4860 c3        1 BBT      0.163800
     16 CP7        -2.5830    4.8810    4.3160 c3        1 BBT     -0.080400
     17 CP8        -4.0940    5.0210    4.3960 c3        1 BBT      0.131400
     18 OP9        -4.3600    6.2190    5.1100 oh        1 BBT     -0.602800
     19 CG         -0.3730   -1.2080    3.0870 ca        1 BBT     -0.112300
     20 CD1        -1.1260   -2.2160    2.4770 ca        1 BBT     -0.104500
     21 CD2         0.0840   -1.3880    4.4010 ca        1 BBT     -0.104500
     22 CE1        -1.4010   -3.3970    3.1680 ca        1 BBT     -0.136500
     23 CE2        -0.1980   -2.5670    5.0870 ca        1 BBT     -0.136500
     24 CZ         -0.9380   -3.5760    4.4700 ca        1 BBT     -0.114000
     25 HO2         1.9670   -1.2800   -1.6510 ho        1 BBT      0.474000
     26 H3          3.2540   -0.3310    1.3370 hn        1 BBT      0.352500
     27 HP21       -0.7640    2.5240    1.3370 h1        1 BBT      0.046950
     28 HP22        0.8490    2.5690    2.1970 h1        1 BBT      0.046950
     29 HP31       -0.5380    4.6480    2.4730 hc        1 BBT      0.051450
     30 HP32       -0.0860    3.8730    4.0480 hc        1 BBT      0.051450
     31 HP4        -2.7930    3.6260    2.5650 hc        1 BBT      0.052700
     32 HP51       -3.5020    2.2420    4.4990 hc        1 BBT      0.051450
     33 HP52       -1.8690    2.4210    5.2650 hc        1 BBT      0.051450
     34 HP61       -2.6270    1.0190    2.6000 h1        1 BBT      0.046950
     35 HP62       -2.0260    0.2450    4.1420 h1        1 BBT      0.046950
     36 HP71       -2.1610    4.8190    5.3530 hc        1 BBT      0.057200
     37 HP72       -2.1610    5.8060    3.8420 hc        1 BBT      0.057200
     38 HP81       -4.5480    4.1470    4.9360 h1        1 BBT      0.021200
     39 HP82       -4.5410    5.0830    3.3670 h1        1 BBT      0.021200
     40 HO9        -5.3190    6.3010    5.1590 ho        1 BBT      0.399000
     41 HD1        -1.5240   -2.0950    1.4570 ha        1 BBT      0.158500
     42 HD2         0.6680   -0.5880    4.8880 ha        1 BBT      0.158500
     43 HE1        -1.9920   -4.1860    2.6790 ha        1 BBT      0.138000
     44 HE2         0.1660   -2.7000    6.1170 ha        1 BBT      0.138000
     45 HZ         -1.1580   -4.5090    5.0110 ha        1 BBT      0.135000
@<TRIPOS>BOND
     1    1    2 2   
     2    1    8 1   
     3    2    3 1   
     4    2    4 1   
     5    3   25 1   
     6    4    5 1   
     7    4   26 1   
     8    5    6 2   
     9    5    7 1   
    10    7    8 1   
    11    7   10 1   
    12    7   19 1   
    13    8    9 2   
    14   10   11 1   
    15   10   15 1   
    16   11   12 1   
    17   11   27 1   
    18   11   28 1   
    19   12   13 1   
    20   12   29 1   
    21   12   30 1   
    22   13   14 1   
    23   13   16 1   
    24   13   31 1   
    25   14   15 1   
    26   14   32 1   
    27   14   33 1   
    28   15   34 1   
    29   15   35 1   
    30   16   17 1   
    31   16   36 1   
    32   16   37 1   
    33   17   18 1   
    34   17   38 1   
    35   17   39 1   
    36   18   40 1   
    37   19   20 ar  
    38   19   21 ar  
    39   20   22 ar  
    40   20   41 1   
    41   21   23 ar  
    42   21   42 1   
    43   22   24 ar  
    44   22   43 1   
    45   23   24 ar  
    46   23   44 1   
    47   24   45 1   
@<TRIPOS>SUBSTRUCTURE
     1 BBT         1 TEMP              0 ****  ****    0 ROOT
