@<TRIPOS>MOLECULE
BBU
   14    13     1     0     0
SMALL
bcc


@<TRIPOS>ATOM
      1 BR1        -3.1060   -0.0000   -1.4260 br        1 BBU     -0.179400
      2 C1         -1.1940   -0.0000   -1.4260 c3        1 BBU     -0.009000
      3 C2         -0.6900   -0.0000    0.0000 c3        1 BBU     -0.082400
      4 C3          0.8230   -0.0000    0.0000 c3        1 BBU     -0.081400
      5 C4          1.3280   -0.0000    1.4260 c3        1 BBU     -0.093100
      6 H11        -0.8690    0.7970   -1.8870 h1        1 BBU      0.071700
      7 H12        -0.8690   -0.7970   -1.8870 h1        1 BBU      0.071700
      8 H21        -1.0150    0.7970    0.4600 hc        1 BBU      0.055700
      9 H22        -1.0150   -0.7970    0.4600 hc        1 BBU      0.055700
     10 H31         1.1490   -0.7970   -0.4600 hc        1 BBU      0.040700
     11 H32         1.1490    0.7970   -0.4600 hc        1 BBU      0.040700
     12 H41         1.0020    0.7970    1.8870 hc        1 BBU      0.035700
     13 H42         1.0020   -0.7970    1.8870 hc        1 BBU      0.035700
     14 H43         2.3040   -0.0000    1.4260 hc        1 BBU      0.035700
@<TRIPOS>BOND
     1    1    2 1   
     2    2    3 1   
     3    2    6 1   
     4    2    7 1   
     5    3    4 1   
     6    3    8 1   
     7    3    9 1   
     8    4    5 1   
     9    4   10 1   
    10    4   11 1   
    11    5   12 1   
    12    5   13 1   
    13    5   14 1   
@<TRIPOS>SUBSTRUCTURE
     1 BBU         1 TEMP              0 ****  ****    0 ROOT
