@<TRIPOS>MOLECULE
BBU
   14    13     1     0     0
SMALL
bcc


@<TRIPOS>ATOM
      1 BR1        -0.0060    0.0000   -1.5050 br        1 BBU     -0.179400
      2 C1          0.7960    0.0000    0.2470 c3        1 BBU     -0.009000
      3 C2         -0.2150   -0.0000    1.3650 c3        1 BBU     -0.082400
      4 C3          0.4840   -0.0000    2.7110 c3        1 BBU     -0.081400
      5 C4         -0.5100   -0.0000    3.8430 c3        1 BBU     -0.093100
      6 H11         1.4400    0.9080    0.2970 h1        1 BBU      0.071700
      7 H12         1.4400   -0.9080    0.2970 h1        1 BBU      0.071700
      8 H21        -0.8760   -0.9040    1.2900 hc        1 BBU      0.055700
      9 H22        -0.8760    0.9040    1.2900 hc        1 BBU      0.055700
     10 H31         1.1460    0.9030    2.7890 hc        1 BBU      0.040700
     11 H32         1.1460   -0.9030    2.7890 hc        1 BBU      0.040700
     12 H41         0.0230   -0.0000    4.8250 hc        1 BBU      0.035700
     13 H42        -1.1630    0.9050    3.7960 hc        1 BBU      0.035700
     14 H43        -1.1630   -0.9050    3.7960 hc        1 BBU      0.035700
@<TRIPOS>BOND
     1    1    2 1   
     2    2    3 1   
     3    2    6 1   
     4    2    7 1   
     5    3    4 1   
     6    3    8 1   
     7    3    9 1   
     8    4    5 1   
     9    4   10 1   
    10    4   11 1   
    11    5   12 1   
    12    5   13 1   
    13    5   14 1   
@<TRIPOS>SUBSTRUCTURE
     1 BBU         1 TEMP              0 ****  ****    0 ROOT
