@<TRIPOS>MOLECULE
BBV
   43    44     1     0     0
SMALL
bcc


@<TRIPOS>ATOM
      1 C1          0.6740    0.2040    1.0360 c3        1 BBV      0.317900
      2 O1         -0.5650    0.3110    0.3660 os        1 BBV     -0.446600
      3 C2          1.7970    0.7140    0.0850 c3        1 BBV      0.095700
      4 N2          1.6340    2.1060   -0.2260 n         1 BBV     -0.554900
      5 C3          1.8070   -0.2030   -1.1630 c3        1 BBV      0.131100
      6 O3          2.8750    0.2050   -1.9970 oh        1 BBV     -0.594800
      7 C4          2.0090   -1.6590   -0.7030 c3        1 BBV      0.081100
      8 O4          1.9640   -2.4370   -1.8910 oh        1 BBV     -0.601800
      9 C5          0.8900   -2.0610    0.2650 c3        1 BBV      0.071100
     10 O5          0.8380   -1.1590    1.3740 os        1 BBV     -0.448600
     11 C6          1.1410   -3.4390    0.8830 c3        1 BBV      0.136400
     12 O6          0.0720   -3.8300    1.7170 oh        1 BBV     -0.591800
     13 C7          2.5620    3.0620    0.1580 c         1 BBV      0.665100
     14 O7          3.4690    2.7910    0.9690 o         1 BBV     -0.605100
     15 C8          2.3930    4.4480   -0.4110 c3        1 BBV     -0.174100
     16 C1'        -2.9330    0.1980    0.4100 ca        1 BBV     -0.090300
     17 C2'        -2.9420   -0.3740   -0.8670 ca        1 BBV     -0.114500
     18 C3'        -4.1110    0.7440    0.9330 ca        1 BBV     -0.114500
     19 C4'        -4.1200   -0.4000   -1.6130 ca        1 BBV     -0.130500
     20 C5'        -5.2880    0.7100    0.1870 ca        1 BBV     -0.130500
     21 C6'        -5.2940    0.1390   -1.0860 ca        1 BBV     -0.126000
     22 C7'        -1.6950    0.2070    1.2410 c3        1 BBV      0.178700
     23 H1          0.6870    0.7440    2.0250 h2        1 BBV      0.093700
     24 H2          2.7770    0.5780    0.6390 h1        1 BBV      0.113700
     25 HN2         0.9780    2.3250   -0.9370 hn        1 BBV      0.317500
     26 H3          0.8310   -0.1210   -1.7200 h1        1 BBV      0.065700
     27 HO3         2.9280   -0.4470   -2.7100 ho        1 BBV      0.422000
     28 H4          3.0140   -1.7670   -0.2080 h1        1 BBV      0.062700
     29 HO4         2.1980   -3.3400   -1.6460 ho        1 BBV      0.411000
     30 H5         -0.1020   -2.0420   -0.2680 h1        1 BBV      0.080700
     31 H6          1.1790   -4.2170    0.0750 h1        1 BBV      0.051700
     32 H6A         2.1030   -3.4320    1.4610 h1        1 BBV      0.051700
     33 HO6        -0.0330   -3.1390    2.3850 ho        1 BBV      0.415000
     34 H8          2.5460    4.4310   -1.5180 hc        1 BBV      0.067367
     35 H8A         1.3740    4.8480   -0.1890 hc        1 BBV      0.067367
     36 H8B         3.1560    5.1200    0.0510 hc        1 BBV      0.067367
     37 H2'        -2.0110   -0.7940   -1.2770 ha        1 BBV      0.136500
     38 H3'        -4.1090    1.1990    1.9350 ha        1 BBV      0.136500
     39 H4'        -4.1220   -0.8490   -2.6160 ha        1 BBV      0.132500
     40 H5'        -6.2120    1.1370    0.6030 ha        1 BBV      0.132500
     41 H6'        -6.2230    0.1150   -1.6740 ha        1 BBV      0.132000
     42 H7'        -1.6150   -0.7490    1.8300 h1        1 BBV      0.045700
     43 H7'A       -1.6870    1.0800    1.9480 h1        1 BBV      0.045700
@<TRIPOS>BOND
     1    1    2 1   
     2    1    3 1   
     3    1   10 1   
     4    1   23 1   
     5    2   22 1   
     6    3    4 1   
     7    3    5 1   
     8    3   24 1   
     9    4   13 1   
    10    4   25 1   
    11    5    6 1   
    12    5    7 1   
    13    5   26 1   
    14    6   27 1   
    15    7    8 1   
    16    7    9 1   
    17    7   28 1   
    18    8   29 1   
    19    9   10 1   
    20    9   11 1   
    21    9   30 1   
    22   11   12 1   
    23   11   31 1   
    24   11   32 1   
    25   12   33 1   
    26   13   14 2   
    27   13   15 1   
    28   15   34 1   
    29   15   35 1   
    30   15   36 1   
    31   16   17 ar  
    32   16   18 ar  
    33   16   22 1   
    34   17   19 ar  
    35   17   37 1   
    36   18   20 ar  
    37   18   38 1   
    38   19   21 ar  
    39   19   39 1   
    40   20   21 ar  
    41   20   40 1   
    42   21   41 1   
    43   22   42 1   
    44   22   43 1   
@<TRIPOS>SUBSTRUCTURE
     1 BBV         1 TEMP              0 ****  ****    0 ROOT
