@<TRIPOS>MOLECULE
BBV
   44    45     1     0     0
SMALL
bcc


@<TRIPOS>ATOM
      1 C1         -0.0220   -0.2060   -0.0870 c3        1 BBV      0.329900
      2 O1         -0.5980   -1.3150    0.5600 os        1 BBV     -0.479600
      3 C2          1.5210   -0.3900    0.0220 c3        1 BBV      0.095500
      4 N2          1.9640   -1.6930   -0.5820 n4        1 BBV     -0.678800
      5 C3          1.9370   -0.3210    1.5080 c3        1 BBV      0.127100
      6 O3          3.3490   -0.4210    1.5300 oh        1 BBV     -0.636800
      7 C4          1.4350    1.0080    2.1040 c3        1 BBV      0.104100
      8 O4          1.8380    0.9580    3.4580 oh        1 BBV     -0.603800
      9 C5         -0.0890    1.0890    1.9380 c3        1 BBV      0.098100
     10 O5         -0.4400    0.9700    0.5520 os        1 BBV     -0.410600
     11 C6         -0.6480    2.4550    2.3610 c3        1 BBV      0.131400
     12 O6         -0.5880    2.4750    3.7760 oh        1 BBV     -0.617800
     13 C7          2.1760   -1.5760   -2.0770 c         1 BBV      0.555100
     14 O7          1.1690   -1.6480   -2.7640 o         1 BBV     -0.409100
     15 C8          3.5880   -1.3980   -2.5160 c3        1 BBV     -0.189100
     16 C1'        -2.4620   -2.6570    1.0950 ca        1 BBV     -0.124300
     17 C2'        -2.2230   -2.7670    2.4690 ca        1 BBV     -0.109500
     18 C3'        -3.1500   -3.6730    0.4240 ca        1 BBV     -0.109500
     19 C4'        -2.6720   -3.8860    3.1680 ca        1 BBV     -0.126000
     20 C5'        -3.6030   -4.7880    1.1290 ca        1 BBV     -0.126000
     21 C6'        -3.3640   -4.8960    2.4990 ca        1 BBV     -0.105000
     22 C7'        -2.0220   -1.4420    0.3530 c3        1 BBV      0.190700
     23 H1         -0.3600   -0.0960   -1.1590 h2        1 BBV      0.111700
     24 H2          2.0260    0.4480   -0.5420 hx        1 BBV      0.122700
     25 HN2         1.2370   -2.3970   -0.3790 hn        1 BBV      0.478800
     26 H3          1.4870   -1.1790    2.0880 h1        1 BBV      0.093700
     27 HO3         3.6460   -0.1230    2.4050 ho        1 BBV      0.470000
     28 H4          1.9350    1.8780    1.5940 h1        1 BBV      0.067700
     29 HO4         1.3460    1.6350    3.9470 ho        1 BBV      0.459000
     30 H5         -0.5830    0.2650    2.5250 h1        1 BBV      0.094700
     31 H6         -1.7040    2.5570    1.9980 h1        1 BBV      0.055700
     32 H6A        -0.0230    3.2850    1.9380 h1        1 BBV      0.055700
     33 HO6        -1.1020    3.2380    4.0720 ho        1 BBV      0.435000
     34 H8          4.0870   -0.5630   -1.9610 hc        1 BBV      0.116700
     35 H8A         4.1660   -2.3440   -2.3500 hc        1 BBV      0.116700
     36 H8B         3.5960   -1.1620   -3.6140 hc        1 BBV      0.116700
     37 H2'        -1.6820   -1.9640    2.9920 ha        1 BBV      0.133500
     38 H3'        -3.3450   -3.5910   -0.6560 ha        1 BBV      0.133500
     39 H4'        -2.4860   -3.9690    4.2500 ha        1 BBV      0.146000
     40 H5'        -4.1540   -5.5820    0.6020 ha        1 BBV      0.146000
     41 H6'        -3.7240   -5.7760    3.0530 ha        1 BBV      0.147000
     42 H7'        -2.5180   -0.5180    0.7540 h1        1 BBV      0.058200
     43 H7'A       -2.2170   -1.5300   -0.7490 h1        1 BBV      0.058200
     44 H22         2.8440   -1.9720   -0.1260 hn        1 BBV      0.478800
@<TRIPOS>BOND
     1    1    2 1   
     2    1    3 1   
     3    1   10 1   
     4    1   23 1   
     5    2   22 1   
     6    3    4 1   
     7    3    5 1   
     8    3   24 1   
     9    4   13 1   
    10    4   25 1   
    11    4   44 1   
    12    5    6 1   
    13    5    7 1   
    14    5   26 1   
    15    6   27 1   
    16    7    8 1   
    17    7    9 1   
    18    7   28 1   
    19    8   29 1   
    20    9   10 1   
    21    9   11 1   
    22    9   30 1   
    23   11   12 1   
    24   11   31 1   
    25   11   32 1   
    26   12   33 1   
    27   13   14 2   
    28   13   15 1   
    29   15   34 1   
    30   15   35 1   
    31   15   36 1   
    32   16   17 ar  
    33   16   18 ar  
    34   16   22 1   
    35   17   19 ar  
    36   17   37 1   
    37   18   20 ar  
    38   18   38 1   
    39   19   21 ar  
    40   19   39 1   
    41   20   21 ar  
    42   20   40 1   
    43   21   41 1   
    44   22   42 1   
    45   22   43 1   
@<TRIPOS>SUBSTRUCTURE
     1 BBV         1 TEMP              0 ****  ****    0 ROOT
