@<TRIPOS>MOLECULE
BBV
   44    45     1     0     0
SMALL
bcc


@<TRIPOS>ATOM
      1 C1         -0.0290   -0.2020   -0.0920 c3        1 BBV      0.328900
      2 O1         -0.6020   -1.3040    0.5730 os        1 BBV     -0.480600
      3 C2          1.5140   -0.3780    0.0240 c3        1 BBV      0.096500
      4 N2          1.9660   -1.6860   -0.5590 ny        1 BBV     -0.678800
      5 C3          1.9250   -0.2840    1.5110 c3        1 BBV      0.128100
      6 O3          3.3360   -0.3820    1.5430 oh        1 BBV     -0.635800
      7 C4          1.4190    1.0560    2.0760 c3        1 BBV      0.104100
      8 O4          1.7970    1.0300    3.4380 oh        1 BBV     -0.605800
      9 C5         -0.1060    1.1320    1.9070 c3        1 BBV      0.064100
     10 O5         -0.4580    0.9810    0.5260 os        1 BBV     -0.406600
     11 C6         -0.6540    2.5100    2.3090 c3        1 BBV      0.130400
     12 O6         -0.4060    2.7380    3.6780 oh        1 BBV     -0.595800
     13 C7          2.1750   -1.5920   -2.0570 c         1 BBV      0.555100
     14 O7          1.1670   -1.6740   -2.7400 o         1 BBV     -0.409100
     15 C8          3.5870   -1.4210   -2.5010 c3        1 BBV     -0.189100
     16 C1'        -2.4600   -2.6580    1.1020 ca        1 BBV     -0.123300
     17 C2'        -2.1270   -2.8130    2.4520 ca        1 BBV     -0.111000
     18 C3'        -3.2420   -3.6260    0.4620 ca        1 BBV     -0.111000
     19 C4'        -2.5760   -3.9280    3.1590 ca        1 BBV     -0.125000
     20 C5'        -3.6950   -4.7360    1.1750 ca        1 BBV     -0.125000
     21 C6'        -3.3620   -4.8880    2.5210 ca        1 BBV     -0.106000
     22 C7'        -2.0210   -1.4480    0.3520 c3        1 BBV      0.189700
     23 H1         -0.3640   -0.1120   -1.1670 h2        1 BBV      0.112700
     24 H2          2.0170    0.4550   -0.5510 hx        1 BBV      0.122700
     25 HN2         2.8480   -1.9530   -0.1000 hn        1 BBV      0.478300
     26 H3          1.4720   -1.1310    2.1030 h1        1 BBV      0.092700
     27 HO3         3.6270   -0.0710    2.4150 ho        1 BBV      0.469000
     28 H4          1.9170    1.9170    1.5490 h1        1 BBV      0.069700
     29 HO4         1.5020    1.8630    3.8410 ho        1 BBV      0.457000
     30 H5         -0.5940    0.3170    2.5090 h1        1 BBV      0.078700
     31 H6         -0.1040    3.3260    1.7680 h1        1 BBV      0.077200
     32 H6A        -1.7460    2.5670    2.0650 h1        1 BBV      0.077200
     33 HO6        -1.0710    2.2560    4.1870 ho        1 BBV      0.420000
     34 H8          4.1650   -2.3630   -2.3190 hc        1 BBV      0.116700
     35 H8A         3.5920   -1.2050   -3.6020 hc        1 BBV      0.116700
     36 H8B         4.0860   -0.5760   -1.9610 hc        1 BBV      0.116700
     37 H2'        -1.5100   -2.0500    2.9500 ha        1 BBV      0.132500
     38 H3'        -3.5100   -3.5090   -0.5990 ha        1 BBV      0.132500
     39 H4'        -2.3160   -4.0460    4.2210 ha        1 BBV      0.145500
     40 H5'        -4.3190   -5.4910    0.6720 ha        1 BBV      0.145500
     41 H6'        -3.7230   -5.7650    3.0810 ha        1 BBV      0.148000
     42 H7'        -2.2050   -1.5500   -0.7510 h1        1 BBV      0.058200
     43 H7'A       -2.5310   -0.5240    0.7370 h1        1 BBV      0.058200
     44 H22         1.2440   -2.3930   -0.3440 hn        1 BBV      0.478300
@<TRIPOS>BOND
     1    1    2 1   
     2    1    3 1   
     3    1   10 1   
     4    1   23 1   
     5    2   22 1   
     6    3    4 1   
     7    3    5 1   
     8    3   24 1   
     9    4   13 1   
    10    4   25 1   
    11    4   44 1   
    12    5    6 1   
    13    5    7 1   
    14    5   26 1   
    15    6   27 1   
    16    7    8 1   
    17    7    9 1   
    18    7   28 1   
    19    8   29 1   
    20    9   10 1   
    21    9   11 1   
    22    9   30 1   
    23   11   12 1   
    24   11   31 1   
    25   11   32 1   
    26   12   33 1   
    27   13   14 2   
    28   13   15 1   
    29   15   34 1   
    30   15   35 1   
    31   15   36 1   
    32   16   17 ar  
    33   16   18 ar  
    34   16   22 1   
    35   17   19 ar  
    36   17   37 1   
    37   18   20 ar  
    38   18   38 1   
    39   19   21 ar  
    40   19   39 1   
    41   20   21 ar  
    42   20   40 1   
    43   21   41 1   
    44   22   42 1   
    45   22   43 1   
@<TRIPOS>SUBSTRUCTURE
     1 BBV         1 TEMP              0 ****  ****    0 ROOT
