@<TRIPOS>MOLECULE
BBV
   43    41     1     0     0
SMALL
bcc


@<TRIPOS>ATOM
      1 C1         -0.0090    0.4150    0.3830 c3        1 BBV      0.129000
      2 O1         -0.4190    0.2260   -0.7410 os        1 BBV     -0.258000
      3 C2          1.5850    0.3760    0.4230 c3        1 BBV     -0.009000
      4 N2          2.0340   -0.8000   -0.2740 n         1 BBV     -0.357000
      5 C3          2.1610    0.3650    1.7990 c3        1 BBV      0.016000
      6 O3          1.8540    1.6660    2.4510 oh        1 BBV     -0.335000
      7 C4          1.6530   -0.6930    2.6260 c3        1 BBV      0.006000
      8 O4          2.1850   -2.0180    2.0940 oh        1 BBV     -0.325000
      9 C5          0.2160   -0.7700    2.6760 c3        1 BBV      0.010000
     10 O5         -0.4170   -0.8020    1.3610 os        1 BBV     -0.292000
     11 C6         -0.3310    0.4860    3.4650 c3        1 BBV     -0.057000
     12 O6         -1.3540    0.0700    4.3830 oh        1 BBV     -0.333000
     13 C7          3.2250   -0.7460   -1.0720 c2        1 BBV      0.312000
     14 O7          3.8490    0.2870   -1.1560 o         1 BBV     -0.383000
     15 C8          3.7040   -1.9820   -1.8060 c3        1 BBV     -0.240000
     16 C1'        -2.3530    0.8360   -2.0950 c1        1 BBV     -0.084000
     17 C2'        -3.6240    1.3140   -1.8080 c2        1 BBV     -0.128000
     18 C3'        -2.1650   -0.0410   -3.1490 c1        1 BBV     -0.103000
     19 C4'        -4.7100    0.9100   -2.5800 c1        1 BBV     -0.132000
     20 C5'        -3.2500   -0.4440   -3.9200 c1        1 BBV     -0.130500
     21 C6'        -4.5220    0.0330   -3.6330 c1        1 BBV     -0.130500
     22 C7'        -1.1400    1.3480   -1.2940 c2        1 BBV      0.022000
     23 H1         -0.3360    1.2490    0.7270 h2        1 BBV      0.092000
     24 H2          1.9250    1.1650   -0.0480 h1        1 BBV      0.141000
     25 HN2         1.5440   -1.5530   -0.2470 hn        1 BBV      0.244000
     26 H3          3.1240    0.2710    1.7310 h1        1 BBV      0.114000
     27 HO3         2.5940    2.1690    2.4760 ho        1 BBV      0.214000
     28 H4          1.9870   -0.5650    3.5280 h1        1 BBV      0.113000
     29 HO4         2.5050   -2.5110    2.7800 ho        1 BBV      0.210000
     30 H5         -0.0360   -1.5830    3.1650 h1        1 BBV      0.131000
     31 H6          0.4030    0.9060    3.9600 h1        1 BBV      0.085500
     32 H6A        -0.7130    1.1410    2.8210 h1        1 BBV      0.085500
     33 HO6        -1.5500    0.7480    4.9410 ho        1 BBV      0.207000
     34 H8          4.2700   -1.7120   -2.5710 hc        1 BBV      0.106000
     35 H8A         2.9360   -2.4850   -2.1310 hc        1 BBV      0.106000
     36 H8B         4.2290   -2.5440   -1.1940 hc        1 BBV      0.106000
     37 H2'        -3.7570    1.9290   -1.0690 ha        1 BBV      0.129000
     38 H3'        -1.2780   -0.3750   -3.3490 ha        1 BBV      0.154000
     39 H4'        -5.6060    1.2460   -2.3780 ha        1 BBV      0.130000
     40 H5'        -3.1170   -1.0670   -4.6680 ha        1 BBV      0.131500
     41 H6'        -5.2830   -0.2500   -4.1740 ha        1 BBV      0.131500
     42 H7'        -0.5600    1.8480   -1.8770 h4        1 BBV      0.084500
     43 H7'A       -1.4540    1.9360   -0.5570 h4        1 BBV      0.084500
@<TRIPOS>BOND
     1    1    2 1   
     2    1    3 1   
     3    1   10 1   
     4    1   23 1   
     5    2   22 1   
     6    3    4 1   
     7    3    5 1   
     8    3   24 1   
     9    4   13 1   
    10    4   25 1   
    11    5    6 1   
    12    5    7 1   
    13    5   26 1   
    14    6   27 1   
    15    7    8 1   
    16    7    9 1   
    17    7   28 1   
    18    8   29 1   
    19    9   10 1   
    20    9   11 1   
    21    9   30 1   
    22   11   12 1   
    23   11   31 1   
    24   11   32 1   
    25   12   33 1   
    26   13   14 1   
    27   13   15 1   
    28   15   34 1   
    29   15   35 1   
    30   15   36 1   
    31   16   17 1   
    32   16   18 1   
    33   17   19 1   
    34   17   37 1   
    35   18   38 1   
    36   19   39 1   
    37   20   21 1   
    38   20   40 1   
    39   21   41 1   
    40   22   42 1   
    41   22   43 1   
@<TRIPOS>SUBSTRUCTURE
     1 BBV         1 TEMP              0 ****  ****    0 ROOT
