@<TRIPOS>MOLECULE
BBV
   44    45     1     0     0
SMALL
bcc


@<TRIPOS>ATOM
      1 C1         -0.0350   -0.2020   -0.0910 c3        1 BBV      0.328900
      2 O1         -0.6050   -1.3030    0.5770 os        1 BBV     -0.480600
      3 C2          1.5080   -0.3790    0.0170 c3        1 BBV      0.096500
      4 N2          1.9560   -1.6880   -0.5700 n4        1 BBV     -0.678800
      5 C3          1.9280   -0.2850    1.5010 c3        1 BBV      0.128100
      6 O3          3.3390   -0.3840    1.5240 oh        1 BBV     -0.635800
      7 C4          1.4260    1.0550    2.0690 c3        1 BBV      0.104100
      8 O4          1.8120    1.0300    3.4280 oh        1 BBV     -0.605800
      9 C5         -0.1000    1.1330    1.9080 c3        1 BBV      0.064100
     10 O5         -0.4600    0.9820    0.5290 os        1 BBV     -0.406600
     11 C6         -0.6450    2.5110    2.3130 c3        1 BBV      0.130400
     12 O6         -0.3890    2.7390    3.6810 oh        1 BBV     -0.595800
     13 C7          2.1570   -1.5930   -2.0680 c         1 BBV      0.555100
     14 O7          1.1440   -1.6750   -2.7450 o         1 BBV     -0.409100
     15 C8          3.5660   -1.4230   -2.5200 c3        1 BBV     -0.189100
     16 C1'        -2.4610   -2.6550    1.1180 ca        1 BBV     -0.123300
     17 C2'        -2.1210   -2.8100    2.4660 ca        1 BBV     -0.111000
     18 C3'        -3.2480   -3.6230    0.4830 ca        1 BBV     -0.111000
     19 C4'        -2.5670   -3.9240    3.1760 ca        1 BBV     -0.125000
     20 C5'        -3.6980   -4.7310    1.1990 ca        1 BBV     -0.125000
     21 C6'        -3.3570   -4.8840    2.5430 ca        1 BBV     -0.106000
     22 C7'        -2.0260   -1.4460    0.3640 c3        1 BBV      0.189700
     23 H1         -0.3760   -0.1120   -1.1640 h2        1 BBV      0.112700
     24 H2          2.0090    0.4530   -0.5620 hx        1 BBV      0.122700
     25 HN2         2.8400   -1.9540   -0.1160 hn        1 BBV      0.478300
     26 H3          1.4770   -1.1310    2.0950 h1        1 BBV      0.092700
     27 HO3         3.6350   -0.0740    2.3950 ho        1 BBV      0.469000
     28 H4          1.9210    1.9160    1.5390 h1        1 BBV      0.069700
     29 HO4         1.5200    1.8630    3.8330 ho        1 BBV      0.457000
     30 H5         -0.5860    0.3180    2.5130 h1        1 BBV      0.078700
     31 H6         -1.7380    2.5690    2.0750 h1        1 BBV      0.077200
     32 H6A        -0.0970    3.3260    1.7690 h1        1 BBV      0.077200
     33 HO6        -1.0510    2.2580    4.1940 ho        1 BBV      0.420000
     34 H8          4.0680   -0.5780   -1.9830 hc        1 BBV      0.116700
     35 H8A         3.5650   -1.2080   -3.6220 hc        1 BBV      0.116700
     36 H8B         4.1450   -2.3660   -2.3410 hc        1 BBV      0.116700
     37 H2'        -1.5000   -2.0470    2.9590 ha        1 BBV      0.132500
     38 H3'        -3.5220   -3.5060   -0.5760 ha        1 BBV      0.132500
     39 H4'        -2.3000   -4.0420    4.2370 ha        1 BBV      0.145500
     40 H5'        -4.3260   -5.4860    0.7010 ha        1 BBV      0.145500
     41 H6'        -3.7160   -5.7600    3.1060 ha        1 BBV      0.148000
     42 H7'        -2.2160   -1.5490   -0.7380 h1        1 BBV      0.058200
     43 H7'A       -2.5330   -0.5220    0.7520 h1        1 BBV      0.058200
     44 H22         1.2340   -2.3930   -0.3510 hn        1 BBV      0.478300
@<TRIPOS>BOND
     1    1    2 1   
     2    1    3 1   
     3    1   10 1   
     4    1   23 1   
     5    2   22 1   
     6    3    4 1   
     7    3    5 1   
     8    3   24 1   
     9    4   13 1   
    10    4   25 1   
    11    4   44 1   
    12    5    6 1   
    13    5    7 1   
    14    5   26 1   
    15    6   27 1   
    16    7    8 1   
    17    7    9 1   
    18    7   28 1   
    19    8   29 1   
    20    9   10 1   
    21    9   11 1   
    22    9   30 1   
    23   11   12 1   
    24   11   31 1   
    25   11   32 1   
    26   12   33 1   
    27   13   14 2   
    28   13   15 1   
    29   15   34 1   
    30   15   35 1   
    31   15   36 1   
    32   16   17 ar  
    33   16   18 ar  
    34   16   22 1   
    35   17   19 ar  
    36   17   37 1   
    37   18   20 ar  
    38   18   38 1   
    39   19   21 ar  
    40   19   39 1   
    41   20   21 ar  
    42   20   40 1   
    43   21   41 1   
    44   22   42 1   
    45   22   43 1   
@<TRIPOS>SUBSTRUCTURE
     1 BBV         1 TEMP              0 ****  ****    0 ROOT
