@<TRIPOS>MOLECULE
BBX
    8     7     1     0     0
SMALL
bcc


@<TRIPOS>ATOM
      1 BR1        -0.0380   -0.0000   -0.6400 br        1 BBX     -0.181400
      2 C1         -0.6700    0.0000    1.1820 c3        1 BBX     -0.008000
      3 C2          0.4320    0.0000    2.1980 c3        1 BBX     -0.097100
      4 H11        -1.3080   -0.9080    1.2880 h1        1 BBX      0.070700
      5 H12        -1.3080    0.9080    1.2880 h1        1 BBX      0.070700
      6 H21        -0.0110    0.0000    3.2260 hc        1 BBX      0.048367
      7 H22         1.0780   -0.9060    2.0960 hc        1 BBX      0.048367
      8 H23         1.0780    0.9060    2.0960 hc        1 BBX      0.048367
@<TRIPOS>BOND
     1    1    2 1   
     2    2    3 1   
     3    2    4 1   
     4    2    5 1   
     5    3    6 1   
     6    3    7 1   
     7    3    8 1   
@<TRIPOS>SUBSTRUCTURE
     1 BBX         1 TEMP              0 ****  ****    0 ROOT
