@<TRIPOS>MOLECULE
BBX
    8     7     1     0     0
SMALL
bcc


@<TRIPOS>ATOM
      1 BR1         0.0250    0.0000   -0.0800 br        1 BBX     -0.181400
      2 C1          1.9510   -0.0000    0.0310 c3        1 BBX     -0.008000
      3 C2          2.4690   -0.0000    1.4380 c3        1 BBX     -0.097100
      4 H11         2.2920    0.9080   -0.5180 h1        1 BBX      0.070700
      5 H12         2.2920   -0.9080   -0.5180 h1        1 BBX      0.070700
      6 H21         3.5880   -0.0000    1.4210 hc        1 BBX      0.048367
      7 H22         2.1280   -0.9060    1.9960 hc        1 BBX      0.048367
      8 H23         2.1280    0.9060    1.9960 hc        1 BBX      0.048367
@<TRIPOS>BOND
     1    1    2 1   
     2    2    3 1   
     3    2    4 1   
     4    2    5 1   
     5    3    6 1   
     6    3    7 1   
     7    3    8 1   
@<TRIPOS>SUBSTRUCTURE
     1 BBX         1 TEMP              0 ****  ****    0 ROOT
