@<TRIPOS>MOLECULE
BBX
    8     7     1     0     0
SMALL
bcc


@<TRIPOS>ATOM
      1 BR1        -2.0470    0.0000   -0.7130 br        1 BBX     -0.181400
      2 C1         -0.1350    0.0000   -0.7130 c3        1 BBX     -0.008000
      3 C2          0.3690    0.0000    0.7130 c3        1 BBX     -0.097100
      4 H11         0.1900    0.7970   -1.1730 h1        1 BBX      0.070700
      5 H12         0.1900   -0.7970   -1.1730 h1        1 BBX      0.070700
      6 H21         0.0440   -0.7970    1.1730 hc        1 BBX      0.048367
      7 H22         1.3450   -0.0000    0.7130 hc        1 BBX      0.048367
      8 H23         0.0440    0.7970    1.1730 hc        1 BBX      0.048367
@<TRIPOS>BOND
     1    1    2 1   
     2    2    3 1   
     3    2    4 1   
     4    2    5 1   
     5    3    6 1   
     6    3    7 1   
     7    3    8 1   
@<TRIPOS>SUBSTRUCTURE
     1 BBX         1 TEMP              0 ****  ****    0 ROOT
