@<TRIPOS>MOLECULE
BBY
   27    22     1     0     0
SMALL
bcc


@<TRIPOS>ATOM
      1 C1         -1.3280   -0.0700    0.2070 c1        1 BBY     -0.098000
      2 C2          0.0870   -0.0770    0.1750 c1        1 BBY     -0.021000
      3 C3          0.8160   -0.1420    1.3770 c1        1 BBY     -0.086000
      4 C4          0.1350   -0.2020    2.6100 c1        1 BBY     -0.161000
      5 C5         -1.3020   -0.1950    2.6370 c1        1 BBY      0.044000
      6 C6         -2.0140   -0.1300    1.4550 c1        1 BBY      0.010000
      7 O7         -3.4170   -0.0070    1.7840 os        1 BBY     -0.214000
      8 C8         -3.5440   -0.0510    3.1940 c3        1 BBY      0.098000
      9 O9         -2.2560   -0.2080    3.7370 os        1 BBY     -0.201000
     10 C10         0.7660   -0.1080   -1.0690 c1        1 BBY     -0.023500
     11 N11         1.2450    0.9560   -1.7220 n2        1 BBY     -0.116000
     12 N12         1.9500    0.5000   -2.8270 n2        1 BBY     -0.116000
     13 C13         1.8920   -0.8510   -2.8340 c1        1 BBY     -0.023500
     14 C14         1.1620   -1.2430   -1.7510 c1        1 BBY     -0.238000
     15 BR15        1.1120   -0.4370    4.2330 br        1 BBY      0.096000
     16 C16         1.1540    2.3420   -1.2710 c2        1 BBY     -0.060000
     17 N17         2.3170   -1.7160   -3.9350 n2        1 BBY     -0.277000
     18 H1         -1.8870   -0.0200   -0.7120 ha        1 BBY      0.163000
     19 H3          1.7740   -0.1460    1.3580 ha        1 BBY      0.164000
     20 H8         -3.9150    0.7750    3.5030 h2        1 BBY      0.117500
     21 H8A        -4.1250   -0.8620    3.4570 h2        1 BBY      0.117500
     22 H14         0.9550   -2.1780   -1.4980 DU        1 BBY      0.169000
     23 H16         0.2500    2.5420   -1.0390 ha        1 BBY      0.099333
     24 H16A        1.7390    2.4690   -0.4700 ha        1 BBY      0.099333
     25 H16B        1.4700    2.9890   -2.0490 ha        1 BBY      0.099333
     26 HN17        2.0720   -2.5460   -3.9520 hn        1 BBY      0.180000
     27 HN1A        2.8900   -1.3830   -4.6010 hn        1 BBY      0.180000
@<TRIPOS>BOND
     1    1    6 1   
     2    1   18 1   
     3    2    3 1   
     4    3   19 1   
     5    4    5 1   
     6    4   15 1   
     7    5    9 1   
     8    6    7 1   
     9    7    8 1   
    10    8    9 1   
    11    8   20 1   
    12    8   21 1   
    13   10   11 1   
    14   10   14 1   
    15   11   12 1   
    16   12   13 1   
    17   13   14 1   
    18   16   23 1   
    19   16   24 1   
    20   16   25 1   
    21   17   26 1   
    22   17   27 1   
@<TRIPOS>SUBSTRUCTURE
     1 BBY         1 TEMP              0 ****  ****    0 ROOT
