@<TRIPOS>MOLECULE
BBY
   28    30     1     0     0
SMALL
bcc


@<TRIPOS>ATOM
      1 C1         -0.0030    0.3830   -0.0430 ca        1 BBY     -0.097000
      2 C2          1.3700    0.0340   -0.0060 ca        1 BBY     -0.084000
      3 C3          2.0150   -0.2780    1.1920 ca        1 BBY     -0.065000
      4 C4          1.3410   -0.2640    2.4330 ca        1 BBY     -0.031900
      5 C5          0.0010    0.0770    2.3940 ca        1 BBY      0.125100
      6 C6         -0.6550    0.3950    1.1670 ca        1 BBY      0.067100
      7 O7         -1.9830    0.6980    1.4220 os        1 BBY     -0.320900
      8 C8         -2.1790    0.5720    2.8530 c3        1 BBY      0.319200
      9 O9         -0.9060    0.1760    3.4300 os        1 BBY     -0.301900
     10 C10         2.1430    0.0310   -1.2340 cc        1 BBY      0.008700
     11 N11         1.7600   -0.5930   -2.4450 na        1 BBY      0.161400
     12 N12         2.6590   -0.4330   -3.4020 nc        1 BBY     -0.451800
     13 C13         3.6880    0.3100   -2.8420 cd        1 BBY      0.282200
     14 C14         3.4010    0.6250   -1.4650 cd        1 BBY     -0.243300
     15 BR15        2.2460   -0.6870    4.0010 br        1 BBY     -0.007100
     16 C16         0.5190   -1.3270   -2.6450 c3        1 BBY      0.014600
     17 N17         4.8730    0.7010   -3.5710 n4        1 BBY     -0.768300
     18 H1         -0.5120    0.6460   -0.9800 ha        1 BBY      0.163000
     19 H3          3.0850   -0.5470    1.1740 ha        1 BBY      0.156000
     20 H8         -2.9220   -0.2410    3.0430 h2        1 BBY      0.095700
     21 H8A        -2.4590    1.5720    3.2660 h2        1 BBY      0.095700
     22 H14         4.0000    1.1960   -0.7610 ha        1 BBY      0.195000
     23 H16        -0.2390   -0.6470   -3.1200 h1        1 BBY      0.092033
     24 H16A        0.6950   -2.2150   -3.3110 h1        1 BBY      0.092033
     25 H16B        0.1520   -1.6690   -1.6400 h1        1 BBY      0.092033
     26 HN17        5.4680    1.2560   -2.9450 hn        1 BBY      0.470467
     27 HN1A        5.3850   -0.1340   -3.8850 hn        1 BBY      0.470467
     28 H173        4.6140    1.2650   -4.3910 hn        1 BBY      0.470467
@<TRIPOS>BOND
     1    1    2 ar  
     2    1    6 ar  
     3    1   18 1   
     4    2    3 ar  
     5    2   10 1   
     6    3    4 ar  
     7    3   19 1   
     8    4    5 ar  
     9    4   15 1   
    10    5    6 ar  
    11    5    9 1   
    12    6    7 1   
    13    7    8 1   
    14    8    9 1   
    15    8   20 1   
    16    8   21 1   
    17   10   11 1   
    18   10   14 2   
    19   11   12 1   
    20   11   16 1   
    21   12   13 2   
    22   13   14 1   
    23   13   17 1   
    24   14   22 1   
    25   16   23 1   
    26   16   24 1   
    27   16   25 1   
    28   17   26 1   
    29   17   27 1   
    30   17   28 1   
@<TRIPOS>SUBSTRUCTURE
     1 BBY         1 TEMP              0 ****  ****    0 ROOT
