@<TRIPOS>MOLECULE
BBY
   27    29     1     0     0
SMALL
bcc


@<TRIPOS>ATOM
      1 C1         -0.0050    0.3460   -0.0420 ca        1 BBY     -0.098000
      2 C2          1.3750    0.0350   -0.0090 ca        1 BBY     -0.021000
      3 C3          2.0310   -0.2320    1.1970 ca        1 BBY     -0.086000
      4 C4          1.3610   -0.2090    2.4380 ca        1 BBY     -0.020900
      5 C5          0.0110    0.0910    2.3990 ca        1 BBY      0.089100
      6 C6         -0.6540    0.3640    1.1720 ca        1 BBY      0.055100
      7 O7         -1.9940    0.6350    1.4270 os        1 BBY     -0.330900
      8 C8         -2.1770    0.5330    2.8580 c3        1 BBY      0.320200
      9 O9         -0.8990    0.1860    3.4420 os        1 BBY     -0.317900
     10 C10         2.1490    0.0240   -1.2370 cc        1 BBY     -0.048300
     11 N11         1.7470   -0.5450   -2.4600 na        1 BBY      0.100400
     12 N12         2.6760   -0.3910   -3.4160 nc        1 BBY     -0.551800
     13 C13         3.7330    0.2870   -2.8390 cd        1 BBY      0.498200
     14 C14         3.4260    0.5720   -1.4450 cd        1 BBY     -0.303300
     15 BR15        2.2810   -0.5710    4.0160 br        1 BBY     -0.044100
     16 C16         0.5230   -1.2780   -2.6750 c3        1 BBY      0.038600
     17 N17         4.9550    0.5750   -3.4570 nh        1 BBY     -0.879500
     18 H1         -0.5230    0.5750   -0.9830 ha        1 BBY      0.163000
     19 H3          3.1090   -0.4670    1.1730 ha        1 BBY      0.164000
     20 H8         -2.9000   -0.2930    3.0690 h2        1 BBY      0.078200
     21 H8A        -2.4890    1.5320    3.2510 h2        1 BBY      0.078200
     22 H14         4.0510    1.0940   -0.7320 ha        1 BBY      0.169000
     23 H16        -0.2520   -0.5940   -3.1160 h1        1 BBY      0.060033
     24 H16A        0.6960   -2.1340   -3.3800 h1        1 BBY      0.060033
     25 H16B        0.1580   -1.6720   -1.6900 h1        1 BBY      0.060033
     26 HN17        5.2940    1.4750   -3.1840 hn        1 BBY      0.384800
     27 HN1A        4.9370    0.4710   -4.4510 hn        1 BBY      0.384800
@<TRIPOS>BOND
     1    1    2 ar  
     2    1    6 ar  
     3    1   18 1   
     4    2    3 ar  
     5    2   10 1   
     6    3    4 ar  
     7    3   19 1   
     8    4    5 ar  
     9    4   15 1   
    10    5    6 ar  
    11    5    9 1   
    12    6    7 1   
    13    7    8 1   
    14    8    9 1   
    15    8   20 1   
    16    8   21 1   
    17   10   11 1   
    18   10   14 2   
    19   11   12 1   
    20   11   16 1   
    21   12   13 2   
    22   13   14 1   
    23   13   17 1   
    24   14   22 1   
    25   16   23 1   
    26   16   24 1   
    27   16   25 1   
    28   17   26 1   
    29   17   27 1   
@<TRIPOS>SUBSTRUCTURE
     1 BBY         1 TEMP              0 ****  ****    0 ROOT
