@<TRIPOS>MOLECULE
BBY
   27    29     1     0     0
SMALL
bcc


@<TRIPOS>ATOM
      1 C1         -0.0060    0.3430   -0.0440 ca        1 BBY     -0.098000
      2 C2          1.3750    0.0370   -0.0090 ca        1 BBY     -0.021000
      3 C3          2.0320   -0.2220    1.1980 ca        1 BBY     -0.086000
      4 C4          1.3610   -0.1940    2.4390 ca        1 BBY     -0.020900
      5 C5          0.0110    0.1010    2.3980 ca        1 BBY      0.089100
      6 C6         -0.6550    0.3650    1.1700 ca        1 BBY      0.055100
      7 O7         -1.9960    0.6340    1.4240 os        1 BBY     -0.330900
      8 C8         -2.1790    0.5390    2.8550 c3        1 BBY      0.320200
      9 O9         -0.9000    0.1990    3.4410 os        1 BBY     -0.317900
     10 C10         2.1490    0.0220   -1.2370 cc        1 BBY     -0.048300
     11 N11         1.7490   -0.5540   -2.4570 na        1 BBY      0.100400
     12 N12         2.6780   -0.4030   -3.4140 nc        1 BBY     -0.551800
     13 C13         3.7320    0.2820   -2.8410 cd        1 BBY      0.498200
     14 C14         3.4240    0.5730   -1.4480 cd        1 BBY     -0.303300
     15 Br15        2.2830   -0.5450    4.0190 br        1 BBY     -0.044100
     16 C16         0.5270   -1.2920   -2.6690 c3        1 BBY      0.038600
     17 N17         4.9540    0.5700   -3.4590 nv        1 BBY     -0.879500
     18 H1         -0.5250    0.5660   -0.9860 ha        1 BBY      0.163000
     19 H3          3.1100   -0.4540    1.1750 ha        1 BBY      0.164000
     20 H8         -2.4940    1.5390    3.2430 h2        1 BBY      0.078200
     21 H8A        -2.8990   -0.2880    3.0700 h2        1 BBY      0.078200
     22 H14         4.0470    1.1000   -0.7370 ha        1 BBY      0.169000
     23 H16         0.1640   -1.6820   -1.6820 h1        1 BBY      0.060033
     24 H16A       -0.2500   -0.6130   -3.1130 h1        1 BBY      0.060033
     25 H16B        0.7030   -2.1510   -3.3700 h1        1 BBY      0.060033
     26 HN17        4.9350    0.4620   -4.4530 hn        1 BBY      0.384800
     27 HN1A        5.2890    1.4730   -3.1910 hn        1 BBY      0.384800
@<TRIPOS>BOND
     1    1    2 ar  
     2    1    6 ar  
     3    1   18 1   
     4    2    3 ar  
     5    2   10 1   
     6    3    4 ar  
     7    3   19 1   
     8    4    5 ar  
     9    4   15 1   
    10    5    6 ar  
    11    5    9 1   
    12    6    7 1   
    13    7    8 1   
    14    8    9 1   
    15    8   20 1   
    16    8   21 1   
    17   10   11 1   
    18   10   14 2   
    19   11   12 1   
    20   11   16 1   
    21   12   13 2   
    22   13   14 1   
    23   13   17 1   
    24   14   22 1   
    25   16   23 1   
    26   16   24 1   
    27   16   25 1   
    28   17   26 1   
    29   17   27 1   
@<TRIPOS>SUBSTRUCTURE
     1 BBY         1 TEMP              0 ****  ****    0 ROOT
