@<TRIPOS>MOLECULE
BBY
   27    29     1     0     0
SMALL
bcc


@<TRIPOS>ATOM
      1 C1         -0.4720    1.6560   -0.4610 ca        1 BBY     -0.096000
      2 C2         -0.8920    0.3610   -0.0750 ca        1 BBY     -0.020000
      3 C3          0.0300   -0.6270    0.2810 ca        1 BBY     -0.087000
      4 C4          1.4220   -0.3920    0.2800 ca        1 BBY     -0.020900
      5 C5          1.8260    0.8770   -0.0920 ca        1 BBY      0.089100
      6 C6          0.8860    1.8800   -0.4570 ca        1 BBY      0.055100
      7 O7          1.5660    3.0480   -0.7860 os        1 BBY     -0.330900
      8 C8          2.9760    2.7700   -0.6300 c3        1 BBY      0.320200
      9 O9          3.1090    1.3980   -0.1870 os        1 BBY     -0.317900
     10 C10        -2.3050    0.0230   -0.0810 cc        1 BBY     -0.048300
     11 N11        -3.3440    0.8170    0.4380 na        1 BBY      0.100400
     12 N12        -4.5450    0.2360    0.2880 nc        1 BBY     -0.551800
     13 C13        -4.3270   -0.9690   -0.3530 cd        1 BBY      0.499200
     14 C14        -2.9020   -1.1420   -0.5920 cd        1 BBY     -0.304300
     15 BR15        2.6090   -1.7430    0.7620 br        1 BBY     -0.045100
     16 C16        -3.1760    2.1070    1.0620 c3        1 BBY      0.038600
     17 N17        -5.3200   -1.8470   -0.8000 nh        1 BBY     -0.879500
     18 H1         -1.1900    2.4300   -0.7620 ha        1 BBY      0.164000
     19 H3         -0.3440   -1.6240    0.5690 ha        1 BBY      0.161000
     20 H8          3.4740    2.8720   -1.6260 h2        1 BBY      0.078200
     21 H8A         3.3880    3.4410    0.1640 h2        1 BBY      0.078200
     22 H14        -2.4180   -1.9770   -1.0820 ha        1 BBY      0.169000
     23 H16        -3.3230    2.9200    0.3000 h1        1 BBY      0.059367
     24 H16A       -3.9240    2.2430    1.8870 h1        1 BBY      0.059367
     25 H16B       -2.1380    2.1710    1.4820 h1        1 BBY      0.059367
     26 HN17       -6.2180   -1.6770   -0.3960 hn        1 BBY      0.384800
     27 HN1A       -5.0360   -2.7990   -0.6870 hn        1 BBY      0.384800
@<TRIPOS>BOND
     1    1    2 ar  
     2    1    6 ar  
     3    1   18 1   
     4    2    3 ar  
     5    2   10 1   
     6    3    4 ar  
     7    3   19 1   
     8    4    5 ar  
     9    4   15 1   
    10    5    6 ar  
    11    5    9 1   
    12    6    7 1   
    13    7    8 1   
    14    8    9 1   
    15    8   20 1   
    16    8   21 1   
    17   10   11 1   
    18   10   14 2   
    19   11   12 1   
    20   11   16 1   
    21   12   13 2   
    22   13   14 1   
    23   13   17 1   
    24   14   22 1   
    25   16   23 1   
    26   16   24 1   
    27   16   25 1   
    28   17   26 1   
    29   17   27 1   
@<TRIPOS>SUBSTRUCTURE
     1 BBY         1 TEMP              0 ****  ****    0 ROOT
