@<TRIPOS>MOLECULE
BBZ
   63    68     1     0     0
SMALL
bcc


@<TRIPOS>ATOM
      1 C           1.0490   -0.1020   -8.5540 ca        1 BBZ      0.160600
      2 C1          0.0750    0.0870   -5.9040 ca        1 BBZ     -0.156900
      3 C2          1.9190    0.1650   -7.4720 ca        1 BBZ     -0.179500
      4 C3          1.4380    0.2610   -6.1720 ca        1 BBZ     -0.072000
      5 C4         -0.3270   -0.2820   -8.2650 ca        1 BBZ     -0.179500
      6 C5         -0.7980   -0.1910   -6.9630 ca        1 BBZ     -0.072000
      7 N           1.4920   -0.1120   -9.8970 nh        1 BBZ     -0.646000
      8 C6         -0.4120    0.1870   -4.5280 cc        1 BBZ      0.482400
      9 C7         -0.5840    0.1250   -2.3360 ca        1 BBZ      0.060400
     10 C8         -1.8400    0.6530   -2.8440 ca        1 BBZ     -0.060200
     11 C9         -2.8780    1.0180   -1.9780 ca        1 BBZ     -0.139000
     12 C10        -2.6680    0.8510   -0.6190 ca        1 BBZ     -0.102000
     13 C11        -1.4550    0.3310   -0.1130 ca        1 BBZ     -0.145900
     14 C12        -0.4050   -0.0290   -0.9560 ca        1 BBZ     -0.019000
     15 N1          0.2770   -0.1540   -3.4140 nd        1 BBZ     -0.556100
     16 N2         -1.7130    0.6740   -4.2310 na        1 BBZ     -0.281300
     17 C13        -1.2860    0.1730    1.3350 cc        1 BBZ      0.478400
     18 C14        -0.4560    0.0980    3.3710 ca        1 BBZ      0.086400
     19 C15        -1.8490   -0.3000    3.4670 ca        1 BBZ     -0.090200
     20 C16        -2.4120   -0.6390    4.6990 ca        1 BBZ     -0.117000
     21 C17        -1.6040   -0.5780    5.8230 ca        1 BBZ     -0.154000
     22 C18        -0.2340   -0.1980    5.7580 ca        1 BBZ      0.106600
     23 N3         -0.1430    0.3860    2.0270 nd        1 BBZ     -0.564100
     24 N4         -2.3590   -0.2320    2.1690 na        1 BBZ     -0.283300
     25 C19         0.3400    0.1410    4.5190 ca        1 BBZ     -0.095000
     26 N5          0.6080   -0.2180    6.9070 nh        1 BBZ     -0.633000
     27 N6          1.7780    0.2380    9.5280 n3        1 BBZ     -0.733600
     28 C20         0.0810   -0.8900    8.0810 c3        1 BBZ      0.183300
     29 C21         1.1410   -1.0280    9.1930 c3        1 BBZ      0.165800
     30 C22         2.2770    0.9340    8.3500 c3        1 BBZ      0.165800
     31 C23         1.2230    1.0620    7.2320 c3        1 BBZ      0.183300
     32 C24         2.7880    0.0940   10.5520 c3        1 BBZ      0.157100
     33 CN1         2.8420    0.3320  -10.1410 c3        1 BBZ      0.175100
     34 CN2         1.1010   -1.2470  -10.7000 c3        1 BBZ      0.175100
     35 H2          2.9990    0.2990   -7.6400 ha        1 BBZ      0.140000
     36 H3          2.1390    0.4660   -5.3470 ha        1 BBZ      0.143000
     37 H4         -1.0440   -0.4840   -9.0750 ha        1 BBZ      0.140000
     38 H5         -1.8710   -0.3530   -6.7750 ha        1 BBZ      0.143000
     39 H9         -3.8230    1.4270   -2.3600 ha        1 BBZ      0.138000
     40 H10        -3.4630    1.1530    0.0810 ha        1 BBZ      0.133000
     41 H12         0.5430   -0.4210   -0.5550 ha        1 BBZ      0.172000
     42 HN2        -2.3610    1.0340   -4.8780 hn        1 BBZ      0.307700
     43 H16        -3.4650   -0.9410    4.7800 ha        1 BBZ      0.133000
     44 H17        -2.0570   -0.8370    6.7930 ha        1 BBZ      0.133000
     45 HN4        -3.2530   -0.5130    1.8720 hn        1 BBZ      0.304700
     46 H19         1.3990    0.4270    4.4340 ha        1 BBZ      0.154000
     47 H201       -0.2400   -1.9270    7.7800 h1        1 BBZ      0.042950
     48 H202       -0.8140   -0.3510    8.5090 h1        1 BBZ      0.042950
     49 H211        1.8970   -1.8060    8.8790 h1        1 BBZ      0.038200
     50 H212        0.6200   -1.4040   10.1170 h1        1 BBZ      0.038200
     51 H221        2.5680    1.9750    8.6650 h1        1 BBZ      0.038200
     52 H222        3.1950    0.4310    7.9260 h1        1 BBZ      0.038200
     53 H231        1.7400    1.4560    6.3140 h1        1 BBZ      0.042950
     54 H232        0.4490    1.8190    7.5500 h1        1 BBZ      0.042950
     55 H241        3.1740    1.1110   10.8220 h1        1 BBZ      0.032033
     56 H242        2.3170   -0.3670   11.4590 h1        1 BBZ      0.032033
     57 H243        3.6570   -0.5460   10.2360 h1        1 BBZ      0.032033
     58 HN11        2.9790    0.4520  -11.2490 h1        1 BBZ      0.039367
     59 HN12        3.0010    1.3280   -9.6500 h1        1 BBZ      0.039367
     60 HN13        3.6180   -0.3890   -9.7630 h1        1 BBZ      0.039367
     61 HN21        0.0420   -1.5400  -10.4810 h1        1 BBZ      0.039367
     62 HN22        1.1760   -0.9540  -11.7810 h1        1 BBZ      0.039367
     63 HN23        1.7610   -2.1410  -10.5240 h1        1 BBZ      0.039367
@<TRIPOS>BOND
     1    1    3 ar  
     2    1    5 ar  
     3    1    7 1   
     4    2    4 ar  
     5    2    6 ar  
     6    2    8 1   
     7    3    4 ar  
     8    3   35 1   
     9    4   36 1   
    10    5    6 ar  
    11    5   37 1   
    12    6   38 1   
    13    7   33 1   
    14    7   34 1   
    15    8   15 2   
    16    8   16 1   
    17    9   10 ar  
    18    9   14 ar  
    19    9   15 1   
    20   10   11 ar  
    21   10   16 1   
    22   11   12 ar  
    23   11   39 1   
    24   12   13 ar  
    25   12   40 1   
    26   13   14 ar  
    27   13   17 1   
    28   14   41 1   
    29   16   42 1   
    30   17   23 2   
    31   17   24 1   
    32   18   19 ar  
    33   18   23 1   
    34   18   25 ar  
    35   19   20 ar  
    36   19   24 1   
    37   20   21 ar  
    38   20   43 1   
    39   21   22 ar  
    40   21   44 1   
    41   22   25 ar  
    42   22   26 1   
    43   24   45 1   
    44   25   46 1   
    45   26   28 1   
    46   26   31 1   
    47   27   29 1   
    48   27   30 1   
    49   27   32 1   
    50   28   29 1   
    51   28   47 1   
    52   28   48 1   
    53   29   49 1   
    54   29   50 1   
    55   30   31 1   
    56   30   51 1   
    57   30   52 1   
    58   31   53 1   
    59   31   54 1   
    60   32   55 1   
    61   32   56 1   
    62   32   57 1   
    63   33   58 1   
    64   33   59 1   
    65   33   60 1   
    66   34   61 1   
    67   34   62 1   
    68   34   63 1   
@<TRIPOS>SUBSTRUCTURE
     1 BBZ         1 TEMP              0 ****  ****    0 ROOT
