@<TRIPOS>MOLECULE
BBZ
   63    68     1     0     0
SMALL
bcc


@<TRIPOS>ATOM
      1 C           0.0090    0.0880   -0.1010 ca        1 BBZ      0.186600
      2 C1          1.4010   -0.0090    2.3660 ca        1 BBZ     -0.173900
      3 C2          1.4260    0.0450   -0.0580 ca        1 BBZ     -0.199500
      4 C3          2.1030    0.0000    1.1530 ca        1 BBZ     -0.060000
      5 C4         -0.6860    0.0560    1.1350 ca        1 BBZ     -0.199500
      6 C5          0.0020    0.0110    2.3390 ca        1 BBZ     -0.060000
      7 N          -0.6780    0.2250   -1.3160 nh        1 BBZ     -0.660000
      8 C6          2.1360   -0.0580    3.6290 cc        1 BBZ      0.488400
      9 C7          3.6430   -0.4320    5.1860 ca        1 BBZ      0.062400
     10 C8          2.5780    0.3390    5.8060 ca        1 BBZ     -0.061200
     11 C9          2.6390    0.7080    7.1560 ca        1 BBZ     -0.139000
     12 C10         3.7480    0.3050    7.8810 ca        1 BBZ     -0.103000
     13 C11         4.7860   -0.4520    7.2930 ca        1 BBZ     -0.145900
     14 C12         4.7520   -0.8210    5.9490 ca        1 BBZ     -0.019000
     15 N1          3.3310   -0.6590    3.8320 nd        1 BBZ     -0.559100
     16 N2          1.6320    0.5560    4.8070 na        1 BBZ     -0.282300
     17 C13         5.9370   -0.8530    8.1080 cc        1 BBZ      0.479400
     18 C14         7.9620   -1.3580    8.8030 ca        1 BBZ      0.086400
     19 C15         7.0650   -1.5670    9.9250 ca        1 BBZ     -0.090200
     20 C16         7.5510   -2.0100   11.1570 ca        1 BBZ     -0.117000
     21 C17         8.9130   -2.2370   11.2750 ca        1 BBZ     -0.154000
     22 C18         9.8160   -2.0460   10.1910 ca        1 BBZ      0.106600
     23 N3          7.2230   -0.9120    7.6890 nd        1 BBZ     -0.564100
     24 N4          5.7900   -1.2280    9.4670 na        1 BBZ     -0.283300
     25 C19         9.3300   -1.6040    8.9460 ca        1 BBZ     -0.095000
     26 N5         11.2000   -2.3610   10.3000 nh        1 BBZ     -0.633000
     27 N6         13.9870   -2.4830   11.1160 n3        1 BBZ     -0.733600
     28 C20        11.5980   -3.1280   11.4680 c3        1 BBZ      0.183300
     29 C21        13.0700   -3.5810   11.3870 c3        1 BBZ      0.165800
     30 C22        13.5740   -1.6880    9.9680 c3        1 BBZ      0.165800
     31 C23        12.1000   -1.2440   10.0400 c3        1 BBZ      0.183300
     32 C24        15.3600   -2.9230   11.0170 c3        1 BBZ      0.157100
     33 CN1         0.0460   -0.0420   -2.5310 c3        1 BBZ      0.188100
     34 CN2        -2.0880   -0.0640   -1.3260 c3        1 BBZ      0.188100
     35 H2          2.0180    0.0490   -0.9850 ha        1 BBZ      0.138000
     36 H3          3.2050   -0.0330    1.1560 ha        1 BBZ      0.141500
     37 H4         -1.7860    0.0660    1.1620 ha        1 BBZ      0.138000
     38 H5         -0.5750   -0.0270    3.2760 ha        1 BBZ      0.141500
     39 H9          1.8400    1.2990    7.6220 ha        1 BBZ      0.138000
     40 H10         3.8260    0.6040    8.9380 ha        1 BBZ      0.133000
     41 H12         5.5700   -1.3990    5.4930 ha        1 BBZ      0.172000
     42 HN2         0.8140    1.0990    4.8760 hn        1 BBZ      0.306700
     43 H16         6.8800   -2.1710   12.0110 ha        1 BBZ      0.133000
     44 H17         9.2920   -2.5770   12.2520 ha        1 BBZ      0.133000
     45 HN4         4.9420   -1.3320    9.9540 hn        1 BBZ      0.304700
     46 H19        10.0000   -1.4590    8.0850 ha        1 BBZ      0.154000
     47 H201       10.9550   -4.0500   11.5200 h1        1 BBZ      0.042950
     48 H202       11.4590   -2.5420   12.4240 h1        1 BBZ      0.042950
     49 H211       13.3470   -4.0200   12.3860 h1        1 BBZ      0.038200
     50 H212       13.1550   -4.3990   10.6130 h1        1 BBZ      0.038200
     51 H221       14.2100   -0.7590    9.9490 h1        1 BBZ      0.038200
     52 H222       13.7380   -2.2420    8.9970 h1        1 BBZ      0.038200
     53 H231       11.8290   -0.7880    9.0480 h1        1 BBZ      0.042950
     54 H232       12.0000   -0.4460   10.8310 h1        1 BBZ      0.042950
     55 H241       16.0190   -2.0240   10.8950 h1        1 BBZ      0.032033
     56 H242       15.5450   -3.6210   10.1540 h1        1 BBZ      0.032033
     57 H243       15.6390   -3.4500   11.9670 h1        1 BBZ      0.032033
     58 HN11        0.8550    0.7280   -2.6520 h1        1 BBZ      0.040367
     59 HN12       -0.6450    0.0350   -3.4120 h1        1 BBZ      0.040367
     60 HN13        0.5170   -1.0630   -2.5330 h1        1 BBZ      0.040367
     61 HN21       -2.3190   -1.0820   -0.9100 h1        1 BBZ      0.040367
     62 HN22       -2.4830   -0.0070   -2.3740 h1        1 BBZ      0.040367
     63 HN23       -2.6240    0.7070   -0.7080 h1        1 BBZ      0.040367
@<TRIPOS>BOND
     1    1    3 ar  
     2    1    5 ar  
     3    1    7 1   
     4    2    4 ar  
     5    2    6 ar  
     6    2    8 1   
     7    3    4 ar  
     8    3   35 1   
     9    4   36 1   
    10    5    6 ar  
    11    5   37 1   
    12    6   38 1   
    13    7   33 1   
    14    7   34 1   
    15    8   15 2   
    16    8   16 1   
    17    9   10 ar  
    18    9   14 ar  
    19    9   15 1   
    20   10   11 ar  
    21   10   16 1   
    22   11   12 ar  
    23   11   39 1   
    24   12   13 ar  
    25   12   40 1   
    26   13   14 ar  
    27   13   17 1   
    28   14   41 1   
    29   16   42 1   
    30   17   23 2   
    31   17   24 1   
    32   18   19 ar  
    33   18   23 1   
    34   18   25 ar  
    35   19   20 ar  
    36   19   24 1   
    37   20   21 ar  
    38   20   43 1   
    39   21   22 ar  
    40   21   44 1   
    41   22   25 ar  
    42   22   26 1   
    43   24   45 1   
    44   25   46 1   
    45   26   28 1   
    46   26   31 1   
    47   27   29 1   
    48   27   30 1   
    49   27   32 1   
    50   28   29 1   
    51   28   47 1   
    52   28   48 1   
    53   29   49 1   
    54   29   50 1   
    55   30   31 1   
    56   30   51 1   
    57   30   52 1   
    58   31   53 1   
    59   31   54 1   
    60   32   55 1   
    61   32   56 1   
    62   32   57 1   
    63   33   58 1   
    64   33   59 1   
    65   33   60 1   
    66   34   61 1   
    67   34   62 1   
    68   34   63 1   
@<TRIPOS>SUBSTRUCTURE
     1 BBZ         1 TEMP              0 ****  ****    0 ROOT
