@<TRIPOS>MOLECULE
BBZ
   64    69     1     0     0
SMALL
bcc


@<TRIPOS>ATOM
      1 C           0.1580   -0.2440   -0.1530 ca        1 BBZ     -0.063400
      2 C1          1.3970   -0.2570    2.3570 ca        1 BBZ     -0.022900
      3 C2          1.0880   -1.2510    0.1630 ca        1 BBZ     -0.101500
      4 C3          1.6990   -1.2530    1.4110 ca        1 BBZ     -0.092000
      5 C4         -0.1550    0.7530    0.7860 ca        1 BBZ     -0.101500
      6 C5          0.4660    0.7410    2.0310 ca        1 BBZ     -0.092000
      7 N          -0.4760   -0.2440   -1.4840 n4        1 BBZ     -0.545800
      8 C6          2.0820   -0.2700    3.6470 cc        1 BBZ      0.397400
      9 C7          3.5790   -0.6170    5.2180 ca        1 BBZ      0.051400
     10 C8          2.4920    0.1360    5.8230 ca        1 BBZ     -0.047200
     11 C9          2.5310    0.5080    7.1750 ca        1 BBZ     -0.141000
     12 C10         3.6420    0.1340    7.9080 ca        1 BBZ     -0.078000
     13 C11         4.7080   -0.6010    7.3330 ca        1 BBZ     -0.121900
     14 C12         4.6940   -0.9780    5.9940 ca        1 BBZ     -0.012000
     15 N1          3.2870   -0.8530    3.8680 nd        1 BBZ     -0.514100
     16 N2          1.5630    0.3570    4.8080 na        1 BBZ     -0.263300
     17 C13         5.8690   -0.9590    8.1530 cc        1 BBZ      0.449400
     18 C14         7.9150   -1.4020    8.8270 ca        1 BBZ      0.084400
     19 C15         7.0430   -1.5840    9.9710 ca        1 BBZ     -0.090200
     20 C16         7.5590   -1.9750   11.2100 ca        1 BBZ     -0.114000
     21 C17         8.9250   -2.1750   11.3090 ca        1 BBZ     -0.147000
     22 C18         9.8070   -2.0090   10.2010 ca        1 BBZ      0.120600
     23 N3          7.1480   -1.0120    7.7120 nd        1 BBZ     -0.556100
     24 N4          5.7520   -1.2800    9.5280 na        1 BBZ     -0.277300
     25 C19         9.2910   -1.6200    8.9520 ca        1 BBZ     -0.100000
     26 N5         11.1940   -2.3040   10.2990 nh        1 BBZ     -0.636000
     27 N6         14.0010   -2.3570   11.0490 n3        1 BBZ     -0.732600
     28 C20        11.6280   -2.9920   11.5030 c3        1 BBZ      0.184300
     29 C21        13.1020   -3.4410   11.4170 c3        1 BBZ      0.165800
     30 C22        13.5580   -1.6590    9.8510 c3        1 BBZ      0.165800
     31 C23        12.0840   -1.2130    9.9270 c3        1 BBZ      0.184300
     32 C24        15.3790   -2.7850   10.9630 c3        1 BBZ      0.156100
     33 CN1        -0.1200    0.9830   -2.2490 c3        1 BBZ      0.088100
     34 CN2        -1.9520   -0.4030   -1.3800 c3        1 BBZ      0.088100
     35 H2          1.3490   -2.0430   -0.5590 ha        1 BBZ      0.154500
     36 H3          2.4350   -2.0420    1.6530 ha        1 BBZ      0.179500
     37 H4         -0.8780    1.5520    0.5560 ha        1 BBZ      0.154500
     38 H5          0.2260    1.5440    2.7470 ha        1 BBZ      0.179500
     39 H9          1.7140    1.0830    7.6320 ha        1 BBZ      0.148000
     40 H10         3.7040    0.4360    8.9660 ha        1 BBZ      0.148000
     41 H12         5.5310   -1.5360    5.5430 ha        1 BBZ      0.181000
     42 HN2         0.6740    0.7670    4.9070 hn        1 BBZ      0.308700
     43 H16         6.9050   -2.1140   12.0820 ha        1 BBZ      0.138000
     44 H17         9.3270   -2.4710   12.2910 ha        1 BBZ      0.140000
     45 HN4         4.9160   -1.4030   10.0300 hn        1 BBZ      0.304700
     46 H19         9.9410   -1.4930    8.0730 ha        1 BBZ      0.156000
     47 H201       11.5060   -2.3450   12.4210 h1        1 BBZ      0.043950
     48 H202       10.9960   -3.9140   11.6310 h1        1 BBZ      0.043950
     49 H211       13.4050   -3.8080   12.4370 h1        1 BBZ      0.039950
     50 H212       13.1750   -4.3090   10.6990 h1        1 BBZ      0.039950
     51 H221       13.6990   -2.2880    8.9240 h1        1 BBZ      0.039950
     52 H222       14.1880   -0.7320    9.7410 h1        1 BBZ      0.039950
     53 H231       11.7880   -0.8350    8.9090 h1        1 BBZ      0.043950
     54 H232       12.0020   -0.3550   10.6560 h1        1 BBZ      0.043950
     55 H241       15.5610   -3.5440   10.1520 h1        1 BBZ      0.034700
     56 H242       16.0230   -1.8890   10.7640 h1        1 BBZ      0.034700
     57 H243       15.6780   -3.2350   11.9460 h1        1 BBZ      0.034700
     58 HN11       -0.5690    0.9160   -3.2760 hx        1 BBZ      0.105033
     59 HN12        0.9980    1.0610   -2.3220 hx        1 BBZ      0.105033
     60 HN13       -0.5210    1.8870   -1.7170 hx        1 BBZ      0.105033
     61 HN21       -2.3880    0.4750   -0.8330 hx        1 BBZ      0.105033
     62 HN22       -2.1830   -1.3450   -0.8130 hx        1 BBZ      0.105033
     63 HN23       -2.3880   -0.4600   -2.4130 hx        1 BBZ      0.105033
     64 HN1        -0.1060   -1.0570   -2.0010 hn        1 BBZ      0.453800
@<TRIPOS>BOND
     1    1    3 ar  
     2    1    5 ar  
     3    1    7 1   
     4    2    4 ar  
     5    2    6 ar  
     6    2    8 1   
     7    3    4 ar  
     8    3   35 1   
     9    4   36 1   
    10    5    6 ar  
    11    5   37 1   
    12    6   38 1   
    13    7   33 1   
    14    7   34 1   
    15    7   64 1   
    16    8   15 2   
    17    8   16 1   
    18    9   10 ar  
    19    9   14 ar  
    20    9   15 1   
    21   10   11 ar  
    22   10   16 1   
    23   11   12 ar  
    24   11   39 1   
    25   12   13 ar  
    26   12   40 1   
    27   13   14 ar  
    28   13   17 1   
    29   14   41 1   
    30   16   42 1   
    31   17   23 2   
    32   17   24 1   
    33   18   19 ar  
    34   18   23 1   
    35   18   25 ar  
    36   19   20 ar  
    37   19   24 1   
    38   20   21 ar  
    39   20   43 1   
    40   21   22 ar  
    41   21   44 1   
    42   22   25 ar  
    43   22   26 1   
    44   24   45 1   
    45   25   46 1   
    46   26   28 1   
    47   26   31 1   
    48   27   29 1   
    49   27   30 1   
    50   27   32 1   
    51   28   29 1   
    52   28   47 1   
    53   28   48 1   
    54   29   49 1   
    55   29   50 1   
    56   30   31 1   
    57   30   51 1   
    58   30   52 1   
    59   31   53 1   
    60   31   54 1   
    61   32   55 1   
    62   32   56 1   
    63   32   57 1   
    64   33   58 1   
    65   33   59 1   
    66   33   60 1   
    67   34   61 1   
    68   34   62 1   
    69   34   63 1   
@<TRIPOS>SUBSTRUCTURE
     1 BBZ         1 TEMP              0 ****  ****    0 ROOT
