@<TRIPOS>MOLECULE
BBZ
   63    51     1     0     0
SMALL
bcc


@<TRIPOS>ATOM
      1 C          -5.9900    0.7060   -6.4610 c1        1 BBZ      0.082000
      2 C1         -4.6830    0.7430   -3.9730 c1        1 BBZ     -0.059500
      3 C2         -6.3560   -0.2130   -5.4570 c1        1 BBZ     -0.129750
      4 C3         -5.7040   -0.1950   -4.2170 c1        1 BBZ     -0.129750
      5 C4         -4.9790    1.6350   -6.2190 c1        1 BBZ     -0.171000
      6 C5         -4.3200    1.6550   -4.9680 c1        1 BBZ     -0.063000
      7 N          -6.7610    0.7610   -7.7360 n3        1 BBZ     -0.249000
      8 C6         -4.0050    0.7630   -2.6880 c1        1 BBZ      0.068500
      9 C7         -2.4790    0.2380   -1.1920 c1        1 BBZ     -0.046500
     10 C8         -3.3830    1.0720   -0.5990 c1        1 BBZ     -0.046500
     11 C9         -3.1580    1.5390    0.7120 c1        1 BBZ     -0.129750
     12 C10        -2.0130    1.1480    1.4030 c1        1 BBZ     -0.129750
     13 C11        -1.0940    0.2990    0.7990 c1        1 BBZ     -0.059500
     14 C12        -1.3180   -0.1590   -0.4910 c1        1 BBZ     -0.063000
     15 N1         -2.8660    0.0490   -2.4810 n1        1 BBZ     -0.183500
     16 N2         -4.3240    1.3950   -1.5260 n1        1 BBZ     -0.183500
     17 C13        -0.0290   -0.1440    1.6010 c1        1 BBZ      0.068500
     18 C14         1.9570   -0.0870    2.5690 c1        1 BBZ     -0.059500
     19 C15         1.3410   -1.2510    2.9460 c1        1 BBZ     -0.059500
     20 C16         2.0320   -2.1880    3.7430 c1        1 BBZ     -0.063000
     21 C17         3.3320   -1.9320    4.1440 c1        1 BBZ     -0.135000
     22 C18         3.9610   -0.7420    3.7580 c1        1 BBZ     -0.024000
     23 N3          1.1030    0.5930    1.7360 n1        1 BBZ     -0.183500
     24 N4          0.1150   -1.2890    2.3500 n1        1 BBZ     -0.183500
     25 C19         3.2860    0.1750    2.9790 c1        1 BBZ     -0.063000
     26 N5          5.3270   -0.4160    4.1210 n3        1 BBZ     -0.219000
     27 N6          7.6810   -0.9680    5.6540 n3        1 BBZ     -0.259000
     28 C20         6.1860   -1.4920    3.7590 c3        1 BBZ     -0.065500
     29 C21         7.6190   -1.2810    4.2460 c3        1 BBZ     -0.070000
     30 C22         6.8200    0.1080    6.0110 c3        1 BBZ     -0.070000
     31 C23         5.3880   -0.1040    5.5230 c3        1 BBZ     -0.065500
     32 C24         9.0530   -0.6230    6.0100 c3        1 BBZ     -0.119000
     33 CN1        -8.0420    1.4220   -7.7780 c3        1 BBZ     -0.100500
     34 CN2        -6.2590    0.1370   -8.8870 c3        1 BBZ     -0.100500
     35 H2         -7.0690   -0.8680   -5.6270 ha        1 BBZ      0.133750
     36 H3         -5.9660   -0.8510   -3.5030 ha        1 BBZ      0.133750
     37 H4         -4.7170    2.2910   -6.9370 ha        1 BBZ      0.143000
     38 H5         -3.6010    2.3160   -4.7960 ha        1 BBZ      0.156500
     39 H9         -3.8030    2.1340    1.1340 ha        1 BBZ      0.133750
     40 H10        -1.8600    1.4620    2.2860 ha        1 BBZ      0.133750
     41 H12        -0.6940   -0.7340   -0.9010 ha        1 BBZ      0.156500
     42 HN2        -5.0300    1.9460   -1.3980 DU        1 BBZ      0.257000
     43 H16         1.5950   -3.0130    4.0110 ha        1 BBZ      0.156500
     44 H17         3.8160   -2.5880    4.7040 ha        1 BBZ      0.136000
     45 HN4        -0.4680   -1.9660    2.3910 DU        1 BBZ      0.257000
     46 H19         3.7180    0.9900    2.7150 ha        1 BBZ      0.156500
     47 H201        5.8390   -2.3150    4.1460 h1        1 BBZ      0.080000
     48 H202        6.1920   -1.5770    2.7890 h1        1 BBZ      0.080000
     49 H211        8.0220   -0.5410    3.7380 h1        1 BBZ      0.076500
     50 H212        8.1370   -2.1010    4.0800 h1        1 BBZ      0.076500
     51 H221        7.1660    0.9250    5.6260 h1        1 BBZ      0.076500
     52 H222        6.8100    0.1960    6.9880 h1        1 BBZ      0.076500
     53 H231        4.9850   -0.8410    6.0290 h1        1 BBZ      0.080000
     54 H232        4.8640    0.7310    5.6920 h1        1 BBZ      0.080000
     55 H241        9.3230    0.1730    5.5210 h1        1 BBZ      0.071000
     56 H242        9.6360   -1.3530    5.7820 h1        1 BBZ      0.071000
     57 H243        9.1080   -0.4480    6.9760 h1        1 BBZ      0.071000
     58 HN11       -8.6380    1.0210   -7.1170 h1        1 BBZ      0.078833
     59 HN12       -7.9270    2.3610   -7.5800 h1        1 BBZ      0.078833
     60 HN13       -8.4350    1.3220   -8.6810 h1        1 BBZ      0.078833
     61 HN21       -6.8510    0.3190   -9.6390 h1        1 BBZ      0.078833
     62 HN22       -6.2090   -0.8240   -8.7390 h1        1 BBZ      0.078833
     63 HN23       -5.3790    0.4790   -9.0800 h1        1 BBZ      0.078833
@<TRIPOS>BOND
     1    1    5 1   
     2    1    7 1   
     3    2    6 1   
     4    3    4 1   
     5    3   35 1   
     6    4   36 1   
     7    5   37 1   
     8    6   38 1   
     9    7   33 1   
    10    7   34 1   
    11    8   15 1   
    12    8   16 1   
    13    9   10 1   
    14   11   12 1   
    15   11   39 1   
    16   12   40 1   
    17   13   14 1   
    18   14   41 1   
    19   17   23 1   
    20   17   24 1   
    21   18   25 1   
    22   19   20 1   
    23   20   43 1   
    24   21   22 1   
    25   21   44 1   
    26   22   26 1   
    27   25   46 1   
    28   26   28 1   
    29   26   31 1   
    30   27   29 1   
    31   27   30 1   
    32   27   32 1   
    33   28   29 1   
    34   28   47 1   
    35   28   48 1   
    36   29   49 1   
    37   29   50 1   
    38   30   31 1   
    39   30   51 1   
    40   30   52 1   
    41   31   53 1   
    42   31   54 1   
    43   32   55 1   
    44   32   56 1   
    45   32   57 1   
    46   33   58 1   
    47   33   59 1   
    48   33   60 1   
    49   34   61 1   
    50   34   62 1   
    51   34   63 1   
@<TRIPOS>SUBSTRUCTURE
     1 BBZ         1 TEMP              0 ****  ****    0 ROOT
