@<TRIPOS>MOLECULE
BC
   43    47     1     0     0
SMALL
bcc


@<TRIPOS>ATOM
      1 C1         -0.1090   -0.2940   -0.0530 ca        1 BC      -0.127000
      2 C2          1.2760   -0.2410   -0.0590 ca        1 BC      -0.130000
      3 C3          1.9690   -0.0100    1.1320 ca        1 BC      -0.128000
      4 C4          1.2660    0.0860    2.3230 ca        1 BC      -0.119000
      5 C4A        -0.1400    0.0060    2.3490 ca        1 BC      -0.020000
      6 C4B        -0.8580   -0.0920    3.6060 ca        1 BC      -0.019000
      7 C5         -0.2070    0.0790    4.8440 ca        1 BC      -0.120000
      8 C6         -0.8690   -0.1570    6.0380 ca        1 BC      -0.127000
      9 C7         -2.2040   -0.5720    6.0220 ca        1 BC      -0.128000
     10 C8         -2.8730   -0.7030    4.8160 ca        1 BC      -0.118000
     11 C8A        -2.2290   -0.4360    3.5910 ca        1 BC      -0.019000
     12 C8B        -2.9630   -0.4110    2.3370 ca        1 BC      -0.012000
     13 C9         -4.3510   -0.6450    2.3150 ca        1 BC      -0.129000
     14 C10        -5.0960   -0.3520    1.1900 ca        1 BC      -0.099000
     15 CAA        -4.4800    0.2250    0.0690 ca        1 BC      -0.079300
     16 C11        -5.3940    0.7740   -0.9860 c3        1 BC       0.201400
     17 O11        -6.4340   -0.1660   -1.2240 oh        1 BC      -0.594800
     18 C12        -4.6740    1.0930   -2.3040 c3        1 BC       0.062100
     19 O12        -5.5730    1.9150   -3.0400 oh        1 BC      -0.612800
     20 C13        -3.3670    1.8420   -2.0290 c3        1 BC       0.121100
     21 O13        -3.5740    3.0840   -1.3770 oh        1 BC      -0.588800
     22 C14        -2.4490    0.9750   -1.1770 c3        1 BC      -0.038100
     23 CEA        -3.0900    0.3590    0.0200 ca        1 BC      -0.039300
     24 CEB        -2.3070   -0.0490    1.1350 ca        1 BC      -0.018000
     25 CEC        -0.8500   -0.0880    1.1260 ca        1 BC      -0.015000
     26 H1         -0.6190   -0.5640   -0.9880 ha        1 BC       0.134000
     27 H2          1.8300   -0.3920   -0.9970 ha        1 BC       0.132000
     28 H3          3.0660    0.0650    1.1280 ha        1 BC       0.134000
     29 H4          1.8320    0.2030    3.2580 ha        1 BC       0.133000
     30 H5          0.8420    0.4080    4.8790 ha        1 BC       0.133000
     31 H6         -0.3460   -0.0220    6.9970 ha        1 BC       0.133000
     32 H7         -2.7250   -0.7830    6.9680 ha        1 BC       0.133000
     33 H8         -3.9290   -1.0120    4.8360 ha        1 BC       0.134000
     34 H9         -4.8670   -1.0470    3.1990 ha        1 BC       0.136000
     35 H10        -6.1820   -0.5360    1.1690 ha        1 BC       0.151000
     36 H11        -5.8450    1.7350   -0.5920 h1        1 BC       0.061700
     37 HO11       -7.0140    0.2400   -1.8820 ho        1 BC       0.415000
     38 H12        -4.4640    0.1450   -2.8700 h1        1 BC       0.066700
     39 HO12       -5.1890    2.0360   -3.9170 ho        1 BC       0.411000
     40 H13        -2.8560    2.0570   -3.0150 h1        1 BC       0.033700
     41 HO13       -4.4120    3.4390   -1.7050 ho        1 BC       0.413000
     42 H141       -1.5710    1.5990   -0.8570 hc        1 BC       0.070200
     43 H142       -2.0900    0.1570   -1.8620 hc        1 BC       0.070200
@<TRIPOS>BOND
     1    1    2 ar  
     2    1   25 ar  
     3    1   26 1   
     4    2    3 ar  
     5    2   27 1   
     6    3    4 ar  
     7    3   28 1   
     8    4    5 ar  
     9    4   29 1   
    10    5    6 ar  
    11    5   25 ar  
    12    6    7 ar  
    13    6   11 ar  
    14    7    8 ar  
    15    7   30 1   
    16    8    9 ar  
    17    8   31 1   
    18    9   10 ar  
    19    9   32 1   
    20   10   11 ar  
    21   10   33 1   
    22   11   12 ar  
    23   12   13 ar  
    24   12   24 ar  
    25   13   14 ar  
    26   13   34 1   
    27   14   15 ar  
    28   14   35 1   
    29   15   16 1   
    30   15   23 ar  
    31   16   17 1   
    32   16   18 1   
    33   16   36 1   
    34   17   37 1   
    35   18   19 1   
    36   18   20 1   
    37   18   38 1   
    38   19   39 1   
    39   20   21 1   
    40   20   22 1   
    41   20   40 1   
    42   21   41 1   
    43   22   23 1   
    44   22   42 1   
    45   22   43 1   
    46   23   24 ar  
    47   24   25 ar  
@<TRIPOS>SUBSTRUCTURE
     1 BC          1 TEMP              0 ****  ****    0 ROOT
