@<TRIPOS>MOLECULE
BC1
   41    39     1     0     0
SMALL
bcc


@<TRIPOS>ATOM
      1 O1         -4.3790   -4.7730    2.4180 o         1 BC1     -0.575500
      2 C1         -3.2250   -4.4810    2.0320 c2        1 BC1      0.334000
      3 O2         -2.2150   -4.9740    2.6220 o         1 BC1     -0.575500
      4 C2         -3.0330   -3.5960    0.8200 c3        1 BC1     -0.251000
      5 C3         -2.8080   -2.1910    1.2670 c3        1 BC1     -0.028000
      6 N1         -2.1390   -1.4640    0.2460 n         1 BC1     -0.353000
      7 C4         -1.1650   -0.4820    0.5970 c2        1 BC1      0.304000
      8 O3         -1.1110   -0.0500    1.7610 o         1 BC1     -0.367000
      9 C5         -0.1880    0.1200   -0.5290 c3        1 BC1      0.112000
     10 C6         -0.7800   -0.5350   -1.8080 c1        1 BC1     -0.129000
     11 N2         -1.2190   -1.0220   -2.7570 n1        1 BC1     -0.052000
     12 C7          1.2750   -0.3740   -0.2930 c2        1 BC1     -0.116000
     13 C8          1.5530   -1.7530   -0.2120 c2        1 BC1     -0.077000
     14 C9          2.8560   -2.1890    0.0450 c1        1 BC1     -0.160000
     15 C10         3.8980   -1.2440    0.2240 c1        1 BC1     -0.134000
     16 C11         3.6300    0.0990    0.1450 c1        1 BC1     -0.134000
     17 C12         2.2970    0.5480   -0.1180 c1        1 BC1      0.109000
     18 N3          1.9830    1.9420    0.1080 n3        1 BC1     -0.224000
     19 C13         0.7740    2.4940   -0.4010 c2        1 BC1      0.110000
     20 C14        -0.3390    1.6770   -0.6000 c2        1 BC1     -0.094000
     21 C15        -1.5900    2.2550   -1.0440 c1        1 BC1     -0.076000
     22 C16        -1.6820    3.6200   -1.2700 c1        1 BC1     -0.134000
     23 C17        -0.5540    4.4490   -1.0680 c1        1 BC1     -0.134000
     24 C18         0.6790    3.8820   -0.6310 c1        1 BC1     -0.177000
     25 C19         3.0590    2.7350   -0.2980 c3        1 BC1     -0.072000
     26 H2         -3.8330   -3.6360    0.2560 hc        1 BC1      0.068000
     27 H3         -2.2550   -3.9060    0.3070 hc        1 BC1      0.068000
     28 H4         -2.2490   -2.1910    2.0890 h1        1 BC1      0.112000
     29 H5         -3.6620   -1.7730    1.4560 h1        1 BC1      0.112000
     30 H6         -2.3890   -1.5590   -0.6080 hn        1 BC1      0.217000
     31 H7          1.1360   -2.6300   -0.3890 ha        1 BC1      0.143000
     32 H8          3.0470   -3.1170    0.3120 ha        1 BC1      0.136000
     33 H9          4.7620   -1.5420    0.5920 ha        1 BC1      0.128250
     34 H10         4.4890    0.5580    0.3250 ha        1 BC1      0.128250
     35 H11        -2.4950    2.0840   -1.3060 ha        1 BC1      0.144000
     36 H12        -2.4470    4.1630   -1.4550 ha        1 BC1      0.128250
     37 H13        -0.7990    5.3810   -1.0320 ha        1 BC1      0.128250
     38 H14         1.1860    4.7290   -0.6250 ha        1 BC1      0.130000
     39 H15         3.2690    2.5450   -1.2310 h1        1 BC1      0.082667
     40 H16         2.8260    3.6630   -0.2060 h1        1 BC1      0.082667
     41 H17         3.8380    2.5370    0.2590 h1        1 BC1      0.082667
@<TRIPOS>BOND
     1    1    2 1   
     2    2    3 1   
     3    2    4 1   
     4    4    5 1   
     5    4   26 1   
     6    4   27 1   
     7    5    6 1   
     8    5   28 1   
     9    5   29 1   
    10    6    7 1   
    11    6   30 1   
    12    7    8 1   
    13    7    9 1   
    14    9   10 1   
    15    9   12 1   
    16    9   20 1   
    17   10   11 1   
    18   12   13 1   
    19   12   17 1   
    20   13   14 1   
    21   13   31 1   
    22   14   32 1   
    23   15   16 1   
    24   15   33 1   
    25   16   34 1   
    26   17   18 1   
    27   18   19 1   
    28   18   25 1   
    29   19   20 1   
    30   19   24 1   
    31   20   21 1   
    32   21   35 1   
    33   22   23 1   
    34   22   36 1   
    35   23   37 1   
    36   24   38 1   
    37   25   39 1   
    38   25   40 1   
    39   25   41 1   
@<TRIPOS>SUBSTRUCTURE
     1 BC1         1 TEMP              0 ****  ****    0 ROOT
