@<TRIPOS>MOLECULE
BC1
   41    43     1     0     0
SMALL
bcc


@<TRIPOS>ATOM
      1 O1          0.8010    1.4140   -5.9380 o         1 BC1     -0.840800
      2 C1          0.0060    0.6540   -5.3190 c         1 BC1      0.914600
      3 O2         -1.0400    0.1500   -5.8200 o         1 BC1     -0.840800
      4 C2          0.3650    0.2950   -3.8610 c3        1 BC1     -0.226400
      5 C3         -0.8930    0.2090   -3.0110 c3        1 BC1      0.080000
      6 N1         -0.7260   -0.5270   -1.7710 n         1 BC1     -0.531900
      7 C4         -0.8150    0.0580   -0.5380 c         1 BC1      0.656100
      8 O3         -1.2730    1.2000   -0.3430 o         1 BC1     -0.599100
      9 C5         -0.3430   -0.7950    0.6920 c3        1 BC1      0.046700
     10 C6         -0.6400   -2.2130    0.4780 c1        1 BC1      0.228700
     11 N2         -0.8750   -3.3410    0.3280 n1        1 BC1     -0.379800
     12 C7         -1.0800   -0.3300    1.9200 ca        1 BC1     -0.113300
     13 C8         -2.3840   -0.7710    2.1570 ca        1 BC1     -0.079000
     14 C9         -3.1010   -0.3270    3.2640 ca        1 BC1     -0.159500
     15 C10        -2.5140    0.5760    4.1490 ca        1 BC1     -0.097000
     16 C11        -1.2180    1.0300    3.9380 ca        1 BC1     -0.177000
     17 C12        -0.4760    0.5850    2.8170 ca        1 BC1      0.192100
     18 N3          0.8520    1.0110    2.6430 nh        1 BC1     -0.548400
     19 C13         1.6780    0.3290    1.7340 ca        1 BC1      0.192100
     20 C14         1.1460   -0.6060    0.8130 ca        1 BC1     -0.113300
     21 C15         2.0110   -1.3260   -0.0170 ca        1 BC1     -0.079000
     22 C16         3.3860   -1.1220    0.0300 ca        1 BC1     -0.159500
     23 C17         3.9140   -0.1870    0.9210 ca        1 BC1     -0.097000
     24 C18         3.0800    0.5290    1.7690 ca        1 BC1     -0.177000
     25 C19         1.2050    2.3520    3.0300 c3        1 BC1      0.205100
     26 H2          1.0680    1.0610   -3.4530 hc        1 BC1      0.027200
     27 H3          0.9010   -0.6880   -3.8910 hc        1 BC1      0.027200
     28 H4         -1.6920   -0.3220   -3.6100 h1        1 BC1      0.077700
     29 H5         -1.2600    1.2460   -2.7730 h1        1 BC1      0.077700
     30 H6         -0.2210   -1.3800   -1.8480 hn        1 BC1      0.296500
     31 H7         -2.8580   -1.4690    1.4470 ha        1 BC1      0.141500
     32 H8         -4.1280   -0.6800    3.4320 ha        1 BC1      0.133500
     33 H9         -3.0770    0.9350    5.0220 ha        1 BC1      0.126000
     34 H10        -0.7700    1.7360    4.6520 ha        1 BC1      0.131000
     35 H11         1.5990   -2.0590   -0.7290 ha        1 BC1      0.141500
     36 H12         4.0490   -1.6860   -0.6400 ha        1 BC1      0.133500
     37 H13         5.0000   -0.0140    0.9550 ha        1 BC1      0.126000
     38 H14         3.5180    1.2510    2.4740 ha        1 BC1      0.131000
     39 H15         1.9010    2.8120    2.2790 h1        1 BC1      0.043700
     40 H16         0.2890    2.9980    3.1030 h1        1 BC1      0.043700
     41 H17         1.7140    2.3280    4.0310 h1        1 BC1      0.043700
@<TRIPOS>BOND
     1    1    2 1   
     2    2    3 1   
     3    2    4 1   
     4    4    5 1   
     5    4   26 1   
     6    4   27 1   
     7    5    6 1   
     8    5   28 1   
     9    5   29 1   
    10    6    7 1   
    11    6   30 1   
    12    7    8 2   
    13    7    9 1   
    14    9   10 1   
    15    9   12 1   
    16    9   20 1   
    17   10   11 3   
    18   12   13 ar  
    19   12   17 ar  
    20   13   14 ar  
    21   13   31 1   
    22   14   15 ar  
    23   14   32 1   
    24   15   16 ar  
    25   15   33 1   
    26   16   17 ar  
    27   16   34 1   
    28   17   18 1   
    29   18   19 1   
    30   18   25 1   
    31   19   20 ar  
    32   19   24 ar  
    33   20   21 ar  
    34   21   22 ar  
    35   21   35 1   
    36   22   23 ar  
    37   22   36 1   
    38   23   24 ar  
    39   23   37 1   
    40   24   38 1   
    41   25   39 1   
    42   25   40 1   
    43   25   41 1   
@<TRIPOS>SUBSTRUCTURE
     1 BC1         1 TEMP              0 ****  ****    0 ROOT
