@<TRIPOS>MOLECULE
BC3
   30    32     1     0     0
SMALL
bcc


@<TRIPOS>ATOM
      1 N01         0.3220   -1.2110    0.3480 nz        1 BC3     -0.790600
      2 C02         1.7150   -0.6750    0.2270 cc        1 BC3      0.460800
      3 N03         2.3780   -0.5420    1.3710 nd        1 BC3     -0.479100
      4 C04         3.6630   -0.0640    1.2670 cd        1 BC3      0.083400
      5 C05         4.6670    0.1830    2.2680 cd        1 BC3     -0.069300
      6 C06         4.5620    0.0070    3.7270 c3        1 BC3      0.032200
      7 C07         3.7870   -1.2030    4.1120 ca        1 BC3     -0.201600
      8 C08         4.4140   -2.4340    4.3430 ca        1 BC3     -0.078000
      9 C09         3.6320   -3.5400    4.6780 ca        1 BC3     -0.236300
     10 C10         2.2360   -3.3800    4.7550 ca        1 BC3      0.396200
     11 N11         1.6130   -2.2040    4.5430 nb        1 BC3     -0.688000
     12 C12         2.3840   -1.1390    4.2550 ca        1 BC3      0.405200
     13 C13         5.7970    0.6630    1.5690 cc        1 BC3     -0.100300
     14 N14         5.5340    0.7200    0.2050 na        1 BC3     -0.093100
     15 C15         4.2460    0.2810   -0.0060 cc        1 BC3     -0.181900
     16 C16         3.4960    0.1350   -1.2470 c         1 BC3      0.744100
     17 O17         3.8780    0.3960   -2.3920 o         1 BC3     -0.555500
     18 N18         2.1790   -0.3700   -1.0650 ns        1 BC3     -0.493400
     19 HN01       -0.3470   -0.5130    0.0060 hn        1 BC3      0.481467
     20 HN0A        0.2370   -2.0770   -0.1960 hn        1 BC3      0.481467
     21 H06         4.0680    0.9230    4.1650 hc        1 BC3      0.076700
     22 H06A        5.5970   -0.0500    4.1690 hc        1 BC3      0.076700
     23 H08         5.5080   -2.5270    4.2650 ha        1 BC3      0.147000
     24 H09         4.0920   -4.5170    4.8830 ha        1 BC3      0.157000
     25 H10         1.5820   -4.2340    5.0100 h4        1 BC3      0.031100
     26 H12         1.8530   -0.1780    4.1340 h4        1 BC3      0.018100
     27 H13         6.7710    0.9660    1.9700 h4        1 BC3      0.204000
     28 HN14        6.1590    1.0220   -0.5050 hn        1 BC3      0.340700
     29 HN18        1.6150   -0.4990   -1.8770 hn        1 BC3      0.350500
     30 H013        0.1200   -1.4170    1.3420 hn        1 BC3      0.481467
@<TRIPOS>BOND
     1    1    2 1   
     2    1   19 1   
     3    1   20 1   
     4    1   30 1   
     5    2    3 2   
     6    2   18 1   
     7    3    4 1   
     8    4    5 1   
     9    4   15 2   
    10    5    6 1   
    11    5   13 2   
    12    6    7 1   
    13    6   21 1   
    14    6   22 1   
    15    7    8 ar  
    16    7   12 ar  
    17    8    9 ar  
    18    8   23 1   
    19    9   10 ar  
    20    9   24 1   
    21   10   11 ar  
    22   10   25 1   
    23   11   12 ar  
    24   12   26 1   
    25   13   14 1   
    26   13   27 1   
    27   14   15 1   
    28   14   28 1   
    29   15   16 1   
    30   16   17 2   
    31   16   18 1   
    32   18   29 1   
@<TRIPOS>SUBSTRUCTURE
     1 BC3         1 TEMP              0 ****  ****    0 ROOT
