@<TRIPOS>MOLECULE
BC3
   29    31     1     0     0
SMALL
bcc


@<TRIPOS>ATOM
      1 N01        -2.7190    2.9960   -0.7430 nh        1 BC3     -0.878800
      2 C02        -2.3750    1.6610   -0.3910 cc        1 BC3      0.638800
      3 N03        -1.1750    1.1710   -0.7540 nd        1 BC3     -0.638100
      4 C04        -0.9590   -0.1630   -0.4900 cd        1 BC3      0.164400
      5 C05         0.1780   -1.0080   -0.7600 cd        1 BC3     -0.144300
      6 C06         1.4250   -0.6240   -1.4410 c3        1 BC3      0.046200
      7 C07         2.4920   -0.1860   -0.4990 ca        1 BC3     -0.187600
      8 C08         3.6030   -0.9900   -0.2250 ca        1 BC3     -0.097000
      9 C09         4.5820   -0.5210    0.6530 ca        1 BC3     -0.247300
     10 C10         4.4120    0.7480    1.2320 ca        1 BC3      0.388200
     11 N11         3.3510    1.5410    0.9820 nb        1 BC3     -0.667000
     12 C12         2.4170    1.0750    0.1340 ca        1 BC3      0.404200
     13 C13        -0.1490   -2.2870   -0.2640 cc        1 BC3     -0.099300
     14 N14        -1.4170   -2.2760    0.2930 na        1 BC3     -0.133100
     15 C15        -1.9290   -0.9910    0.1680 cc        1 BC3     -0.250900
     16 C16        -3.2120   -0.4540    0.5770 c         1 BC3      0.740100
     17 O17        -4.1300   -1.0750    1.1460 o         1 BC3     -0.642500
     18 N18        -3.3740    0.9130    0.2830 n         1 BC3     -0.490400
     19 HN01       -1.9690    3.4950   -1.1750 hn        1 BC3      0.408300
     20 HN0A       -3.1450    3.5110   -0.0020 hn        1 BC3      0.408300
     21 H06         1.7970   -1.4940   -2.0500 hc        1 BC3      0.061700
     22 H06A        1.2060    0.2170   -2.1570 hc        1 BC3      0.061700
     23 H08         3.7070   -1.9780   -0.6980 ha        1 BC3      0.133000
     24 H09         5.4670   -1.1260    0.8880 ha        1 BC3      0.140000
     25 H10         5.1620    1.1570    1.9320 h4        1 BC3      0.019100
     26 H12         1.5540    1.7410   -0.0550 h4        1 BC3      0.035100
     27 H13         0.4530   -3.1980   -0.2810 h4        1 BC3      0.173000
     28 HN14       -1.8910   -3.0330    0.7140 hn        1 BC3      0.316700
     29 HN18       -4.2600    1.3240    0.4800 hn        1 BC3      0.337500
@<TRIPOS>BOND
     1    1    2 1   
     2    1   19 1   
     3    1   20 1   
     4    2    3 2   
     5    2   18 1   
     6    3    4 1   
     7    4    5 1   
     8    4   15 2   
     9    5    6 1   
    10    5   13 2   
    11    6    7 1   
    12    6   21 1   
    13    6   22 1   
    14    7    8 ar  
    15    7   12 ar  
    16    8    9 ar  
    17    8   23 1   
    18    9   10 ar  
    19    9   24 1   
    20   10   11 ar  
    21   10   25 1   
    22   11   12 ar  
    23   12   26 1   
    24   13   14 1   
    25   13   27 1   
    26   14   15 1   
    27   14   28 1   
    28   15   16 1   
    29   16   17 2   
    30   16   18 1   
    31   18   29 1   
@<TRIPOS>SUBSTRUCTURE
     1 BC3         1 TEMP              0 ****  ****    0 ROOT
