@<TRIPOS>MOLECULE
BC3
   30    32     1     0     0
SMALL
bcc


@<TRIPOS>ATOM
      1 N01         0.2790   -1.1560    0.4160 n4        1 BC3     -0.790600
      2 C02         1.6700   -0.6180    0.2750 cc        1 BC3      0.460800
      3 N03         2.3620   -0.5210    1.4060 nd        1 BC3     -0.479100
      4 C04         3.6450   -0.0420    1.2830 cd        1 BC3      0.083400
      5 C05         4.6760    0.1730    2.2660 cd        1 BC3     -0.069300
      6 C06         4.6070   -0.0480    3.7210 c3        1 BC3      0.032200
      7 C07         3.8410   -1.2680    4.0880 ca        1 BC3     -0.201600
      8 C08         4.4710   -2.5060    4.2640 ca        1 BC3     -0.078000
      9 C09         3.6960   -3.6220    4.5860 ca        1 BC3     -0.236300
     10 C10         2.3030   -3.4630    4.7030 ca        1 BC3      0.396200
     11 N11         1.6770   -2.2800    4.5430 nb        1 BC3     -0.688000
     12 C12         2.4420   -1.2080    4.2690 ca        1 BC3      0.405200
     13 C13         5.7880    0.6720    1.5530 cc        1 BC3     -0.100300
     14 N14         5.4900    0.7710    0.1990 na        1 BC3     -0.093100
     15 C15         4.1960    0.3420    0.0060 cc        1 BC3     -0.181900
     16 C16         3.4140    0.2350   -1.2180 c         1 BC3      0.744100
     17 O17         3.7670    0.5300   -2.3640 o         1 BC3     -0.555500
     18 N18         2.1010   -0.2740   -1.0180 n         1 BC3     -0.493400
     19 HN01       -0.3970   -0.4460    0.1130 hn        1 BC3      0.481467
     20 HN0A        0.1790   -2.0040   -0.1520 hn        1 BC3      0.481467
     21 H06         4.1260    0.8540    4.1990 hc        1 BC3      0.076700
     22 H06A        5.6530   -0.1190    4.1340 hc        1 BC3      0.076700
     23 H08         5.5620   -2.5980    4.1560 ha        1 BC3      0.147000
     24 H09         4.1600   -4.6040    4.7480 ha        1 BC3      0.157000
     25 H10         1.6540   -4.3240    4.9480 h4        1 BC3      0.031100
     26 H12         1.9090   -0.2430    4.1910 h4        1 BC3      0.018100
     27 H13         6.7720    0.9620    1.9370 h4        1 BC3      0.204000
     28 HN14        6.0970    1.0950   -0.5180 hn        1 BC3      0.340700
     29 HN18        1.5160   -0.3770   -1.8180 hn        1 BC3      0.350500
     30 H013        0.1030   -1.3910    1.4080 hn        1 BC3      0.481467
@<TRIPOS>BOND
     1    1    2 1   
     2    1   19 1   
     3    1   20 1   
     4    1   30 1   
     5    2    3 2   
     6    2   18 1   
     7    3    4 1   
     8    4    5 1   
     9    4   15 2   
    10    5    6 1   
    11    5   13 2   
    12    6    7 1   
    13    6   21 1   
    14    6   22 1   
    15    7    8 ar  
    16    7   12 ar  
    17    8    9 ar  
    18    8   23 1   
    19    9   10 ar  
    20    9   24 1   
    21   10   11 ar  
    22   10   25 1   
    23   11   12 ar  
    24   12   26 1   
    25   13   14 1   
    26   13   27 1   
    27   14   15 1   
    28   14   28 1   
    29   15   16 1   
    30   16   17 2   
    31   16   18 1   
    32   18   29 1   
@<TRIPOS>SUBSTRUCTURE
     1 BC3         1 TEMP              0 ****  ****    0 ROOT
