@<TRIPOS>MOLECULE
BC3
   30    32     1     0     0
SMALL
bcc


@<TRIPOS>ATOM
      1 N01         0.3040   -1.1680    0.3680 n4        1 BC3     -0.790600
      2 C02         1.7040   -0.6500    0.2380 cc        1 BC3      0.460800
      3 N03         2.3760   -0.5270    1.3790 nd        1 BC3     -0.479100
      4 C04         3.6660   -0.0660    1.2660 cd        1 BC3      0.083400
      5 C05         4.6810    0.1650    2.2610 cd        1 BC3     -0.069300
      6 C06         4.5840   -0.0120    3.7200 c3        1 BC3      0.032200
      7 C07         3.7990   -1.2150    4.1080 ca        1 BC3     -0.201600
      8 C08         4.4150   -2.4530    4.3310 ca        1 BC3     -0.078000
      9 C09         3.6240   -3.5520    4.6700 ca        1 BC3     -0.236300
     10 C10         2.2300   -3.3780    4.7570 ca        1 BC3      0.396200
     11 N11         1.6180   -2.1940    4.5520 nb        1 BC3     -0.688000
     12 C12         2.3980   -1.1370    4.2610 ca        1 BC3      0.405200
     13 C13         5.8120    0.6320    1.5550 cc        1 BC3     -0.100300
     14 N14         5.5410    0.6950    0.1930 na        1 BC3     -0.093100
     15 C15         4.2460    0.2740   -0.0110 cc        1 BC3     -0.181900
     16 C16         3.4850    0.1400   -1.2460 c         1 BC3      0.744100
     17 O17         3.8620    0.3980   -2.3940 o         1 BC3     -0.555500
     18 N18         2.1630   -0.3480   -1.0560 n         1 BC3     -0.493400
     19 HN01       -0.3580   -0.4600    0.0330 hn        1 BC3      0.481467
     20 HN0A        0.1070   -1.3730    1.3630 hn        1 BC3      0.481467
     21 H06         4.1020    0.9070    4.1620 hc        1 BC3      0.076700
     22 H06A        5.6200   -0.0810    4.1550 hc        1 BC3      0.076700
     23 H08         5.5070   -2.5570    4.2450 ha        1 BC3      0.147000
     24 H09         4.0750   -4.5340    4.8680 ha        1 BC3      0.157000
     25 H10         1.5690   -4.2250    5.0150 h4        1 BC3      0.031100
     26 H12         1.8750   -0.1700    4.1460 h4        1 BC3      0.018100
     27 H13         6.7920    0.9210    1.9490 h4        1 BC3      0.204000
     28 HN14        6.1650    0.9900   -0.5210 hn        1 BC3      0.340700
     29 HN18        1.5910   -0.4680   -1.8640 hn        1 BC3      0.350500
     30 H013        0.2050   -2.0310   -0.1780 hn        1 BC3      0.481467
@<TRIPOS>BOND
     1    1    2 1   
     2    1   19 1   
     3    1   20 1   
     4    1   30 1   
     5    2    3 2   
     6    2   18 1   
     7    3    4 1   
     8    4    5 1   
     9    4   15 2   
    10    5    6 1   
    11    5   13 2   
    12    6    7 1   
    13    6   21 1   
    14    6   22 1   
    15    7    8 ar  
    16    7   12 ar  
    17    8    9 ar  
    18    8   23 1   
    19    9   10 ar  
    20    9   24 1   
    21   10   11 ar  
    22   10   25 1   
    23   11   12 ar  
    24   12   26 1   
    25   13   14 1   
    26   13   27 1   
    27   14   15 1   
    28   14   28 1   
    29   15   16 1   
    30   16   17 2   
    31   16   18 1   
    32   18   29 1   
@<TRIPOS>SUBSTRUCTURE
     1 BC3         1 TEMP              0 ****  ****    0 ROOT
