@<TRIPOS>MOLECULE
BC3
   29    24     1     0     0
SMALL
bcc


@<TRIPOS>ATOM
      1 N01        -3.7970    0.6660   -2.1360 n3        1 BC3     -0.318000
      2 C02        -2.3510    0.6830   -2.2030 c2        1 BC3      0.192000
      3 N03        -1.5770    0.6480   -1.0040 n1        1 BC3     -0.211000
      4 C04        -0.1210    0.7000   -1.0730 c1        1 BC3     -0.057000
      5 C05         0.8420    0.6490   -0.1060 c1        1 BC3     -0.057000
      6 C06         0.9140    0.9640    1.3770 c2        1 BC3     -0.047000
      7 C07         0.6920   -0.3060    2.1790 c2        1 BC3     -0.117000
      8 C08         1.7390   -1.1900    2.3940 c1        1 BC3     -0.098000
      9 C09         1.5400   -2.3110    3.1750 c1        1 BC3     -0.130000
     10 C10         0.2940   -2.5510    3.7420 c1        1 BC3     -0.130000
     11 N11        -0.7470   -1.6670    3.5260 n1        1 BC3     -0.139000
     12 C12        -0.5560   -0.5530    2.7520 c2        1 BC3     -0.059000
     13 C13         2.0850    0.6980   -0.7320 c1        1 BC3     -0.140000
     14 N14         1.8810    0.7790   -2.0650 n2        1 BC3     -0.132000
     15 C15         0.5070    0.7800   -2.2900 c1        1 BC3     -0.140000
     16 C16        -0.2930    0.8150   -3.5330 c1        1 BC3      0.377000
     17 O17         0.2400    0.9480   -4.5640 o         1 BC3     -0.367000
     18 N18        -1.7040    0.7720   -3.4640 n3        1 BC3     -0.331000
     19 HN01       -4.3020    1.4650   -2.3590 hn        1 BC3      0.204000
     20 HN0A       -4.2530   -0.1310   -1.8860 hn        1 BC3      0.204000
     21 H06         0.1780    1.6530    1.6190 ha        1 BC3      0.100500
     22 H06A        1.8350    1.3530    1.6020 ha        1 BC3      0.100500
     23 H08         2.6160   -1.0200    1.9950 ha        1 BC3      0.133000
     24 H09         2.2250   -2.8950    3.3190 ha        1 BC3      0.148000
     25 H10         0.1420   -3.4050    4.3370 ha        1 BC3      0.148000
     26 H12        -1.3330    0.1020    2.5950 h4        1 BC3      0.174000
     27 H13         2.9410    0.7430   -0.2870 DU        1 BC3      0.220000
     28 HN14        2.5420    0.8250   -2.7170 DU        1 BC3      0.220000
     29 HN18       -2.1760    0.7900   -4.1930 hn        1 BC3      0.251000
@<TRIPOS>BOND
     1    1    2 1   
     2    1   19 1   
     3    1   20 1   
     4    2    3 1   
     5    2   18 1   
     6    4    5 1   
     7    4   15 1   
     8    5   13 1   
     9    6    7 1   
    10    6   21 1   
    11    6   22 1   
    12    7    8 1   
    13    7   12 1   
    14    8   23 1   
    15    9   10 1   
    16    9   24 1   
    17   10   25 1   
    18   11   12 1   
    19   12   26 1   
    20   13   14 1   
    21   14   15 1   
    22   16   17 1   
    23   16   18 1   
    24   18   29 1   
@<TRIPOS>SUBSTRUCTURE
     1 BC3         1 TEMP              0 ****  ****    0 ROOT
