@<TRIPOS>MOLECULE
BC4
   31    30     1     0     0
SMALL
bcc


@<TRIPOS>ATOM
      1 CAA        -4.6090    0.2330   -4.3110 c1        1 BC4     -0.191500
      2 CAC        -4.1980    0.0280   -3.2140 c1        1 BC4     -0.191500
      3 CAD        -3.6780   -0.2320   -1.8230 c2        1 BC4     -0.054000
      4 CAE        -2.1730    0.0710   -1.7730 c3        1 BC4     -0.153000
      5 CAF        -1.6040   -0.3970   -0.4410 c3        1 BC4     -0.164000
      6 CAG        -0.1340   -0.0840   -0.3870 c3        1 BC4     -0.140000
      7 CAM         0.4520   -0.5200    1.0420 c3        1 BC4     -0.208000
      8 SAK         0.2080    0.6810    2.1510 ss        1 BC4      0.082000
      9 CAH         1.7260    0.9230    2.8910 c3        1 BC4     -0.302000
     10 CAN         2.5310   -0.2020    2.4340 c3        1 BC4     -0.021000
     11 CAO         1.8980   -0.6880    0.9650 c3        1 BC4     -0.001000
     12 NAJ         2.4520    0.0810    0.0400 n         1 BC4     -0.358000
     13 CAL         3.7720    0.6140    0.6610 c2        1 BC4      0.349000
     14 OAB         4.7640    0.9730    0.0370 o         1 BC4     -0.341000
     15 NAI         3.7360    0.2090    2.1960 n         1 BC4     -0.313000
     16 H1         -4.9530    0.4050   -5.2250 DU        1 BC4      0.221000
     17 H2         -3.8310   -1.1730   -1.5860 ha        1 BC4      0.099000
     18 H3         -4.1480    0.3460   -1.1870 ha        1 BC4      0.099000
     19 H4         -1.7190   -0.3990   -2.5060 hc        1 BC4      0.089000
     20 H5         -2.0310    1.0380   -1.8670 hc        1 BC4      0.089000
     21 H6         -1.7340   -1.3530   -0.3520 hc        1 BC4      0.087000
     22 H7         -2.0580    0.0580    0.2820 hc        1 BC4      0.087000
     23 H8         -0.0000    0.8750   -0.5160 hc        1 BC4      0.099000
     24 H9          0.3310   -0.5770   -1.0940 hc        1 BC4      0.099000
     25 H10         0.0220   -1.3680    1.3490 h1        1 BC4      0.113000
     26 H11         1.5960    0.8070    3.8740 h1        1 BC4      0.120000
     27 H12         2.1120    1.7300    2.4920 h1        1 BC4      0.120000
     28 H13         2.5250   -0.9400    3.0880 h1        1 BC4      0.124000
     29 H14         2.1200   -1.6310    0.7980 h1        1 BC4      0.100000
     30 H15         2.2280    0.0980   -0.8540 hn        1 BC4      0.241000
     31 H16         4.3970    0.3950    2.8350 hn        1 BC4      0.221000
@<TRIPOS>BOND
     1    1    2 1   
     2    3    4 1   
     3    3   17 1   
     4    3   18 1   
     5    4    5 1   
     6    4   19 1   
     7    4   20 1   
     8    5    6 1   
     9    5   21 1   
    10    5   22 1   
    11    6    7 1   
    12    6   23 1   
    13    6   24 1   
    14    7    8 1   
    15    7   11 1   
    16    7   25 1   
    17    8    9 1   
    18    9   10 1   
    19    9   26 1   
    20    9   27 1   
    21   10   11 1   
    22   10   15 1   
    23   10   28 1   
    24   11   12 1   
    25   11   29 1   
    26   12   13 1   
    27   12   30 1   
    28   13   14 1   
    29   13   15 1   
    30   15   31 1   
@<TRIPOS>SUBSTRUCTURE
     1 BC4         1 TEMP              0 ****  ****    0 ROOT
