@<TRIPOS>MOLECULE
BC4
   31    32     1     0     0
SMALL
bcc


@<TRIPOS>ATOM
      1 CAA        -1.0340   -0.0210   -2.4320 c1        1 BC4     -0.155500
      2 CAC        -0.5540   -0.0530   -1.3360 c1        1 BC4     -0.142100
      3 CAD         0.0040   -0.0920   -0.0170 c3        1 BC4     -0.002300
      4 CAE         1.5200    0.0160   -0.0320 c3        1 BC4     -0.076400
      5 CAF         2.0740   -0.0380    1.3750 c3        1 BC4     -0.083400
      6 CAG         3.5870    0.0640    1.3650 c3        1 BC4     -0.072400
      7 CAM         4.1440    0.0580    2.7690 c3        1 BC4     -0.009600
      8 SAK         3.7130    1.5780    3.6010 ss        1 BC4     -0.290200
      9 CAH         5.0900    1.5640    4.7050 c3        1 BC4     -0.045300
     10 CAN         6.2190    0.7500    4.0860 c3        1 BC4      0.057700
     11 CAO         5.6600   -0.1240    2.8750 c3        1 BC4      0.060700
     12 NAJ         6.4790    0.2550    1.7310 ns        1 BC4     -0.517900
     13 CAL         7.3390    1.3310    2.1040 c         1 BC4      0.749500
     14 OAB         8.0710    1.9540    1.3170 o         1 BC4     -0.614500
     15 NAI         7.3290    1.5110    3.5210 ns        1 BC4     -0.513900
     16 H1         -1.4590    0.0070   -3.4020 ha        1 BC4      0.164500
     17 H2         -0.2970   -1.0540    0.4860 hc        1 BC4      0.060200
     18 H3         -0.4240    0.7510    0.5940 hc        1 BC4      0.060200
     19 H4          1.9520   -0.8200   -0.6420 hc        1 BC4      0.050200
     20 H5          1.8240    0.9780   -0.5230 hc        1 BC4      0.050200
     21 H6          1.7620   -0.9980    1.8670 hc        1 BC4      0.050700
     22 H7          1.6470    0.8030    1.9850 hc        1 BC4      0.050700
     23 H8          4.0100   -0.8050    0.7930 hc        1 BC4      0.056700
     24 H9          3.8860    1.0050    0.8310 hc        1 BC4      0.056700
     25 H10         3.6680   -0.7850    3.3380 h1        1 BC4      0.082700
     26 H11         5.3790    2.6240    4.9110 h1        1 BC4      0.082700
     27 H12         4.7920    1.1060    5.6800 h1        1 BC4      0.082700
     28 H13         6.6530    0.0590    4.8640 h1        1 BC4      0.088700
     29 H14         5.8770   -1.2110    3.0830 h1        1 BC4      0.087700
     30 H15         6.0400    0.3290    0.8420 hn        1 BC4      0.316500
     31 H16         7.4590    2.4430    3.8420 hn        1 BC4      0.312500
@<TRIPOS>BOND
     1    1    2 3   
     2    1   16 1   
     3    2    3 1   
     4    3    4 1   
     5    3   17 1   
     6    3   18 1   
     7    4    5 1   
     8    4   19 1   
     9    4   20 1   
    10    5    6 1   
    11    5   21 1   
    12    5   22 1   
    13    6    7 1   
    14    6   23 1   
    15    6   24 1   
    16    7    8 1   
    17    7   11 1   
    18    7   25 1   
    19    8    9 1   
    20    9   10 1   
    21    9   26 1   
    22    9   27 1   
    23   10   11 1   
    24   10   15 1   
    25   10   28 1   
    26   11   12 1   
    27   11   29 1   
    28   12   13 1   
    29   12   30 1   
    30   13   14 2   
    31   13   15 1   
    32   15   31 1   
@<TRIPOS>SUBSTRUCTURE
     1 BC4         1 TEMP              0 ****  ****    0 ROOT
