@<TRIPOS>MOLECULE
BC4
   31    32     1     0     0
SMALL
bcc


@<TRIPOS>ATOM
      1 CAA        -6.5810    0.9020    0.4260 c1        1 BC4     -0.155500
      2 CAC        -5.6040    0.2390    0.2320 c1        1 BC4     -0.142100
      3 CAD        -4.4430   -0.5690    0.0010 c3        1 BC4     -0.002300
      4 CAE        -3.1810    0.2660   -0.1410 c3        1 BC4     -0.076400
      5 CAF        -1.9800   -0.6200   -0.3920 c3        1 BC4     -0.083400
      6 CAG        -0.7190    0.2090   -0.5400 c3        1 BC4     -0.072400
      7 CAM         0.4920   -0.6700   -0.7430 c3        1 BC4     -0.009600
      8 SAK         0.8540   -1.5630    0.7600 ss        1 BC4     -0.290200
      9 CAH         2.5790   -1.7480    0.4370 c3        1 BC4     -0.045300
     10 CAN         3.0330   -0.6390   -0.5030 c3        1 BC4      0.057700
     11 CAO         1.7670    0.0550   -1.1790 c3        1 BC4      0.060700
     12 NAJ         1.8970    1.4690   -0.8550 n         1 BC4     -0.517900
     13 CAL         2.9990    1.6490    0.0330 c         1 BC4      0.749500
     14 OAB         3.2930    2.7230    0.5850 o         1 BC4     -0.614500
     15 NAI         3.7830    0.4560    0.1060 n         1 BC4     -0.513900
     16 H1         -7.4470    1.4890    0.5980 ha        1 BC4      0.164500
     17 H2         -4.3180   -1.2940    0.8540 hc        1 BC4      0.060200
     18 H3         -4.5960   -1.1800   -0.9340 hc        1 BC4      0.060200
     19 H4         -3.3020    0.9910   -0.9880 hc        1 BC4      0.050200
     20 H5         -3.0220    0.8670    0.7930 hc        1 BC4      0.050200
     21 H6         -1.8550   -1.3420    0.4590 hc        1 BC4      0.050700
     22 H7         -2.1460   -1.2260   -1.3220 hc        1 BC4      0.050700
     23 H8         -0.8320    0.8960   -1.4210 hc        1 BC4      0.056700
     24 H9         -0.5900    0.8450    0.3770 hc        1 BC4      0.056700
     25 H10         0.2530   -1.4290   -1.5370 h1        1 BC4      0.082700
     26 H11         3.1180   -1.7370    1.4160 h1        1 BC4      0.082700
     27 H12         2.7740   -2.7410   -0.0380 h1        1 BC4      0.082700
     28 H13         3.6850   -1.0750   -1.3120 h1        1 BC4      0.088700
     29 H14         1.8630   -0.0310   -2.3000 h1        1 BC4      0.087700
     30 H15         1.0720    1.9830   -0.6440 hn        1 BC4      0.316500
     31 H16         4.2290    0.2810    0.9770 hn        1 BC4      0.312500
@<TRIPOS>BOND
     1    1    2 3   
     2    1   16 1   
     3    2    3 1   
     4    3    4 1   
     5    3   17 1   
     6    3   18 1   
     7    4    5 1   
     8    4   19 1   
     9    4   20 1   
    10    5    6 1   
    11    5   21 1   
    12    5   22 1   
    13    6    7 1   
    14    6   23 1   
    15    6   24 1   
    16    7    8 1   
    17    7   11 1   
    18    7   25 1   
    19    8    9 1   
    20    9   10 1   
    21    9   26 1   
    22    9   27 1   
    23   10   11 1   
    24   10   15 1   
    25   10   28 1   
    26   11   12 1   
    27   11   29 1   
    28   12   13 1   
    29   12   30 1   
    30   13   14 2   
    31   13   15 1   
    32   15   31 1   
@<TRIPOS>SUBSTRUCTURE
     1 BC4         1 TEMP              0 ****  ****    0 ROOT
