@<TRIPOS>MOLECULE
BC4
   31    32     1     0     0
SMALL
bcc


@<TRIPOS>ATOM
      1 CAA        -1.0560    0.0270   -2.4170 c1        1 BC4     -0.155500
      2 CAC        -0.5720   -0.0130   -1.3240 c1        1 BC4     -0.142100
      3 CAD        -0.0090   -0.0620   -0.0070 c3        1 BC4     -0.002300
      4 CAE         1.5070    0.0430   -0.0270 c3        1 BC4     -0.076400
      5 CAF         2.0650   -0.0230    1.3780 c3        1 BC4     -0.083400
      6 CAG         3.5790    0.0760    1.3640 c3        1 BC4     -0.072400
      7 CAM         4.1410    0.0590    2.7650 c3        1 BC4     -0.009600
      8 SAK         3.7160    1.5730    3.6100 ss        1 BC4     -0.290200
      9 CAH         5.0970    1.5490    4.7090 c3        1 BC4     -0.045300
     10 CAN         6.2220    0.7370    4.0800 c3        1 BC4      0.057700
     11 CAO         5.6570   -0.1270    2.8640 c3        1 BC4      0.060700
     12 NAJ         6.4720    0.2600    1.7200 n         1 BC4     -0.517900
     13 CAL         7.3350    1.3310    2.0980 c         1 BC4      0.749500
     14 OAB         8.0660    1.9590    1.3130 o         1 BC4     -0.614500
     15 NAI         7.3310    1.5010    3.5160 n         1 BC4     -0.513900
     16 H1         -1.4840    0.0630   -3.3860 ha        1 BC4      0.164500
     17 H2         -0.4330    0.7790    0.6120 hc        1 BC4      0.060200
     18 H3         -0.3120   -1.0260    0.4910 hc        1 BC4      0.060200
     19 H4          1.9340   -0.7910   -0.6440 hc        1 BC4      0.050200
     20 H5          1.8110    1.0070   -0.5120 hc        1 BC4      0.050200
     21 H6          1.7540   -0.9860    1.8640 hc        1 BC4      0.050700
     22 H7          1.6420    0.8150    1.9960 hc        1 BC4      0.050700
     23 H8          3.9980   -0.7900    0.7830 hc        1 BC4      0.056700
     24 H9          3.8780    1.0210    0.8350 hc        1 BC4      0.056700
     25 H10         3.6650   -0.7880    3.3300 h1        1 BC4      0.082700
     26 H11         4.8010    1.0830    5.6810 h1        1 BC4      0.082700
     27 H12         5.3880    2.6060    4.9210 h1        1 BC4      0.082700
     28 H13         6.6580    0.0400    4.8500 h1        1 BC4      0.088700
     29 H14         5.8730   -1.2160    3.0630 h1        1 BC4      0.087700
     30 H15         6.0310    0.3410    0.8330 hn        1 BC4      0.316500
     31 H16         7.4640    2.4300    3.8440 hn        1 BC4      0.312500
@<TRIPOS>BOND
     1    1    2 3   
     2    1   16 1   
     3    2    3 1   
     4    3    4 1   
     5    3   17 1   
     6    3   18 1   
     7    4    5 1   
     8    4   19 1   
     9    4   20 1   
    10    5    6 1   
    11    5   21 1   
    12    5   22 1   
    13    6    7 1   
    14    6   23 1   
    15    6   24 1   
    16    7    8 1   
    17    7   11 1   
    18    7   25 1   
    19    8    9 1   
    20    9   10 1   
    21    9   26 1   
    22    9   27 1   
    23   10   11 1   
    24   10   15 1   
    25   10   28 1   
    26   11   12 1   
    27   11   29 1   
    28   12   13 1   
    29   12   30 1   
    30   13   14 2   
    31   13   15 1   
    32   15   31 1   
@<TRIPOS>SUBSTRUCTURE
     1 BC4         1 TEMP              0 ****  ****    0 ROOT
