@<TRIPOS>MOLECULE
BC4
   31    32     1     0     0
SMALL
bcc


@<TRIPOS>ATOM
      1 CAA        -1.0650   -0.0170   -2.4070 c1        1 BC4     -0.155500
      2 CAC        -0.5790   -0.0510   -1.3140 c1        1 BC4     -0.142100
      3 CAD        -0.0140   -0.0940    0.0030 c3        1 BC4     -0.002300
      4 CAE         1.5020    0.0170   -0.0210 c3        1 BC4     -0.076400
      5 CAF         2.0620   -0.0400    1.3850 c3        1 BC4     -0.083400
      6 CAG         3.5750    0.0640    1.3670 c3        1 BC4     -0.072400
      7 CAM         4.1400    0.0560    2.7680 c3        1 BC4     -0.009600
      8 SAK         3.7110    1.5740    3.6040 ss        1 BC4     -0.290200
      9 CAH         5.0930    1.5600    4.7020 c3        1 BC4     -0.045300
     10 CAN         6.2200    0.7480    4.0760 c3        1 BC4      0.057700
     11 CAO         5.6560   -0.1240    2.8660 c3        1 BC4      0.060700
     12 NAJ         6.4680    0.2580    1.7180 n         1 BC4     -0.517900
     13 CAL         7.3290    1.3340    2.0890 c         1 BC4      0.749500
     14 OAB         8.0560    1.9600    1.2990 o         1 BC4     -0.614500
     15 NAI         7.3260    1.5120    3.5060 n         1 BC4     -0.513900
     16 H1         -1.4950    0.0140   -3.3750 ha        1 BC4      0.164500
     17 H2         -0.3120   -1.0570    0.5040 hc        1 BC4      0.060200
     18 H3         -0.4410    0.7470    0.6190 hc        1 BC4      0.060200
     19 H4          1.8010    0.9810   -0.5100 hc        1 BC4      0.050200
     20 H5          1.9310   -0.8180   -0.6350 hc        1 BC4      0.050200
     21 H6          1.7540   -1.0020    1.8750 hc        1 BC4      0.050700
     22 H7          1.6370    0.7990    1.9990 hc        1 BC4      0.050700
     23 H8          3.9970   -0.8040    0.7910 hc        1 BC4      0.056700
     24 H9          3.8700    1.0070    0.8330 hc        1 BC4      0.056700
     25 H10         3.6670   -0.7890    3.3380 h1        1 BC4      0.082700
     26 H11         4.8000    1.1000    5.6770 h1        1 BC4      0.082700
     27 H12         5.3810    2.6200    4.9070 h1        1 BC4      0.082700
     28 H13         6.6590    0.0570    4.8500 h1        1 BC4      0.088700
     29 H14         5.8760   -1.2110    3.0710 h1        1 BC4      0.087700
     30 H15         6.0260    0.3330    0.8310 hn        1 BC4      0.316500
     31 H16         7.4560    2.4450    3.8280 hn        1 BC4      0.312500
@<TRIPOS>BOND
     1    1    2 3   
     2    1   16 1   
     3    2    3 1   
     4    3    4 1   
     5    3   17 1   
     6    3   18 1   
     7    4    5 1   
     8    4   19 1   
     9    4   20 1   
    10    5    6 1   
    11    5   21 1   
    12    5   22 1   
    13    6    7 1   
    14    6   23 1   
    15    6   24 1   
    16    7    8 1   
    17    7   11 1   
    18    7   25 1   
    19    8    9 1   
    20    9   10 1   
    21    9   26 1   
    22    9   27 1   
    23   10   11 1   
    24   10   15 1   
    25   10   28 1   
    26   11   12 1   
    27   11   29 1   
    28   12   13 1   
    29   12   30 1   
    30   13   14 2   
    31   13   15 1   
    32   15   31 1   
@<TRIPOS>SUBSTRUCTURE
     1 BC4         1 TEMP              0 ****  ****    0 ROOT
