@<TRIPOS>MOLECULE
BC6
   78    74     1     0     0
SMALL
bcc


@<TRIPOS>ATOM
      1 O37        -3.1730   -5.0200   -0.1060 o         1 BC6     -0.352000
      2 C21        -2.0110   -4.7600   -0.3730 c1        1 BC6      0.348000
      3 C20        -0.9530   -4.6600    0.7720 c1        1 BC6     -0.138000
      4 C36         0.0820   -5.7750    0.9590 c3        1 BC6     -0.178000
      5 C19        -0.9760   -3.4150    1.7770 c1        1 BC6     -0.112000
      6 C18        -2.0260   -2.2820    1.5900 c2        1 BC6     -0.139000
      7 C17        -1.3070   -0.8900    1.6310 c3        1 BC6     -0.153000
      8 C16        -2.1020    0.0800    2.5420 c3        1 BC6     -0.118000
      9 C35        -3.1040    0.8270    1.7220 c3        1 BC6     -0.211000
     10 N22        -1.5760   -4.6870   -1.7940 n3        1 BC6     -0.333000
     11 C3         -0.4830   -3.6910   -1.9380 c2        1 BC6      0.113000
     12 C4          0.7670   -4.0060   -1.5110 c2        1 BC6     -0.195000
     13 C5          1.8020   -3.1140   -1.6240 c1        1 BC6      0.102000
     14 O36         3.0850   -3.4750   -1.1550 o         1 BC6     -0.253000
     15 C6          1.6080   -1.8520   -2.1820 c2        1 BC6     -0.235000
     16 C1          0.3410   -1.4440   -2.6510 c1        1 BC6      0.002000
     17 C2         -0.7910   -2.3080   -2.5730 c1        1 BC6     -0.219000
     18 C7          0.1760    0.0060   -3.3000 c3        1 BC6     -0.128000
     19 C8          1.5400    0.6520   -3.4510 c3        1 BC6     -0.090000
     20 C25         1.5880    1.4220   -4.7220 c3        1 BC6     -0.212000
     21 C9          1.8040    1.6140   -2.2540 c3        1 BC6     -0.146000
     22 C10         0.6180    2.5760   -2.0930 c3        1 BC6      0.036000
     23 O26         0.4590    3.3250   -3.2600 os        1 BC6     -0.270000
     24 C27        -0.7140    4.1390   -3.2680 c3        1 BC6     -0.079000
     25 C11         0.8770    3.5080   -0.9280 c3        1 BC6      0.009000
     26 O28         1.9310    4.3810   -1.2520 oh        1 BC6     -0.319000
     27 C12         1.2520    2.6980    0.2940 c3        1 BC6     -0.109000
     28 C29         2.1560    3.5110    1.1750 c3        1 BC6     -0.212000
     29 C13        -0.0220    2.3180    1.0770 c2        1 BC6     -0.168000
     30 C14         0.0640    1.2800    2.2790 c1        1 BC6     -0.095000
     31 C30         1.3970    0.6670    2.6510 c2        1 BC6     -0.182000
     32 C15        -1.1580    1.0560    3.1880 c3        1 BC6      0.083000
     33 O31        -0.7350    0.5450    4.4220 os        1 BC6     -0.285000
     34 C32        -1.4030    1.1130    5.5410 c2        1 BC6      0.394000
     35 O33        -2.6010    1.2940    5.5030 o         1 BC6     -0.405000
     36 N34        -0.6760    1.3930    6.7390 n         1 BC6     -0.409000
     37 H22        -2.1910   -4.7970   -2.4710 hn        1 BC6      0.239000
     38 H361        0.9360   -5.3850    1.2180 hc        1 BC6      0.091667
     39 H362        0.1890   -6.2650    0.1190 hc        1 BC6      0.091667
     40 H363       -0.2240   -6.3910    1.6610 hc        1 BC6      0.091667
     41 H19        -0.3130   -3.3530    2.4940 ha        1 BC6      0.130000
     42 H181       -2.6910   -2.3290    2.3110 ha        1 BC6      0.095000
     43 H182       -2.4740   -2.3930    0.7230 ha        1 BC6      0.095000
     44 H171       -1.2610   -0.5200    0.7250 hc        1 BC6      0.091500
     45 H172       -0.4000   -1.0010    1.9850 hc        1 BC6      0.091500
     46 H16        -2.5640   -0.4300    3.2340 hc        1 BC6      0.109000
     47 H351       -3.9750    0.3890    1.7940 hc        1 BC6      0.078333
     48 H352       -3.1740    1.7490    2.0520 hc        1 BC6      0.078333
     49 H353       -2.8220    0.8360    0.7940 hc        1 BC6      0.078333
     50 H15        -1.6210    1.9120    3.3300 h1        1 BC6      0.122000
     51 H4          0.9330   -4.8870   -1.1250 ha        1 BC6      0.161000
     52 H2         -1.6860   -2.0510   -2.8920 ha        1 BC6      0.136000
     53 H36         3.5690   -3.7800   -1.8290 ho        1 BC6      0.219000
     54 H6          2.3600   -1.2400   -2.2500 ha        1 BC6      0.141000
     55 H7C1       -0.3820    0.5570   -2.7250 hc        1 BC6      0.096500
     56 H7C2       -0.2470   -0.0760   -4.1830 hc        1 BC6      0.096500
     57 H8          2.2250   -0.0410   -3.4660 hc        1 BC6      0.083000
     58 H251        0.7240    1.8440   -4.8790 hc        1 BC6      0.079333
     59 H252        1.7960    0.8130   -5.4670 hc        1 BC6      0.079333
     60 H253        2.2840    2.1120   -4.6600 hc        1 BC6      0.079333
     61 H9C1        2.6200    2.1290   -2.4250 hc        1 BC6      0.099000
     62 H9C2        1.9130    1.0960   -1.4390 hc        1 BC6      0.099000
     63 H10        -0.1900    2.0670   -1.9240 h1        1 BC6      0.089000
     64 H11         0.0690    4.0280   -0.7400 h1        1 BC6      0.081000
     65 H271       -1.3830    3.7550   -2.6620 h1        1 BC6      0.072000
     66 H272       -1.0820    4.1770   -4.1820 h1        1 BC6      0.072000
     67 H273       -0.4840    5.0470   -2.9700 h1        1 BC6      0.072000
     68 H28         1.7310    5.2100   -0.9730 ho        1 BC6      0.201000
     69 H12         1.7170    1.8840    0.0130 hc        1 BC6      0.107000
     70 H291        3.0120    3.6600    0.7170 hc        1 BC6      0.080000
     71 H292        1.7340    4.3740    1.3700 hc        1 BC6      0.080000
     72 H293        2.3150    3.0290    2.0130 hc        1 BC6      0.080000
     73 H13        -0.8810    2.7140    0.8360 ha        1 BC6      0.123000
     74 H301        1.2480   -0.1170    3.2210 ha        1 BC6      0.088667
     75 H302        1.9360    1.3270    3.1370 ha        1 BC6      0.088667
     76 H303        1.8700    0.3950    1.8390 ha        1 BC6      0.088667
     77 H341       -1.0830    1.2980    7.5540 hn        1 BC6      0.242000
     78 H342        0.2090    1.6240    6.6940 hn        1 BC6      0.242000
@<TRIPOS>BOND
     1    1    2 1   
     2    2   10 1   
     3    3    4 1   
     4    3    5 1   
     5    4   38 1   
     6    4   39 1   
     7    4   40 1   
     8    5   41 1   
     9    6    7 1   
    10    6   42 1   
    11    6   43 1   
    12    7    8 1   
    13    7   44 1   
    14    7   45 1   
    15    8    9 1   
    16    8   32 1   
    17    8   46 1   
    18    9   47 1   
    19    9   48 1   
    20    9   49 1   
    21   10   11 1   
    22   10   37 1   
    23   11   12 1   
    24   11   17 1   
    25   12   13 1   
    26   12   51 1   
    27   13   15 1   
    28   14   53 1   
    29   15   16 1   
    30   15   54 1   
    31   16   18 1   
    32   17   52 1   
    33   18   19 1   
    34   18   55 1   
    35   18   56 1   
    36   19   20 1   
    37   19   21 1   
    38   19   57 1   
    39   20   58 1   
    40   20   59 1   
    41   20   60 1   
    42   21   22 1   
    43   21   61 1   
    44   21   62 1   
    45   22   23 1   
    46   22   25 1   
    47   22   63 1   
    48   23   24 1   
    49   24   65 1   
    50   24   66 1   
    51   24   67 1   
    52   25   26 1   
    53   25   27 1   
    54   25   64 1   
    55   26   68 1   
    56   27   28 1   
    57   27   29 1   
    58   27   69 1   
    59   28   70 1   
    60   28   71 1   
    61   28   72 1   
    62   29   30 1   
    63   29   73 1   
    64   30   32 1   
    65   31   74 1   
    66   31   75 1   
    67   31   76 1   
    68   32   33 1   
    69   32   50 1   
    70   33   34 1   
    71   34   35 1   
    72   34   36 1   
    73   36   77 1   
    74   36   78 1   
@<TRIPOS>SUBSTRUCTURE
     1 BC6         1 TEMP              0 ****  ****    0 ROOT
