@<TRIPOS>MOLECULE
BC6
   80    81     1     0     0
SMALL
bcc


@<TRIPOS>ATOM
      1 O37         1.4590   -1.2490   -0.7280 o         1 BC6     -0.424100
      2 C21         1.6180   -0.2090   -0.1040 c         1 BC6      0.571300
      3 C20         1.7060   -0.0020    1.3460 ce        1 BC6     -0.227400
      4 C36         1.0700    1.2210    1.9000 c3        1 BC6     -0.079900
      5 C19         2.2990   -0.9120    2.1480 c2        1 BC6     -0.005200
      6 C18         2.9020   -2.2000    1.7480 c3        1 BC6     -0.088200
      7 C17         4.2270   -2.4480    2.4490 c3        1 BC6     -0.076400
      8 C16         4.6210   -3.9210    2.3640 c3        1 BC6     -0.069700
      9 C35         3.9800   -4.7080    3.4890 c3        1 BC6     -0.103100
     10 N22         1.7290    1.0400   -0.9740 n4        1 BC6     -0.546200
     11 C3          3.1280    1.3110   -1.3300 ca        1 BC6     -0.011400
     12 C4          3.5970    0.9040   -2.5870 ca        1 BC6     -0.150000
     13 C5          4.9360    1.1840   -2.9120 ca        1 BC6      0.166100
     14 O36         5.3420    0.7590   -4.1470 oh        1 BC6     -0.470100
     15 C6          5.7820    1.8420   -2.0050 ca        1 BC6     -0.170000
     16 C1          5.2940    2.2340   -0.7560 ca        1 BC6      0.002700
     17 C2          3.9590    1.9780   -0.4170 ca        1 BC6     -0.154000
     18 C7          6.1790    2.9490    0.2060 c3        1 BC6     -0.051100
     19 C8          6.7860    2.0590    1.2880 c3        1 BC6     -0.065700
     20 C25         5.7320    1.5360    2.2380 c3        1 BC6     -0.093100
     21 C9          7.6030    0.9310    0.6790 c3        1 BC6     -0.075400
     22 C10         8.5780    0.3070    1.6730 c3        1 BC6      0.103100
     23 O26         9.4180    1.3650    2.1440 os        1 BC6     -0.424600
     24 C27         9.8880    1.1850    3.4710 c3        1 BC6      0.109700
     25 C11         9.4950   -0.7380    1.0030 c3        1 BC6      0.127100
     26 O28        10.1720   -0.1560   -0.1010 oh        1 BC6     -0.595800
     27 C12         8.7520   -1.9630    0.4490 c3        1 BC6     -0.047500
     28 C29         9.7650   -2.9330   -0.1390 c3        1 BC6     -0.089100
     29 C13         7.9530   -2.6420    1.5050 c2        1 BC6     -0.078200
     30 C14         6.8690   -3.4060    1.2730 c2        1 BC6     -0.215400
     31 C30         6.3110   -3.6690   -0.0750 c3        1 BC6     -0.059900
     32 C15         6.1490   -4.0390    2.4210 c3        1 BC6      0.224300
     33 O31         6.3900   -5.5130    2.3430 os        1 BC6     -0.405900
     34 C32         7.5110   -5.9600    2.9190 c         1 BC6      0.625100
     35 O33         8.3130   -5.3450    3.6040 o         1 BC6     -0.408000
     36 N34         7.6990   -7.4260    2.6530 n4        1 BC6     -0.722400
     37 H22         1.3480    1.8510   -0.4730 hn        1 BC6      0.468300
     38 H361        0.0650    1.3980    1.4400 hc        1 BC6      0.069700
     39 H362        0.9140    1.1160    3.0050 hc        1 BC6      0.069700
     40 H363        1.7140    2.1230    1.7380 hc        1 BC6      0.069700
     41 H19         2.3300   -0.7020    3.2370 ha        1 BC6      0.164000
     42 H181        2.1660   -3.0110    2.0260 hc        1 BC6      0.085200
     43 H182        3.0510   -2.2690    0.6360 hc        1 BC6      0.085200
     44 H171        5.0170   -1.8090    1.9690 hc        1 BC6      0.061700
     45 H172        4.1590   -2.1460    3.5280 hc        1 BC6      0.061700
     46 H16         4.2730   -4.3450    1.3800 hc        1 BC6      0.081700
     47 H351        4.3600   -4.3690    4.4830 hc        1 BC6      0.051367
     48 H352        2.8710   -4.5700    3.4710 hc        1 BC6      0.051367
     49 H353        4.1970   -5.7980    3.3750 hc        1 BC6      0.051367
     50 H15         6.5390   -3.6900    3.4170 h1        1 BC6      0.091700
     51 H4          2.9670    0.3840   -3.3260 ha        1 BC6      0.181000
     52 H2          3.5860    2.3110    0.5650 ha        1 BC6      0.155000
     53 H36         6.2430    1.0840   -4.3110 ho        1 BC6      0.450000
     54 H6          6.8290    2.0530   -2.2800 ha        1 BC6      0.172000
     55 H7C1        5.5920    3.7670    0.7060 hc        1 BC6      0.074700
     56 H7C2        7.0180    3.4410   -0.3590 hc        1 BC6      0.074700
     57 H8          7.4940    2.7150    1.8780 hc        1 BC6      0.094700
     58 H251        5.0560    0.8080    1.7260 hc        1 BC6      0.031700
     59 H252        6.2170    1.0190    3.1020 hc        1 BC6      0.031700
     60 H253        5.1140    2.3770    2.6360 hc        1 BC6      0.031700
     61 H9C1        6.9240    0.1270    0.2950 hc        1 BC6      0.054200
     62 H9C2        8.1960    1.3270   -0.1900 hc        1 BC6      0.054200
     63 H10         8.0220   -0.1690    2.5250 h1        1 BC6      0.039700
     64 H11        10.2550   -1.0780    1.7650 h1        1 BC6      0.046700
     65 H271       10.4960    0.2510    3.5550 h1        1 BC6      0.045033
     66 H272       10.5260    2.0860    3.6580 h1        1 BC6      0.045033
     67 H273        9.0320    1.1540    4.1890 h1        1 BC6      0.045033
     68 H28        10.6000    0.6470    0.2300 ho        1 BC6      0.433000
     69 H12         8.0750   -1.6070   -0.3810 hc        1 BC6      0.077700
     70 H291       10.3790   -2.4030   -0.9090 hc        1 BC6      0.052033
     71 H292        9.2460   -3.7960   -0.6200 hc        1 BC6      0.052033
     72 H293       10.4500   -3.3170    0.6540 hc        1 BC6      0.052033
     73 H13         8.3260   -2.5050    2.5380 ha        1 BC6      0.136000
     74 H301        5.9610   -4.7290   -0.1540 hc        1 BC6      0.053700
     75 H302        5.4350   -2.9960   -0.2640 hc        1 BC6      0.053700
     76 H303        7.0700   -3.4920   -0.8760 hc        1 BC6      0.053700
     77 H341        7.8530   -7.5760    1.6490 hn        1 BC6      0.486467
     78 H342        8.5150   -7.7610    3.1840 hn        1 BC6      0.486467
     79 H222        1.1900    0.8930   -1.8400 hn        1 BC6      0.468300
     80 H343        6.8590   -7.9430    2.9400 hn        1 BC6      0.486467
@<TRIPOS>BOND
     1    1    2 2   
     2    2    3 1   
     3    2   10 1   
     4    3    4 1   
     5    3    5 2   
     6    4   38 1   
     7    4   39 1   
     8    4   40 1   
     9    5    6 1   
    10    5   41 1   
    11    6    7 1   
    12    6   42 1   
    13    6   43 1   
    14    7    8 1   
    15    7   44 1   
    16    7   45 1   
    17    8    9 1   
    18    8   32 1   
    19    8   46 1   
    20    9   47 1   
    21    9   48 1   
    22    9   49 1   
    23   10   11 1   
    24   10   37 1   
    25   10   79 1   
    26   11   12 ar  
    27   11   17 ar  
    28   12   13 ar  
    29   12   51 1   
    30   13   14 1   
    31   13   15 ar  
    32   14   53 1   
    33   15   16 ar  
    34   15   54 1   
    35   16   17 ar  
    36   16   18 1   
    37   17   52 1   
    38   18   19 1   
    39   18   55 1   
    40   18   56 1   
    41   19   20 1   
    42   19   21 1   
    43   19   57 1   
    44   20   58 1   
    45   20   59 1   
    46   20   60 1   
    47   21   22 1   
    48   21   61 1   
    49   21   62 1   
    50   22   23 1   
    51   22   25 1   
    52   22   63 1   
    53   23   24 1   
    54   24   65 1   
    55   24   66 1   
    56   24   67 1   
    57   25   26 1   
    58   25   27 1   
    59   25   64 1   
    60   26   68 1   
    61   27   28 1   
    62   27   29 1   
    63   27   69 1   
    64   28   70 1   
    65   28   71 1   
    66   28   72 1   
    67   29   30 2   
    68   29   73 1   
    69   30   31 1   
    70   30   32 1   
    71   31   74 1   
    72   31   75 1   
    73   31   76 1   
    74   32   33 1   
    75   32   50 1   
    76   33   34 1   
    77   34   35 2   
    78   34   36 1   
    79   36   77 1   
    80   36   78 1   
    81   36   80 1   
@<TRIPOS>SUBSTRUCTURE
     1 BC6         1 TEMP              0 ****  ****    0 ROOT
