@<TRIPOS>MOLECULE
BC6
   78    79     1     0     0
SMALL
bcc


@<TRIPOS>ATOM
      1 O37        40.4490   -5.2210   41.5610 o         1 BC6     -0.592100
      2 C21        40.7670   -5.6860   40.4480 c         1 BC6      0.672300
      3 C20        41.1930   -7.1060   40.3040 ce        1 BC6     -0.164400
      4 C36        42.4790   -7.4390   40.9610 c3        1 BC6     -0.054900
      5 C19        40.3920   -8.0150   39.7250 c2        1 BC6     -0.119200
      6 C18        40.6830   -9.4690   39.7340 c3        1 BC6     -0.054200
      7 C17        40.0330  -10.2320   38.5990 c3        1 BC6     -0.080400
      8 C16        38.5230  -10.3620   38.7210 c3        1 BC6     -0.065700
      9 C35        38.1370  -11.2990   39.8460 c3        1 BC6     -0.092100
     10 N22        40.6770   -4.8260   39.3620 n         1 BC6     -0.480100
     11 C3         41.1090   -5.0230   38.0430 ca        1 BC6      0.107600
     12 C4         40.4300   -4.3340   37.0100 ca        1 BC6     -0.266000
     13 C5         40.8640   -4.4810   35.6910 ca        1 BC6      0.150100
     14 O36        40.2480   -3.8380   34.6410 oh        1 BC6     -0.495100
     15 C6         41.9540   -5.3010   35.3620 ca        1 BC6     -0.178000
     16 C1         42.6230   -5.9760   36.3830 ca        1 BC6     -0.014300
     17 C2         42.2130   -5.8330   37.7140 ca        1 BC6     -0.196000
     18 C7         43.7980   -6.8330   36.0490 c3        1 BC6     -0.039100
     19 C8         43.4650   -8.3180   35.9140 c3        1 BC6     -0.055700
     20 C25        43.0870   -8.9090   37.2530 c3        1 BC6     -0.098100
     21 C9         42.3970   -8.5220   34.8520 c3        1 BC6     -0.073400
     22 C10        41.9470   -9.9690   34.7010 c3        1 BC6      0.148100
     23 O26        43.1050  -10.7440   34.3770 os        1 BC6     -0.409600
     24 C27        43.0300  -12.0880   34.8160 c3        1 BC6      0.113700
     25 C11        40.8950  -10.1330   33.5830 c3        1 BC6      0.124100
     26 O28        41.3300   -9.3530   32.4790 oh        1 BC6     -0.585800
     27 C12        39.4950   -9.6830   34.0370 c3        1 BC6     -0.072500
     28 C29        38.4960   -9.8340   32.9040 c3        1 BC6     -0.092100
     29 C13        39.0430  -10.4750   35.2150 c2        1 BC6     -0.149200
     30 C14        38.3070   -9.9890   36.2260 c2        1 BC6     -0.138400
     31 C30        37.8200   -8.5920   36.2990 c3        1 BC6     -0.060900
     32 C15        37.9500  -10.8800   37.3870 c3        1 BC6      0.195300
     33 O31        36.5130  -10.8700   37.5530 os        1 BC6     -0.445900
     34 C32        35.8160  -11.8990   36.9510 c         1 BC6      0.739100
     35 O33        36.4230  -12.8700   36.4690 o         1 BC6     -0.592000
     36 N34        34.4590  -11.6960   36.9590 n         1 BC6     -0.643000
     37 H22        40.2740   -3.9310   39.5540 hn        1 BC6      0.325500
     38 H361       43.2080   -7.8310   40.2060 hc        1 BC6      0.052033
     39 H362       42.9250   -6.5430   41.4590 hc        1 BC6      0.052033
     40 H363       42.3220   -8.2300   41.7380 hc        1 BC6      0.052033
     41 H19        39.4520   -7.7110   39.2360 ha        1 BC6      0.135000
     42 H181       41.7970   -9.6320   39.6700 hc        1 BC6      0.058200
     43 H182       40.3470   -9.8900   40.7220 hc        1 BC6      0.058200
     44 H171       40.2860   -9.7220   37.6290 hc        1 BC6      0.050700
     45 H172       40.4820  -11.2610   38.5600 hc        1 BC6      0.050700
     46 H16        38.0740   -9.3490   38.9190 hc        1 BC6      0.063700
     47 H351       38.6010  -12.3040   39.7000 hc        1 BC6      0.040033
     48 H352       38.4740  -10.8890   40.8280 hc        1 BC6      0.040033
     49 H353       37.0270  -11.4220   39.8770 hc        1 BC6      0.040033
     50 H15        38.3030  -11.9350   37.2100 h1        1 BC6      0.086700
     51 H4         39.5720   -3.6850   37.2340 ha        1 BC6      0.136000
     52 H2         42.7660   -6.3650   38.5040 ha        1 BC6      0.146000
     53 H36        39.5300   -3.2960   35.0010 ho        1 BC6      0.419000
     54 H6         42.2630   -5.4020   34.3120 ha        1 BC6      0.158000
     55 H7C1       44.2470   -6.4820   35.0810 hc        1 BC6      0.052700
     56 H7C2       44.5800   -6.7130   36.8460 hc        1 BC6      0.052700
     57 H8         44.4000   -8.8410   35.5580 hc        1 BC6      0.064700
     58 H251       42.9950  -10.0200   37.1770 hc        1 BC6      0.034367
     59 H252       43.8690   -8.6750   38.0160 hc        1 BC6      0.034367
     60 H253       42.1130   -8.4920   37.6120 hc        1 BC6      0.034367
     61 H9C1       41.4920   -7.9050   35.0950 hc        1 BC6      0.065200
     62 H9C2       42.7980   -8.1670   33.8650 hc        1 BC6      0.065200
     63 H10        41.4880  -10.3380   35.6630 h1        1 BC6      0.044700
     64 H11        40.8560  -11.2200   33.2850 h1        1 BC6      0.036700
     65 H271       42.1500  -12.6120   34.3680 h1        1 BC6      0.031367
     66 H272       43.9830  -12.5510   34.4550 h1        1 BC6      0.031367
     67 H273       42.9710  -12.1350   35.9320 h1        1 BC6      0.031367
     68 H28        40.7970   -9.6230   31.7220 ho        1 BC6      0.399000
     69 H12        39.5620   -8.5910   34.3100 hc        1 BC6      0.072700
     70 H291       37.4670   -9.5970   33.2680 hc        1 BC6      0.040700
     71 H292       38.7450   -9.1330   32.0720 hc        1 BC6      0.040700
     72 H293       38.5010  -10.8790   32.5110 hc        1 BC6      0.040700
     73 H13        39.3440  -11.5370   35.2050 ha        1 BC6      0.128000
     74 H301       36.8970   -8.5320   36.9280 hc        1 BC6      0.048033
     75 H302       38.6040   -7.9380   36.7590 hc        1 BC6      0.048033
     76 H303       37.5790   -8.1950   35.2820 hc        1 BC6      0.048033
     77 H341       34.0830  -10.9450   37.4800 hn        1 BC6      0.325000
     78 H342       33.8800  -12.4600   36.7140 hn        1 BC6      0.325000
@<TRIPOS>BOND
     1    1    2 2   
     2    2    3 1   
     3    2   10 1   
     4    3    4 1   
     5    3    5 2   
     6    4   38 1   
     7    4   39 1   
     8    4   40 1   
     9    5    6 1   
    10    5   41 1   
    11    6    7 1   
    12    6   42 1   
    13    6   43 1   
    14    7    8 1   
    15    7   44 1   
    16    7   45 1   
    17    8    9 1   
    18    8   32 1   
    19    8   46 1   
    20    9   47 1   
    21    9   48 1   
    22    9   49 1   
    23   10   11 1   
    24   10   37 1   
    25   11   12 ar  
    26   11   17 ar  
    27   12   13 ar  
    28   12   51 1   
    29   13   14 1   
    30   13   15 ar  
    31   14   53 1   
    32   15   16 ar  
    33   15   54 1   
    34   16   17 ar  
    35   16   18 1   
    36   17   52 1   
    37   18   19 1   
    38   18   55 1   
    39   18   56 1   
    40   19   20 1   
    41   19   21 1   
    42   19   57 1   
    43   20   58 1   
    44   20   59 1   
    45   20   60 1   
    46   21   22 1   
    47   21   61 1   
    48   21   62 1   
    49   22   23 1   
    50   22   25 1   
    51   22   63 1   
    52   23   24 1   
    53   24   65 1   
    54   24   66 1   
    55   24   67 1   
    56   25   26 1   
    57   25   27 1   
    58   25   64 1   
    59   26   68 1   
    60   27   28 1   
    61   27   29 1   
    62   27   69 1   
    63   28   70 1   
    64   28   71 1   
    65   28   72 1   
    66   29   30 2   
    67   29   73 1   
    68   30   31 1   
    69   30   32 1   
    70   31   74 1   
    71   31   75 1   
    72   31   76 1   
    73   32   33 1   
    74   32   50 1   
    75   33   34 1   
    76   34   35 2   
    77   34   36 1   
    78   36   77 1   
    79   36   78 1   
@<TRIPOS>SUBSTRUCTURE
     1 BC6         1 TEMP              0 ****  ****    0 ROOT
