@<TRIPOS>MOLECULE
BC6
   79    80     1     0     0
SMALL
bcc


@<TRIPOS>ATOM
      1 O37         0.0170   -0.2840    0.5330 o         1 BC6     -0.577100
      2 C21         1.1950    0.1170    0.4700 c         1 BC6      0.665300
      3 C20         1.9520    0.4950    1.6980 ce        1 BC6     -0.135400
      4 C36         1.6340    1.8510    2.2110 c3        1 BC6     -0.063900
      5 C19         2.7590   -0.3550    2.3470 c2        1 BC6     -0.144200
      6 C18         3.0210   -1.7560    1.9410 c3        1 BC6     -0.051200
      7 C17         4.4140   -2.2000    2.3470 c3        1 BC6     -0.075400
      8 C16         4.6390   -3.6750    2.0300 c3        1 BC6     -0.069700
      9 C35         3.8950   -4.5620    3.0080 c3        1 BC6     -0.100100
     10 N22         1.7620    0.2150   -0.7940 ns        1 BC6     -0.478100
     11 C3          3.0880    0.5180   -1.1390 ca        1 BC6      0.105600
     12 C4          3.6310   -0.0860   -2.2980 ca        1 BC6     -0.268000
     13 C5          4.9440    0.2090   -2.6720 ca        1 BC6      0.147100
     14 O36         5.5370   -0.3710   -3.7720 oh        1 BC6     -0.498100
     15 C6          5.7430    1.0880   -1.9260 ca        1 BC6     -0.181000
     16 C1          5.2000    1.6930   -0.7930 ca        1 BC6     -0.017300
     17 C2          3.8840    1.4190   -0.4060 ca        1 BC6     -0.196000
     18 C7          6.0120    2.6730   -0.0140 c3        1 BC6     -0.041100
     19 C8          6.7190    2.0810    1.2020 c3        1 BC6     -0.057700
     20 C25         5.7310    1.6550    2.2650 c3        1 BC6     -0.096100
     21 C9          7.6310    0.9410    0.7820 c3        1 BC6     -0.077400
     22 C10         8.4910    0.4020    1.9200 c3        1 BC6      0.103100
     23 O26         9.1660    1.5170    2.5100 os        1 BC6     -0.422600
     24 C27         9.4020    1.3750    3.9010 c3        1 BC6      0.111700
     25 C11         9.5760   -0.5720    1.4150 c3        1 BC6      0.130100
     26 O28        10.4540    0.0730    0.5060 oh        1 BC6     -0.596800
     27 C12         9.0000   -1.7860    0.6730 c3        1 BC6     -0.052500
     28 C29        10.1330   -2.6860    0.2080 c3        1 BC6     -0.084100
     29 C13         8.0770   -2.5580    1.5490 c2        1 BC6     -0.080200
     30 C14         6.9860   -3.2150    1.1130 c2        1 BC6     -0.210400
     31 C30         6.5480   -3.2160   -0.3040 c3        1 BC6     -0.063900
     32 C15         6.1410   -3.9700    2.0840 c3        1 BC6      0.229300
     33 O31         6.2180   -5.4200    1.6890 os        1 BC6     -0.406900
     34 C32         7.2560   -6.1100    2.1560 c         1 BC6      0.629100
     35 O33         8.0760   -5.8080    3.0090 o         1 BC6     -0.414000
     36 N34         7.3160   -7.4660    1.5000 nz        1 BC6     -0.729400
     37 H22         1.1740   -0.0750   -1.5510 hn        1 BC6      0.329500
     38 H361        2.4400    2.2200    2.8930 hc        1 BC6      0.059700
     39 H362        0.6700    1.8150    2.7800 hc        1 BC6      0.059700
     40 H363        1.5130    2.5810    1.3730 hc        1 BC6      0.059700
     41 H19         3.2540   -0.0290    3.2790 ha        1 BC6      0.135000
     42 H181        2.8960   -1.8810    0.8320 hc        1 BC6      0.061700
     43 H182        2.2510   -2.4110    2.4360 hc        1 BC6      0.061700
     44 H171        5.1710   -1.5770    1.7990 hc        1 BC6      0.057200
     45 H172        4.5630   -2.0300    3.4460 hc        1 BC6      0.057200
     46 H16         4.2710   -3.8860    0.9860 hc        1 BC6      0.079700
     47 H351        2.7970   -4.3650    2.9470 hc        1 BC6      0.047033
     48 H352        4.0680   -5.6390    2.7690 hc        1 BC6      0.047033
     49 H353        4.2300   -4.3690    4.0550 hc        1 BC6      0.047033
     50 H15         6.5260   -3.8980    3.1380 h1        1 BC6      0.088700
     51 H4          3.0290   -0.7690   -2.9150 ha        1 BC6      0.138000
     52 H2          3.4790    1.9330    0.4800 ha        1 BC6      0.150000
     53 H36         4.8410   -0.7780   -4.3090 ho        1 BC6      0.423000
     54 H6          6.7720    1.2980   -2.2500 ha        1 BC6      0.158000
     55 H7C1        6.7880    3.1260   -0.6890 hc        1 BC6      0.060700
     56 H7C2        5.3450    3.5080    0.3340 hc        1 BC6      0.060700
     57 H8          7.3670    2.8970    1.6370 hc        1 BC6      0.074700
     58 H251        5.0320    2.4940    2.5030 hc        1 BC6      0.034033
     59 H252        5.1240    0.7800    1.9230 hc        1 BC6      0.034033
     60 H253        6.2730    1.3730    3.2010 hc        1 BC6      0.034033
     61 H9C1        8.3080    1.2960   -0.0410 hc        1 BC6      0.057700
     62 H9C2        7.0120    0.0960    0.3780 hc        1 BC6      0.057700
     63 H10         7.8480   -0.1230    2.6790 h1        1 BC6      0.041700
     64 H11        10.1770   -0.9240    2.3030 h1        1 BC6      0.036700
     65 H271        9.9410    2.3140    4.1860 h1        1 BC6      0.039700
     66 H272       10.0390    0.4800    4.1080 h1        1 BC6      0.039700
     67 H273        8.4350    1.2940    4.4570 h1        1 BC6      0.039700
     68 H28        10.6270    0.9580    0.8600 ho        1 BC6      0.431000
     69 H12         8.4540   -1.4030   -0.2370 hc        1 BC6      0.087700
     70 H291       10.6880   -3.1070    1.0800 hc        1 BC6      0.046700
     71 H292       10.8470   -2.0890   -0.4120 hc        1 BC6      0.046700
     72 H293        9.7330   -3.5260   -0.4080 hc        1 BC6      0.046700
     73 H13         8.3590   -2.5840    2.6180 ha        1 BC6      0.131000
     74 H301        5.9700   -2.2820   -0.5260 hc        1 BC6      0.056700
     75 H302        5.8930   -4.0960   -0.5210 hc        1 BC6      0.056700
     76 H303        7.4280   -3.2520   -0.9950 hc        1 BC6      0.056700
     77 H341        8.0400   -8.0310    1.9610 hn        1 BC6      0.480133
     78 H342        7.5440   -7.3510    0.5060 hn        1 BC6      0.480133
     79 H343        6.4040   -7.9300    1.5780 hn        1 BC6      0.480133
@<TRIPOS>BOND
     1    1    2 2   
     2    2    3 1   
     3    2   10 1   
     4    3    4 1   
     5    3    5 2   
     6    4   38 1   
     7    4   39 1   
     8    4   40 1   
     9    5    6 1   
    10    5   41 1   
    11    6    7 1   
    12    6   42 1   
    13    6   43 1   
    14    7    8 1   
    15    7   44 1   
    16    7   45 1   
    17    8    9 1   
    18    8   32 1   
    19    8   46 1   
    20    9   47 1   
    21    9   48 1   
    22    9   49 1   
    23   10   11 1   
    24   10   37 1   
    25   11   12 ar  
    26   11   17 ar  
    27   12   13 ar  
    28   12   51 1   
    29   13   14 1   
    30   13   15 ar  
    31   14   53 1   
    32   15   16 ar  
    33   15   54 1   
    34   16   17 ar  
    35   16   18 1   
    36   17   52 1   
    37   18   19 1   
    38   18   55 1   
    39   18   56 1   
    40   19   20 1   
    41   19   21 1   
    42   19   57 1   
    43   20   58 1   
    44   20   59 1   
    45   20   60 1   
    46   21   22 1   
    47   21   61 1   
    48   21   62 1   
    49   22   23 1   
    50   22   25 1   
    51   22   63 1   
    52   23   24 1   
    53   24   65 1   
    54   24   66 1   
    55   24   67 1   
    56   25   26 1   
    57   25   27 1   
    58   25   64 1   
    59   26   68 1   
    60   27   28 1   
    61   27   29 1   
    62   27   69 1   
    63   28   70 1   
    64   28   71 1   
    65   28   72 1   
    66   29   30 2   
    67   29   73 1   
    68   30   31 1   
    69   30   32 1   
    70   31   74 1   
    71   31   75 1   
    72   31   76 1   
    73   32   33 1   
    74   32   50 1   
    75   33   34 1   
    76   34   35 2   
    77   34   36 1   
    78   36   77 1   
    79   36   78 1   
    80   36   79 1   
@<TRIPOS>SUBSTRUCTURE
     1 BC6         1 TEMP              0 ****  ****    0 ROOT
