@<TRIPOS>MOLECULE
BCC
   40    42     1     0     0
SMALL
bcc


@<TRIPOS>ATOM
      1 C1          1.8760   -1.8790    0.2970 c         1 BCC      0.914600
      2 O1          0.8660   -1.5600    0.9850 o         1 BCC     -0.835800
      3 C2          2.5740   -0.8080   -0.6030 c3        1 BCC     -0.031300
      4 C3          3.9320   -0.4560    0.0410 c3        1 BCC     -0.073400
      5 C4          3.7520    0.9240    0.6610 c3        1 BCC     -0.086400
      6 C5          2.5350    1.5370   -0.0630 c3        1 BCC      0.098700
      7 C6          1.6270    2.3190    0.8800 c3        1 BCC     -0.099400
      8 C7          0.4150    2.7840    0.1060 c3        1 BCC     -0.063400
      9 C8         -0.4120    1.5860   -0.4140 c3        1 BCC      0.115200
     10 C9          0.5050    0.4900   -1.0500 c         1 BCC      0.719500
     11 O2         -0.0030   -0.3230   -1.8470 o         1 BCC     -0.646500
     12 N1          1.8660    0.4640   -0.7910 n         1 BCC     -0.424800
     13 N2         -1.3740    2.0800   -1.4040 n3        1 BCC     -0.904800
     14 C10        -1.0690    0.9090    0.8240 c3        1 BCC     -0.081100
     15 C11        -2.2910    0.1180    0.5170 ca        1 BCC     -0.077300
     16 C12        -2.1750   -1.2420    0.1950 ca        1 BCC     -0.115000
     17 C13        -3.3190   -1.9950   -0.0630 ca        1 BCC     -0.147000
     18 C14        -4.5820   -1.4060    0.0010 ca        1 BCC     -0.146000
     19 C15        -4.7020   -0.0560    0.3270 ca        1 BCC     -0.147000
     20 C16        -3.5610    0.7030    0.5850 ca        1 BCC     -0.115000
     21 O3          2.4060   -3.0220    0.2960 o         1 BCC     -0.835800
     22 H2          2.7150   -1.2670   -1.6190 h1        1 BCC      0.066700
     23 H31         4.2020   -1.2270    0.8040 hc        1 BCC      0.047200
     24 H32         4.7360   -0.4370   -0.7350 hc        1 BCC      0.047200
     25 H41         3.5510    0.8410    1.7570 hc        1 BCC      0.036200
     26 H42         4.6530    1.5650    0.5170 hc        1 BCC      0.036200
     27 H5          2.9140    2.2610   -0.8480 h1        1 BCC      0.030700
     28 H61         1.3190    1.6780    1.7480 hc        1 BCC      0.047700
     29 H62         2.1890    3.1990    1.2840 hc        1 BCC      0.047700
     30 H71        -0.2320    3.4280    0.7540 hc        1 BCC      0.039200
     31 H72         0.7500    3.4130   -0.7610 hc        1 BCC      0.039200
     32 HN21       -1.5100    1.3870   -2.1180 hn        1 BCC      0.354800
     33 HN22       -2.2550    2.2450   -0.9560 hn        1 BCC      0.354800
     34 H101       -0.3020    0.2240    1.2930 hc        1 BCC      0.081700
     35 H102       -1.3290    1.7070    1.5690 hc        1 BCC      0.081700
     36 H12        -1.1610   -1.6970    0.1500 ha        1 BCC      0.163000
     37 H13        -3.2200   -3.0610   -0.3180 ha        1 BCC      0.118500
     38 H14        -5.4800   -2.0040   -0.2040 ha        1 BCC      0.110000
     39 H15        -5.6940    0.4110    0.3820 ha        1 BCC      0.118500
     40 H16        -3.6620    1.7650    0.8540 ha        1 BCC      0.163000
@<TRIPOS>BOND
     1    1    2 1   
     2    1    3 1   
     3    1   21 1   
     4    3    4 1   
     5    3   12 1   
     6    3   22 1   
     7    4    5 1   
     8    4   23 1   
     9    4   24 1   
    10    5    6 1   
    11    5   25 1   
    12    5   26 1   
    13    6    7 1   
    14    6   12 1   
    15    6   27 1   
    16    7    8 1   
    17    7   28 1   
    18    7   29 1   
    19    8    9 1   
    20    8   30 1   
    21    8   31 1   
    22    9   10 1   
    23    9   13 1   
    24    9   14 1   
    25   10   11 2   
    26   10   12 1   
    27   13   32 1   
    28   13   33 1   
    29   14   15 1   
    30   14   34 1   
    31   14   35 1   
    32   15   16 ar  
    33   15   20 ar  
    34   16   17 ar  
    35   16   36 1   
    36   17   18 ar  
    37   17   37 1   
    38   18   19 ar  
    39   18   38 1   
    40   19   20 ar  
    41   19   39 1   
    42   20   40 1   
@<TRIPOS>SUBSTRUCTURE
     1 BCC         1 TEMP              0 ****  ****    0 ROOT
