@<TRIPOS>MOLECULE
BCE
   36    37     1     0     0
SMALL
bcc


@<TRIPOS>ATOM
      1 CAI        -0.3930   -0.8870    0.2890 ca        1 BCE     -0.100500
      2 CAG         0.9330   -1.2680    0.4800 ca        1 BCE     -0.125000
      3 CAF         1.5990   -0.9250    1.6580 ca        1 BCE     -0.093000
      4 CAH         0.9330   -0.2030    2.6490 ca        1 BCE     -0.125000
      5 CAJ        -0.3960    0.1740    2.4670 ca        1 BCE     -0.100500
      6 CAT        -1.0700   -0.1640    1.2830 cp        1 BCE     -0.095000
      7 CAU        -2.4590    0.2340    1.0880 cp        1 BCE      0.056000
      8 CAN        -3.3660    0.2120    2.1620 ca        1 BCE     -0.112500
      9 CAL        -4.6920    0.5920    1.9880 ca        1 BCE     -0.091000
     10 CAM        -2.9140    0.6450   -0.1770 ca        1 BCE     -0.112500
     11 CAK        -4.2340    1.0280   -0.3730 ca        1 BCE     -0.091000
     12 CAS        -5.1260    1.0040    0.7160 ca        1 BCE     -0.082400
     13 NAO        -6.5140    1.4380    0.5210 n4        1 BCE     -0.520200
     14 CAQ        -7.2790    0.4900   -0.3800 c         1 BCE      0.594300
     15 OAC        -7.2010    0.7540   -1.5840 o         1 BCE     -0.511100
     16 CAR        -8.0200   -0.5780    0.2370 ce        1 BCE     -0.290900
     17 CAE        -8.0230   -0.6950    1.6470 cg        1 BCE      0.167500
     18 NAB        -8.0310   -0.8000    2.8060 n1        1 BCE     -0.303800
     19 CAP        -8.7360   -1.5100   -0.5130 c2        1 BCE      0.351900
     20 CAA        -9.5000   -2.6130    0.1260 c3        1 BCE     -0.111900
     21 OAD        -8.8280   -1.5320   -1.8460 oh        1 BCE     -0.431100
     22 HAI        -0.9130   -1.1680   -0.6390 ha        1 BCE      0.135000
     23 HAG         1.4560   -1.8400   -0.3010 ha        1 BCE      0.149500
     24 HAF         2.6480   -1.2240    1.8050 ha        1 BCE      0.151000
     25 HAH         1.4570    0.0720    3.5770 ha        1 BCE      0.149500
     26 HAJ        -0.9110    0.7520    3.2490 ha        1 BCE      0.135000
     27 HAN        -3.0250   -0.1170    3.1580 ha        1 BCE      0.172000
     28 HAL        -5.3790    0.5610    2.8500 ha        1 BCE      0.160500
     29 HAM        -2.2110    0.6750   -1.0270 ha        1 BCE      0.172000
     30 HAK        -4.5710    1.3460   -1.3750 ha        1 BCE      0.160500
     31 HNAO       -6.9800    1.5140    1.4320 hn        1 BCE      0.466800
     32 HAA       -10.2680   -2.1840    0.8210 hc        1 BCE      0.108367
     33 HAAA      -10.0130   -3.2450   -0.6430 hc        1 BCE      0.108367
     34 HAAB       -8.8000   -3.2560    0.7210 hc        1 BCE      0.108367
     35 HOAD       -8.3300   -0.8120   -2.2840 ho        1 BCE      0.482000
     36 HAO2       -6.4970    2.3650    0.0700 hn        1 BCE      0.466800
@<TRIPOS>BOND
     1    1    2 ar  
     2    1    6 ar  
     3    1   22 1   
     4    2    3 ar  
     5    2   23 1   
     6    3    4 ar  
     7    3   24 1   
     8    4    5 ar  
     9    4   25 1   
    10    5    6 ar  
    11    5   26 1   
    12    6    7 1   
    13    7    8 ar  
    14    7   10 ar  
    15    8    9 ar  
    16    8   27 1   
    17    9   12 ar  
    18    9   28 1   
    19   10   11 ar  
    20   10   29 1   
    21   11   12 ar  
    22   11   30 1   
    23   12   13 1   
    24   13   14 1   
    25   13   31 1   
    26   13   36 1   
    27   14   15 2   
    28   14   16 1   
    29   16   17 1   
    30   16   19 2   
    31   17   18 3   
    32   19   20 1   
    33   19   21 1   
    34   20   32 1   
    35   20   33 1   
    36   20   34 1   
    37   21   35 1   
@<TRIPOS>SUBSTRUCTURE
     1 BCE         1 TEMP              0 ****  ****    0 ROOT
