@<TRIPOS>MOLECULE
BCE
   35    36     1     0     0
SMALL
bcc


@<TRIPOS>ATOM
      1 CAI        -4.6380   -0.8370    0.8990 ca        1 BCE     -0.121500
      2 CAG        -6.0270   -0.9320    0.8780 ca        1 BCE     -0.130000
      3 CAF        -6.7680   -0.1910   -0.0420 ca        1 BCE     -0.130000
      4 CAH        -6.1130    0.6490   -0.9430 ca        1 BCE     -0.130000
      5 CAJ        -4.7240    0.7500   -0.9240 ca        1 BCE     -0.121500
      6 CAT        -3.9720    0.0070   -0.0020 cp        1 BCE     -0.029000
      7 CAU        -2.5150    0.1100    0.0190 cp        1 BCE     -0.067000
      8 CAN        -1.8830    1.3480   -0.1620 ca        1 BCE     -0.092000
      9 CAL        -0.4990    1.4530   -0.1390 ca        1 BCE     -0.171000
     10 CAM        -1.7190   -1.0240    0.2220 ca        1 BCE     -0.092000
     11 CAK        -0.3310   -0.9400    0.2430 ca        1 BCE     -0.171000
     12 CAS         0.3070    0.3060    0.0640 ca        1 BCE      0.074600
     13 NAO         1.7020    0.4650    0.0640 n         1 BCE     -0.465100
     14 CAQ         2.6590   -0.4930    0.3710 c         1 BCE      0.705300
     15 OAC         2.3900   -1.6690    0.6680 o         1 BCE     -0.565100
     16 CAR         4.0750   -0.0110    0.3200 ce        1 BCE     -0.165900
     17 CAE         4.3670    1.1940    1.0020 cg        1 BCE      0.202500
     18 NAB         4.5860    2.1870    1.5700 n1        1 BCE     -0.365800
     19 CAP         5.0460   -0.7230   -0.3190 c2        1 BCE      0.200900
     20 CAA         6.4860   -0.3630   -0.3360 c3        1 BCE     -0.119900
     21 OAD         4.6620   -1.8370   -1.0130 oh        1 BCE     -0.463100
     22 HAI        -4.0580   -1.4180    1.6310 ha        1 BCE      0.134000
     23 HAG        -6.5400   -1.5950    1.5910 ha        1 BCE      0.130500
     24 HAF        -7.8650   -0.2690   -0.0580 ha        1 BCE      0.131000
     25 HAH        -6.6940    1.2330   -1.6710 ha        1 BCE      0.130500
     26 HAJ        -4.2110    1.4090   -1.6410 ha        1 BCE      0.134000
     27 HAN        -2.4910    2.2530   -0.3150 ha        1 BCE      0.137000
     28 HAL        -0.0380    2.4430   -0.2790 ha        1 BCE      0.152000
     29 HAM        -2.1970   -2.0070    0.3590 ha        1 BCE      0.137000
     30 HAK         0.2590   -1.8570    0.4020 ha        1 BCE      0.152000
     31 HNAO        2.0280    1.3870   -0.1300 hn        1 BCE      0.321500
     32 HAA         6.6700    0.6080    0.1850 hc        1 BCE      0.075700
     33 HAAA        7.0780   -1.1610    0.1810 hc        1 BCE      0.075700
     34 HAAB        6.8470   -0.2760   -1.3920 hc        1 BCE      0.075700
     35 HOAD        5.4580   -2.2950   -1.3260 ho        1 BCE      0.432000
@<TRIPOS>BOND
     1    1    2 ar  
     2    1    6 ar  
     3    1   22 1   
     4    2    3 ar  
     5    2   23 1   
     6    3    4 ar  
     7    3   24 1   
     8    4    5 ar  
     9    4   25 1   
    10    5    6 ar  
    11    5   26 1   
    12    6    7 1   
    13    7    8 ar  
    14    7   10 ar  
    15    8    9 ar  
    16    8   27 1   
    17    9   12 ar  
    18    9   28 1   
    19   10   11 ar  
    20   10   29 1   
    21   11   12 ar  
    22   11   30 1   
    23   12   13 1   
    24   13   14 1   
    25   13   31 1   
    26   14   15 2   
    27   14   16 1   
    28   16   17 1   
    29   16   19 2   
    30   17   18 3   
    31   19   20 1   
    32   19   21 1   
    33   20   32 1   
    34   20   33 1   
    35   20   34 1   
    36   21   35 1   
@<TRIPOS>SUBSTRUCTURE
     1 BCE         1 TEMP              0 ****  ****    0 ROOT
