@<TRIPOS>MOLECULE
BCE
   35    36     1     0     0
SMALL
bcc


@<TRIPOS>ATOM
      1 CAI         0.0000    0.0000    0.0000 ca        1 BCE     -0.110500
      2 CAG         1.3800    0.0000    0.0000 ca        1 BCE     -0.115500
      3 CAF         2.0750    0.0000    1.1970 ca        1 BCE     -0.056000
      4 CAH         1.3910    0.0000    2.3990 ca        1 BCE     -0.115500
      5 CAJ         0.0110    0.0000    2.4100 ca        1 BCE     -0.110500
      6 CAT        -0.6930    0.0000    1.2090 cp        1 BCE     -0.036000
      7 CAU        -2.1770    0.0010    1.2140 cp        1 BCE      0.024000
      8 CAN        -2.8700    0.0010    2.4240 ca        1 BCE     -0.096000
      9 CAL        -4.2490    0.0020    2.4290 ca        1 BCE     -0.093500
     10 CAM        -2.8810    0.0070    0.0110 ca        1 BCE     -0.096000
     11 CAK        -4.2590    0.0070    0.0190 ca        1 BCE     -0.093500
     12 CAS        -4.9480    0.0020    1.2270 ca        1 BCE     -0.123400
     13 NAO        -6.3450    0.0020    1.2330 ns        1 BCE     -0.305100
     14 CAQ        -7.0230   -0.6390    0.2610 c         1 BCE      0.812300
     15 OAC        -6.4220   -1.2980   -0.5670 o         1 BCE     -0.706100
     16 CAR        -8.4890   -0.5430    0.2010 ce        1 BCE     -0.183900
     17 CAE        -9.1960    0.2320    1.1750 cg        1 BCE      0.212500
     18 NAB        -9.7440    0.8420    1.9610 n1        1 BCE     -0.378800
     19 CAP        -9.1740   -1.1920   -0.7830 c2        1 BCE      0.182900
     20 CAA       -10.6770   -1.0930   -0.8440 c3        1 BCE      0.014100
     21 OAD        -8.5110   -1.9190   -1.6980 oh        1 BCE     -0.381100
     22 HAI        -0.4800    0.0270   -0.9710 ha        1 BCE      0.111000
     23 HAG         1.7790   -0.0070   -1.0070 ha        1 BCE      0.113000
     24 HAF         3.1170    0.1700    0.9530 ha        1 BCE      0.105000
     25 HAH         1.5330   -0.2780    3.4370 ha        1 BCE      0.113000
     26 HAJ        -0.4850   -0.0550    3.3720 ha        1 BCE      0.111000
     27 HAN        -2.4550    0.1520    3.4140 ha        1 BCE      0.117500
     28 HAL        -5.1680   -0.0790    2.9970 ha        1 BCE      0.149500
     29 HAM        -2.5780   -0.4370   -0.9290 ha        1 BCE      0.117500
     30 HAK        -4.7800   -0.2240   -0.9020 ha        1 BCE      0.149500
     31 HNAO       -6.8430   -0.6800    0.6960 hn        1 BCE      0.170500
     32 HAA       -10.9580   -1.6760   -1.7130 hc        1 BCE      0.034367
     33 HAAA      -11.2840   -1.4080   -0.0040 hc        1 BCE      0.034367
     34 HAAB      -10.6370   -0.0580   -1.1620 hc        1 BCE      0.034367
     35 HOAD       -9.2690   -2.0090   -2.2510 ho        1 BCE      0.394000
@<TRIPOS>BOND
     1    1    2 ar  
     2    1    6 ar  
     3    1   22 1   
     4    2    3 ar  
     5    2   23 1   
     6    3    4 ar  
     7    3   24 1   
     8    4    5 ar  
     9    4   25 1   
    10    5    6 ar  
    11    5   26 1   
    12    6    7 1   
    13    7    8 ar  
    14    7   10 ar  
    15    8    9 ar  
    16    8   27 1   
    17    9   12 ar  
    18    9   28 1   
    19   10   11 ar  
    20   10   29 1   
    21   11   12 ar  
    22   11   30 1   
    23   12   13 1   
    24   13   14 1   
    25   13   31 1   
    26   14   15 2   
    27   14   16 1   
    28   16   17 1   
    29   16   19 2   
    30   17   18 3   
    31   19   20 1   
    32   19   21 1   
    33   20   32 1   
    34   20   33 1   
    35   20   34 1   
    36   21   35 1   
@<TRIPOS>SUBSTRUCTURE
     1 BCE         1 TEMP              0 ****  ****    0 ROOT
