@<TRIPOS>MOLECULE
BCE
   35    28     1     0     0
SMALL
bcc


@<TRIPOS>ATOM
      1 CAI         4.0540    0.2430    0.6300 c1        1 BCE     -0.108000
      2 CAG         5.4390    0.2380    0.6300 c1        1 BCE     -0.130500
      3 CAF         6.1290   -0.7720   -0.0220 c1        1 BCE     -0.130500
      4 CAH         5.4330   -1.7770   -0.6750 c1        1 BCE     -0.130500
      5 CAJ         4.0470   -1.7710   -0.6750 c1        1 BCE     -0.130500
      6 CAT         3.3580   -0.7620   -0.0230 c1        1 BCE     -0.047500
      7 CAU         1.9720   -0.7890    0.0250 c1        1 BCE     -0.047500
      8 CAN         1.3270   -1.6430    0.9050 c1        1 BCE     -0.130500
      9 CAL        -0.0550   -1.6150    1.0110 c1        1 BCE     -0.130500
     10 CAM         1.2360    0.0940   -0.7490 c1        1 BCE     -0.108000
     11 CAK        -0.1460    0.1220   -0.6430 c1        1 BCE     -0.155000
     12 CAS        -0.7910   -0.7330    0.2370 c1        1 BCE      0.080000
     13 NAO        -2.2030   -0.6530    0.3990 n         1 BCE     -0.312000
     14 CAQ        -2.8900    0.5400    0.0550 c2        1 BCE      0.380000
     15 OAC        -2.2740    1.4920   -0.3770 o         1 BCE     -0.380000
     16 CAR        -4.3810    0.6540    0.3050 c2        1 BCE     -0.190000
     17 CAE        -5.0700   -0.3250    1.2360 c1        1 BCE     -0.085000
     18 NAB        -5.5900   -1.0620    1.9370 n1        1 BCE     -0.043000
     19 CAP        -5.0930    1.6240   -0.3000 c1        1 BCE      0.184000
     20 CAA        -4.4040    2.6010   -1.2290 c2        1 BCE     -0.235000
     21 OAD        -6.4760    1.7300   -0.0670 oh        1 BCE     -0.235000
     22 HAI         3.5680    0.9540    1.0890 ha        1 BCE      0.136500
     23 HAG         5.9300    0.9450    1.0900 ha        1 BCE      0.132833
     24 HAF         7.1040   -0.7760   -0.0220 ha        1 BCE      0.132833
     25 HAH         5.9180   -2.4880   -1.1340 ha        1 BCE      0.132833
     26 HAJ         3.5570   -2.4790   -1.1350 ha        1 BCE      0.132833
     27 HAN         1.8450   -2.2640    1.4500 ha        1 BCE      0.132833
     28 HAL        -0.5100   -2.2170    1.6300 ha        1 BCE      0.132833
     29 HAM         1.6900    0.6950   -1.3680 ha        1 BCE      0.136500
     30 HAK        -0.6640    0.7430   -1.1880 ha        1 BCE      0.171000
     31 HNAO       -2.6620   -1.3600    0.7450 hn        1 BCE      0.240000
     32 HAA        -4.0160    2.1140   -1.9860 ha        1 BCE      0.122333
     33 HAAA       -5.0580    3.2530   -1.5600 ha        1 BCE      0.122333
     34 HAAB       -3.6930    3.0690   -0.7430 ha        1 BCE      0.122333
     35 HOAD       -6.6290    2.3780    0.5230 ho        1 BCE      0.235000
@<TRIPOS>BOND
     1    1    6 1   
     2    1   22 1   
     3    2    3 1   
     4    2   23 1   
     5    3   24 1   
     6    4    5 1   
     7    4   25 1   
     8    5   26 1   
     9    7   10 1   
    10    8    9 1   
    11    8   27 1   
    12    9   28 1   
    13   10   29 1   
    14   11   12 1   
    15   11   30 1   
    16   12   13 1   
    17   13   14 1   
    18   13   31 1   
    19   14   15 1   
    20   14   16 1   
    21   16   17 1   
    22   16   19 1   
    23   17   18 1   
    24   19   21 1   
    25   20   32 1   
    26   20   33 1   
    27   20   34 1   
    28   21   35 1   
@<TRIPOS>SUBSTRUCTURE
     1 BCE         1 TEMP              0 ****  ****    0 ROOT
