@<TRIPOS>MOLECULE
BCE
   35    36     1     0     0
SMALL
bcc


@<TRIPOS>ATOM
      1 CAI         0.1810   -0.7210    0.3190 ca        1 BCE     -0.120500
      2 CAG         1.5690   -0.6260    0.3960 ca        1 BCE     -0.130000
      3 CAF         2.1650    0.1580    1.3840 ca        1 BCE     -0.128000
      4 CAH         1.3670    0.8470    2.2970 ca        1 BCE     -0.130000
      5 CAJ        -0.0210    0.7540    2.2250 ca        1 BCE     -0.120500
      6 CAT        -0.6280   -0.0320    1.2350 cp        1 BCE     -0.033000
      7 CAU        -2.0830   -0.1310    1.1560 cp        1 BCE     -0.060000
      8 CAN        -2.8570   -0.2250    2.3210 ca        1 BCE     -0.095000
      9 CAL        -4.2390   -0.3240    2.2540 ca        1 BCE     -0.164000
     10 CAM        -2.7360   -0.1330   -0.0820 ca        1 BCE     -0.095000
     11 CAK        -4.1210   -0.2250   -0.1700 ca        1 BCE     -0.164000
     12 CAS        -4.9010   -0.3260    1.0010 ca        1 BCE      0.067600
     13 NAO        -6.3050   -0.4100    0.9960 n         1 BCE     -0.450100
     14 CAQ        -7.1260   -0.6330   -0.0950 c         1 BCE      0.712300
     15 OAC        -6.6700   -0.7620   -1.2570 o         1 BCE     -0.649100
     16 CAR        -8.5870   -0.7110    0.1440 ce        1 BCE     -0.256900
     17 CAE        -9.0770   -0.5420    1.4620 cg        1 BCE      0.206500
     18 NAB        -9.4840   -0.4020    2.5440 n1        1 BCE     -0.377800
     19 CAP        -9.4900   -0.9410   -0.8660 c2        1 BCE      0.269900
     20 CAA       -10.9570   -1.0170   -0.6150 c3        1 BCE     -0.092900
     21 OAD        -9.2020   -1.1240   -2.1700 oh        1 BCE     -0.484100
     22 HAI        -0.2850   -1.3450   -0.4580 ha        1 BCE      0.134500
     23 HAG         2.1950   -1.1730   -0.3240 ha        1 BCE      0.132000
     24 HAF         3.2600    0.2320    1.4420 ha        1 BCE      0.131000
     25 HAH         1.8340    1.4680    3.0760 ha        1 BCE      0.132000
     26 HAJ        -0.6460    1.3050    2.9440 ha        1 BCE      0.134500
     27 HAN        -2.3620   -0.2310    3.3050 ha        1 BCE      0.138500
     28 HAL        -4.8140   -0.4010    3.1900 ha        1 BCE      0.152500
     29 HAM        -2.1460   -0.0520   -1.0090 ha        1 BCE      0.138500
     30 HAK        -4.5950   -0.2200   -1.1650 ha        1 BCE      0.152500
     31 HNAO       -6.7320   -0.3550    1.8950 hn        1 BCE      0.327500
     32 HAA       -11.5120   -1.2250   -1.5630 hc        1 BCE      0.079700
     33 HAAA      -11.3140   -0.0460   -0.1880 hc        1 BCE      0.079700
     34 HAAB      -11.1700   -1.8320    0.1210 hc        1 BCE      0.079700
     35 HOAD       -8.2420   -1.0750   -2.3470 ho        1 BCE      0.482000
@<TRIPOS>BOND
     1    1    2 ar  
     2    1    6 ar  
     3    1   22 1   
     4    2    3 ar  
     5    2   23 1   
     6    3    4 ar  
     7    3   24 1   
     8    4    5 ar  
     9    4   25 1   
    10    5    6 ar  
    11    5   26 1   
    12    6    7 1   
    13    7    8 ar  
    14    7   10 ar  
    15    8    9 ar  
    16    8   27 1   
    17    9   12 ar  
    18    9   28 1   
    19   10   11 ar  
    20   10   29 1   
    21   11   12 ar  
    22   11   30 1   
    23   12   13 1   
    24   13   14 1   
    25   13   31 1   
    26   14   15 2   
    27   14   16 1   
    28   16   17 1   
    29   16   19 2   
    30   17   18 3   
    31   19   20 1   
    32   19   21 1   
    33   20   32 1   
    34   20   33 1   
    35   20   34 1   
    36   21   35 1   
@<TRIPOS>SUBSTRUCTURE
     1 BCE         1 TEMP              0 ****  ****    0 ROOT
