@<TRIPOS>MOLECULE
BCF
   12    10     1     0     0
SMALL
bcc


@<TRIPOS>ATOM
      1 F6         -2.7080    0.0000   -0.0290 f         1 BCF     -0.123500
      2 C6         -1.3690    0.0000   -0.0290 ce        1 BCF      0.068900
      3 C1         -0.6760    0.0000    1.1710 c1        1 BCF      0.103700
      4 CL1        -1.5480   -0.0020    2.6810 cl        1 BCF      0.068000
      5 C5         -0.6760    0.0000   -1.2300 ce        1 BCF      0.068900
      6 F5         -1.3460   -0.0010   -2.3890 f         1 BCF     -0.123500
      7 C4          0.7100    0.0000   -1.2300 c1        1 BCF      0.103700
      8 F4          1.3790    0.0000   -2.3890 f         1 BCF     -0.059000
      9 C3          1.4030    0.0000   -0.0290 ce        1 BCF      0.068900
     10 F3          2.7420   -0.0000   -0.0290 f         1 BCF     -0.123500
     11 C2          0.7100    0.0000    1.1710 ce        1 BCF      0.068900
     12 F2          1.3790    0.0010    2.3310 f         1 BCF     -0.123500
@<TRIPOS>BOND
     1    1    2 1   
     2    2    3 2   
     3    2    5 1   
     4    3   11 2   
     5    5    6 1   
     6    5    7 2   
     7    7    9 2   
     8    9   10 1   
     9    9   11 1   
    10   11   12 1   
@<TRIPOS>SUBSTRUCTURE
     1 BCF         1 TEMP              0 ****  ****    0 ROOT
