@<TRIPOS>MOLECULE
BCG
   39    41     1     0     0
SMALL
bcc


@<TRIPOS>ATOM
      1 C1         -0.1540   -0.8120    2.9790 c3        1 BCG      0.177500
      2 C2         -0.3570   -1.1350    1.4880 c3        1 BCG     -0.173700
      3 C3          0.7760   -0.5060    0.6680 c3        1 BCG      0.187100
      4 C4          1.1630    0.9050    1.1140 c3        1 BCG     -0.094400
      5 C5          1.2220    0.9840    2.6470 c3        1 BCG      0.161500
      6 C6          2.1750   -0.1230    3.1890 c3        1 BCG     -0.114400
      7 C7          1.2510   -1.3200    3.4290 c3        1 BCG     -0.119400
      8 C9          0.4440    0.0490   -2.9700 ca        1 BCG     -0.134600
      9 C10        -0.9520    0.1740   -2.9800 ca        1 BCG     -0.071500
     10 C11        -1.6090    0.3680   -4.1970 ca        1 BCG     -0.164000
     11 C12        -0.8840    0.4360   -5.3860 ca        1 BCG     -0.118000
     12 C13         0.5070    0.3130   -5.3690 ca        1 BCG     -0.164000
     13 C14         1.1750    0.1200   -4.1620 ca        1 BCG     -0.071500
     14 C15        -1.8020   -0.7500    1.0670 c         1 BCG      0.943600
     15 N1         -0.1280    0.6590    3.1640 n3        1 BCG     -0.665600
     16 O1          0.3020   -0.4960   -0.6910 os        1 BCG     -0.366900
     17 O2          2.3660   -0.0400   -1.4740 o         1 BCG     -0.596000
     18 O3         -1.9960    0.0680    0.1270 o         1 BCG     -0.841800
     19 O4         -2.7280   -1.3340    1.7020 o         1 BCG     -0.841800
     20 H1         -0.9910   -1.2770    3.5640 h1        1 BCG      0.092700
     21 H2         -0.2910   -2.2490    1.3640 hc        1 BCG      0.043700
     22 H3          1.6910   -1.1650    0.7050 h1        1 BCG      0.021700
     23 H41         0.3960    1.6250    0.7250 hc        1 BCG      0.063200
     24 H42         2.1610    1.1730    0.6860 hc        1 BCG      0.063200
     25 H5          1.5490    2.0040    2.9710 h1        1 BCG      0.044700
     26 H61         2.9770   -0.3560    2.4500 hc        1 BCG      0.034200
     27 H62         2.6590    0.2110    4.1380 hc        1 BCG      0.034200
     28 H71         1.5620   -2.2110    2.8360 hc        1 BCG      0.034700
     29 H72         1.2360   -1.6060    4.5080 hc        1 BCG      0.034700
     30 H10        -1.5110    0.1180   -2.0150 ha        1 BCG      0.188000
     31 H11        -2.7040    0.4660   -4.2100 ha        1 BCG      0.125500
     32 H12        -1.4070    0.5880   -6.3410 ha        1 BCG      0.115000
     33 H13         1.0760    0.3680   -6.3070 ha        1 BCG      0.125500
     34 H14         2.2710    0.0260   -4.1300 ha        1 BCG      0.188000
     35 H161        0.3840    0.6510    5.2650 h1        1 BCG      0.020367
     36 H162       -0.2840    2.1960    4.5710 h1        1 BCG      0.020367
     37 H163       -1.3820    0.7600    4.8250 h1        1 BCG      0.020367
     38 C8          1.1500   -0.1460   -1.6880 c         1 BCG      0.643700
     39 C16        -0.3490    1.0770    4.5240 c3        1 BCG      0.151100
@<TRIPOS>BOND
     1    1    2 1   
     2    1    7 1   
     3    1   15 1   
     4    1   20 1   
     5    2    3 1   
     6    2   14 1   
     7    2   21 1   
     8    3    4 1   
     9    3   16 1   
    10    3   22 1   
    11    4    5 1   
    12    4   23 1   
    13    4   24 1   
    14    5    6 1   
    15    5   15 1   
    16    5   25 1   
    17    6    7 1   
    18    6   26 1   
    19    6   27 1   
    20    7   28 1   
    21    7   29 1   
    22    8    9 ar  
    23    8   13 ar  
    24    8   38 1   
    25    9   10 ar  
    26    9   30 1   
    27   10   11 ar  
    28   10   31 1   
    29   11   12 ar  
    30   11   32 1   
    31   12   13 ar  
    32   12   33 1   
    33   13   34 1   
    34   14   18 1   
    35   14   19 1   
    36   15   39 1   
    37   16   38 1   
    38   17   38 2   
    39   35   39 1   
    40   36   39 1   
    41   37   39 1   
@<TRIPOS>SUBSTRUCTURE
     1 BCG         1 TEMP              0 ****  ****    0 ROOT
