@<TRIPOS>MOLECULE
BCG
   39    35     1     0     0
SMALL
bcc


@<TRIPOS>ATOM
      1 C1         -0.7920   -0.8570    0.4790 c1        1 BCG     -0.177500
      2 C2          3.8190    2.5620   -2.1780 c1        1 BCG     -0.059000
      3 C3          1.5090    0.5030    3.0960 c3        1 BCG     -0.003000
      4 C4          1.8330    1.8700    2.5260 c3        1 BCG     -0.249000
      5 C5          0.5960    2.7090    2.4360 c2        1 BCG     -0.056000
      6 C6         -1.7020   -2.7510    2.0490 c3        1 BCG     -0.115000
      7 C7         -1.2130   -1.7230    1.1940 c1        1 BCG     -0.177500
      8 C9          4.9730   -0.6680    3.3780 c2        1 BCG     -0.100000
      9 C10         5.2790   -0.5100    2.0800 c2        1 BCG     -0.112000
     10 C11         7.1130    0.5850   -0.5180 c1        1 BCG     -0.243500
     11 C12         8.2270    0.1890   -0.7060 c1        1 BCG     -0.243500
     12 C13         5.8400   -1.2280    5.6630 c1        1 BCG      0.194000
     13 C14         5.8820   -1.2500    4.3460 c2        1 BCG     -0.428000
     14 C15         3.3090    2.0240   -0.9130 c2        1 BCG      0.273000
     15 N1          0.0980    3.2980    1.4210 n2        1 BCG     -0.262000
     16 O1          2.6590   -0.3460    2.9740 os        1 BCG     -0.261000
     17 O2          3.4090    0.2850    4.9930 o         1 BCG     -0.374000
     18 O3          4.1140    1.4670   -0.0970 o         1 BCG     -0.604000
     19 O4          2.0720    2.1710   -0.6440 o         1 BCG     -0.604000
     20 H1          3.7760    1.8720   -3.0340 ha        1 BCG      0.023000
     21 H2          0.5830    3.1810    0.5500 hn        1 BCG      0.191000
     22 H3          0.7410   -0.0300    2.4690 h1        1 BCG      0.100000
     23 H41         2.3240    1.7460    1.5100 hc        1 BCG      0.142500
     24 H42         1.1800    0.5580    4.1650 h1        1 BCG      0.100000
     25 H5          2.5730    2.3850    3.1940 hc        1 BCG      0.142500
     26 H61        -0.9310   -3.0250    2.8160 hc        1 BCG      0.097167
     27 H62         0.0590    2.8290    3.4020 h4        1 BCG      0.104000
     28 H71        -1.9530   -3.6710    1.4600 hc        1 BCG      0.097167
     29 H72        -2.6270   -2.4140    2.5860 hc        1 BCG      0.097167
     30 H10         4.5720   -0.0420    1.3640 ha        1 BCG      0.161500
     31 H11         6.2520   -0.8060    1.6650 ha        1 BCG      0.161500
     32 H12         6.1110    0.9430   -0.3520 ha        1 BCG      0.239000
     33 H13         9.2130   -0.1590   -0.8730 ha        1 BCG      0.239000
     34 H14         6.7510   -1.7820    3.8970 ha        1 BCG      0.184000
     35 H161        0.7060    0.5620   -0.0020 hc        1 BCG      0.097167
     36 H162       -0.9980    1.0410   -0.4010 hc        1 BCG      0.097167
     37 H163       -0.1460   -0.2090   -1.4110 hc        1 BCG      0.097167
     38 C8          3.6680   -0.1910    3.8830 c2        1 BCG      0.349000
     39 C16        -0.2890    0.1730   -0.3680 c3        1 BCG     -0.115000
@<TRIPOS>BOND
     1    1    7 1   
     2    1   39 1   
     3    2   14 1   
     4    2   20 1   
     5    3    4 1   
     6    3   16 1   
     7    3   22 1   
     8    3   24 1   
     9    4    5 1   
    10    4   23 1   
    11    4   25 1   
    12    5   15 1   
    13    5   27 1   
    14    6    7 1   
    15    6   26 1   
    16    6   28 1   
    17    6   29 1   
    18    8    9 1   
    19    8   13 1   
    20    8   38 1   
    21    9   30 1   
    22    9   31 1   
    23   10   11 1   
    24   10   32 1   
    25   11   33 1   
    26   12   13 1   
    27   13   34 1   
    28   14   18 1   
    29   14   19 1   
    30   15   21 1   
    31   16   38 1   
    32   17   38 1   
    33   35   39 1   
    34   36   39 1   
    35   37   39 1   
@<TRIPOS>SUBSTRUCTURE
     1 BCG         1 TEMP              0 ****  ****    0 ROOT
