@<TRIPOS>MOLECULE
BCG
   39    35     1     0     0
SMALL
bcc


@<TRIPOS>ATOM
      1 C1          1.3490    0.5970   -3.0610 c2        1 BCG     -0.100000
      2 C2          1.7490   -0.2800   -2.0470 c1        1 BCG     -0.013000
      3 C3          3.0550    0.0860    6.3430 c3        1 BCG     -0.064000
      4 C4          0.0710    0.3220    4.0180 c1        1 BCG     -0.066000
      5 C5         -0.4890    0.7690    2.7350 c3        1 BCG     -0.120000
      6 C6         -0.7920   -0.5130    1.9360 c3        1 BCG     -0.227000
      7 C7          0.1680    1.1100   -3.2990 c1        1 BCG     -0.250000
      8 C9          4.9960    0.0440    3.1940 c2        1 BCG     -0.123000
      9 C10         4.0100    0.1070    2.2820 c2        1 BCG     -0.071000
     10 C11         6.9050   -0.4350   -0.7030 c1        1 BCG     -0.240000
     11 C12         8.0880   -0.5780   -0.5950 c1        1 BCG     -0.240000
     12 C13         7.4780   -0.0600    3.5670 c1        1 BCG      0.172000
     13 C14         6.3950   -0.0390    2.8210 c2        1 BCG     -0.426000
     14 C15         2.4910    0.0000   -0.8150 c2        1 BCG      0.346000
     15 N1          0.2560    1.7880    2.0090 n8        1 BCG     -0.354000
     16 O1          3.3830    0.0950    4.9560 os        1 BCG     -0.273000
     17 O2          5.5210    0.0260    5.5790 o         1 BCG     -0.383000
     18 O3          3.7570    0.0790   -0.9130 o         1 BCG     -0.584500
     19 O4          1.8750    0.0910    0.2880 o         1 BCG     -0.584500
     20 H1          2.1760    0.7570   -3.7950 ha        1 BCG      0.172000
     21 H2          1.2130    1.4970    1.8910 hn        1 BCG      0.156000
     22 H3          3.4640   -0.8320    6.8290 h1        1 BCG      0.085667
     23 H41         1.9360    0.0890    6.3470 h1        1 BCG      0.085667
     24 H42         3.4710    0.9960    6.8390 h1        1 BCG      0.085667
     25 H5          1.1260    0.5740    4.2240 ha        1 BCG      0.051000
     26 H61        -1.2100   -1.3010    2.6050 hc        1 BCG      0.093333
     27 H62        -1.4890    1.2460    3.0040 h1        1 BCG      0.118000
     28 H71         0.1420   -0.8880    1.4450 hc        1 BCG      0.093333
     29 H72        -1.5380   -0.2810    1.1400 hc        1 BCG      0.093333
     30 H10         2.9460    0.1660    2.5650 ha        1 BCG      0.172500
     31 H11         4.1810    0.1000    1.1860 ha        1 BCG      0.172500
     32 H12         5.8430   -0.3060   -0.8010 ha        1 BCG      0.240000
     33 H13         9.1350   -0.7050   -0.4980 ha        1 BCG      0.240000
     34 H14         6.5720   -0.0950    1.7150 ha        1 BCG      0.212000
     35 H161       -0.1310    1.8940    1.0900 hn        1 BCG      0.156000
     36 H162       -1.7730    1.0770   -4.1050 ha        1 BCG      0.100000
     37 H163       -1.2810    2.6300   -3.2170 ha        1 BCG      0.100000
     38 C8          4.7190    0.0520    4.6380 c2        1 BCG      0.341000
     39 C16        -0.9950    1.6210   -3.5500 c2        1 BCG     -0.169000
@<TRIPOS>BOND
     1    1    2 1   
     2    1    7 1   
     3    1   20 1   
     4    2   14 1   
     5    3   16 1   
     6    3   22 1   
     7    3   23 1   
     8    3   24 1   
     9    4    5 1   
    10    4   25 1   
    11    5    6 1   
    12    5   15 1   
    13    5   27 1   
    14    6   26 1   
    15    6   28 1   
    16    6   29 1   
    17    7   39 1   
    18    8    9 1   
    19    8   13 1   
    20    8   38 1   
    21    9   30 1   
    22    9   31 1   
    23   10   11 1   
    24   10   32 1   
    25   11   33 1   
    26   12   13 1   
    27   13   34 1   
    28   14   18 1   
    29   14   19 1   
    30   15   21 1   
    31   15   35 1   
    32   16   38 1   
    33   17   38 1   
    34   36   39 1   
    35   37   39 1   
@<TRIPOS>SUBSTRUCTURE
     1 BCG         1 TEMP              0 ****  ****    0 ROOT
