@<TRIPOS>MOLECULE
BCG
   39    38     1     0     0
SMALL
bcc


@<TRIPOS>ATOM
      1 C1         -2.2900   -1.1130   -1.6670 c3        1 BCG     -0.010000
      2 C2         -0.7640   -1.1010   -1.6560 c3        1 BCG     -0.221000
      3 C3         -0.1250   -1.0670   -0.2400 c3        1 BCG      0.067000
      4 C4         -1.1380   -1.0480    0.9290 c3        1 BCG     -0.185000
      5 C5         -2.5910   -1.0710    0.5080 c3        1 BCG     -0.029000
      6 C6         -2.9260   -2.5290    0.2040 c3        1 BCG     -0.157000
      7 C7         -2.7100   -2.5750   -1.3770 c3        1 BCG     -0.163000
      8 C8          1.8420   -0.0890    0.6730 c1        1 BCG      0.356000
      9 C9          2.7250    1.1160    1.0190 c1        1 BCG     -0.109000
     10 C10         2.2370    2.1180    1.8460 c2        1 BCG     -0.057000
     11 C11         3.0550    3.1820    2.2040 c1        1 BCG     -0.155000
     12 C12         4.3600    3.2430    1.7340 c1        1 BCG     -0.144000
     13 C13         4.8470    2.2420    0.9080 c1        1 BCG     -0.144000
     14 C14         4.0290    1.1780    0.5500 c1        1 BCG     -0.089000
     15 C15        -0.2890    0.1210   -2.4240 c2        1 BCG      0.340000
     16 C16        -2.4930    0.8490   -0.6660 c3        1 BCG     -0.136000
     17 N1         -2.8630   -0.5250   -0.6800 n3        1 BCG     -0.246000
     18 O1          0.6860    0.0840   -0.1450 os        1 BCG     -0.228000
     19 O2          2.0940   -1.1820    1.1440 o         1 BCG     -0.395000
     20 O3         -0.3550    0.1380   -3.6720 o         1 BCG     -0.576000
     21 O4          0.2170    1.0870   -1.8100 o         1 BCG     -0.576000
     22 H1         -2.6470   -0.8060   -2.5240 h1        1 BCG      0.131000
     23 H2         -0.4470   -1.9000   -2.1180 hc        1 BCG      0.096000
     24 H3          0.4450   -1.8560   -0.1410 h1        1 BCG      0.081000
     25 H41        -0.9690   -1.8270    1.4950 hc        1 BCG      0.092000
     26 H42        -0.9820   -0.2400    1.4600 hc        1 BCG      0.092000
     27 H5         -3.1730   -0.7140    1.2070 h1        1 BCG      0.086000
     28 H61        -2.3080   -3.1300    0.6580 hc        1 BCG      0.070000
     29 H62        -3.8540   -2.7320    0.4380 hc        1 BCG      0.070000
     30 H71        -1.9970   -3.1970   -1.6150 hc        1 BCG      0.076000
     31 H72        -3.5430   -2.7980   -1.8390 hc        1 BCG      0.076000
     32 H10         1.3460    2.0400    2.2280 ha        1 BCG      0.233000
     33 H11         2.7130    3.8850    2.7840 ha        1 BCG      0.133000
     34 H12         4.9360    3.9920    1.9870 ha        1 BCG      0.115500
     35 H13         5.7820    2.2580    0.6190 ha        1 BCG      0.115500
     36 H14         4.3720    0.4720   -0.0330 ha        1 BCG      0.138000
     37 H161       -2.4390    1.1820   -1.5870 h1        1 BCG      0.085000
     38 H162       -1.6200    0.9480   -0.2310 h1        1 BCG      0.085000
     39 H163       -3.1650    1.3640   -0.1710 h1        1 BCG      0.085000
@<TRIPOS>BOND
     1    1    2 1   
     2    1    7 1   
     3    1   17 1   
     4    1   22 1   
     5    2    3 1   
     6    2   15 1   
     7    2   23 1   
     8    3    4 1   
     9    3   18 1   
    10    3   24 1   
    11    4    5 1   
    12    4   25 1   
    13    4   26 1   
    14    5    6 1   
    15    5   17 1   
    16    5   27 1   
    17    6    7 1   
    18    6   28 1   
    19    6   29 1   
    20    7   30 1   
    21    7   31 1   
    22    8   18 1   
    23    8   19 1   
    24    9   10 1   
    25    9   14 1   
    26   10   11 1   
    27   10   32 1   
    28   11   33 1   
    29   12   13 1   
    30   12   34 1   
    31   13   35 1   
    32   14   36 1   
    33   15   20 1   
    34   15   21 1   
    35   16   17 1   
    36   16   37 1   
    37   16   38 1   
    38   16   39 1   
@<TRIPOS>SUBSTRUCTURE
     1 BCG         1 TEMP              0 ****  ****    0 ROOT
