@<TRIPOS>MOLECULE
BCG
   39    35     1     0     0
SMALL
bcc


@<TRIPOS>ATOM
      1 C1          0.4550   -1.5450   -2.1730 c2        1 BCG     -0.155000
      2 C2          1.1390   -0.8840   -1.1750 c1        1 BCG     -0.613000
      3 C3          2.9250   -0.6770    3.7830 c3        1 BCG     -0.071000
      4 C4          1.2610    1.7190    3.7730 c1        1 BCG     -0.083000
      5 C5          0.2410    1.8910    2.7310 c3        1 BCG     -0.108000
      6 C6         -0.3990    0.5220    2.4530 c3        1 BCG     -0.228000
      7 C7         -0.7660   -1.2670   -2.6020 c1        1 BCG     -0.042000
      8 C9          5.8880   -0.0520    1.6980 c2        1 BCG     -0.070000
      9 C10         5.5300    0.4780    0.3490 c3        1 BCG     -0.242000
     10 C11         5.6160    1.8990    0.1470 c1        1 BCG     -0.062000
     11 C12         7.8570   -1.6280    4.2190 c1        1 BCG     -0.213000
     12 C13         7.4700   -1.1900    3.1720 c1        1 BCG     -0.119000
     13 C14         7.0480   -0.6900    1.9320 c2        1 BCG     -0.056000
     14 C15         1.7890   -0.3290   -0.3040 c1        1 BCG      0.193000
     15 N1          0.6310    2.6310    1.5410 n3        1 BCG     -0.370000
     16 O1          4.1700   -0.8970    3.1120 os        1 BCG     -0.260000
     17 O2          4.5980    1.2990    3.2580 o         1 BCG     -0.354000
     18 O3          2.4070    0.2640    0.5930 o         1 BCG     -0.487000
     19 O4         -2.1240    1.9770   -0.2810 o         1 BCG     -0.336000
     20 H1          0.9840   -2.3940   -2.6640 ha        1 BCG      0.131000
     21 H2          1.4180    2.1850    1.1000 hn        1 BCG      0.160000
     22 H3          2.6560   -1.6870    4.1760 h1        1 BCG      0.099667
     23 H41         2.1750   -0.3230    3.0270 h1        1 BCG      0.099667
     24 H42         3.0380    0.0680    4.6070 h1        1 BCG      0.099667
     25 H5          2.2590    2.1510    3.5900 ha        1 BCG      0.066000
     26 H61        -0.6350    0.0070    3.4130 hc        1 BCG      0.087333
     27 H62        -0.5460    2.5300    3.2610 h1        1 BCG      0.126000
     28 H71         0.3020   -0.1120    1.8530 hc        1 BCG      0.087333
     29 H72        -1.3390    0.6610    1.8670 hc        1 BCG      0.087333
     30 H10         4.4090    0.2720    0.1390 hc        1 BCG      0.188500
     31 H11         6.1000   -0.0750   -0.4470 hc        1 BCG      0.188500
     32 H12         5.5610    2.5340    1.0450 ha        1 BCG      0.055000
     33 H13         8.1880   -2.0130    5.1470 ha        1 BCG      0.217000
     34 H14         7.7620   -0.8470    1.1000 ha        1 BCG      0.140000
     35 H161       -0.1310    2.6510    0.8870 hn        1 BCG      0.160000
     36 H162       -0.5480    0.6800   -0.5360 h4        1 BCG      0.105500
     37 H163       -1.9840    0.5570   -1.7570 h4        1 BCG      0.105500
     38 C8          4.8690    0.2140    2.7370 c2        1 BCG      0.350000
     39 C16        -1.5430    1.0600   -0.8650 c2        1 BCG      0.122000
@<TRIPOS>BOND
     1    1    2 1   
     2    1    7 1   
     3    1   20 1   
     4    2   14 1   
     5    3   16 1   
     6    3   22 1   
     7    3   23 1   
     8    3   24 1   
     9    4    5 1   
    10    4   25 1   
    11    5    6 1   
    12    5   15 1   
    13    5   27 1   
    14    6   26 1   
    15    6   28 1   
    16    6   29 1   
    17    8    9 1   
    18    8   13 1   
    19    8   38 1   
    20    9   10 1   
    21    9   30 1   
    22    9   31 1   
    23   10   32 1   
    24   11   12 1   
    25   11   33 1   
    26   12   13 1   
    27   13   34 1   
    28   14   18 1   
    29   15   21 1   
    30   15   35 1   
    31   16   38 1   
    32   17   38 1   
    33   19   39 1   
    34   36   39 1   
    35   37   39 1   
@<TRIPOS>SUBSTRUCTURE
     1 BCG         1 TEMP              0 ****  ****    0 ROOT
