@<TRIPOS>MOLECULE
BCH
   32    31     1     0     0
SMALL
bcc


@<TRIPOS>ATOM
      1 C21         0.4310    0.6520    0.3500 c3        1 BCH     -0.098100
      2 C20         1.9320    0.5240    0.3370 c3        1 BCH     -0.071400
      3 C19         2.4380    0.0000    1.6690 c3        1 BCH     -0.170400
      4 C18         3.9310   -0.0350    1.7040 c         1 BCH      0.586700
      5 O12         4.6730    0.9400    1.5390 o         1 BCH     -0.561100
      6 S17         4.4950   -1.6410    2.0460 ss        1 BCH     -0.179700
      7 C16         6.2460   -1.4990    1.9050 c3        1 BCH     -0.073300
      8 C15         6.8120   -0.6950    3.0610 c3        1 BCH      0.121800
      9 N14         8.1200    0.0080    2.7840 n4        1 BCH     -0.602800
     10 C13         7.9620    0.9780    1.6570 c3        1 BCH      0.086100
     11 C22         8.5170    0.7560    4.0160 c3        1 BCH      0.086100
     12 C11         9.1780   -0.9870    2.4500 c3        1 BCH      0.086100
     13 H211        0.1000    1.3690    1.1400 hc        1 BCH      0.047033
     14 H212        0.0730    1.0280   -0.6400 hc        1 BCH      0.047033
     15 H213       -0.0510   -0.3370    0.5460 hc        1 BCH      0.047033
     16 H201        2.4010    1.5230    0.1310 hc        1 BCH      0.055700
     17 H202        2.2460   -0.1720   -0.4840 hc        1 BCH      0.055700
     18 H191        2.0200   -1.0260    1.8610 hc        1 BCH      0.088200
     19 H192        2.0840    0.6750    2.4970 hc        1 BCH      0.088200
     20 H161        6.4930   -1.0370    0.9150 h1        1 BCH      0.105200
     21 H162        6.6460   -2.5460    1.9090 h1        1 BCH      0.105200
     22 H151        6.9790   -1.3730    3.9480 hx        1 BCH      0.108200
     23 H152        6.0750    0.1120    3.3540 hx        1 BCH      0.108200
     24 H131        8.8120    1.7100    1.6760 hx        1 BCH      0.103811
     25 H132        7.9740    0.4290    0.6780 hx        1 BCH      0.103811
     26 H133        6.9820    1.5220    1.7620 hx        1 BCH      0.103811
     27 H221        7.7530    1.5500    4.2290 hx        1 BCH      0.103811
     28 H222        8.5780    0.0460    4.8830 hx        1 BCH      0.103811
     29 H223        9.5200    1.2340    3.8530 hx        1 BCH      0.103811
     30 H111       10.1330   -0.4480    2.2090 hx        1 BCH      0.103811
     31 H112        9.3400   -1.6680    3.3270 hx        1 BCH      0.103811
     32 H113        8.8540   -1.5920    1.5610 hx        1 BCH      0.103811
@<TRIPOS>BOND
     1    1    2 1   
     2    1   13 1   
     3    1   14 1   
     4    1   15 1   
     5    2    3 1   
     6    2   16 1   
     7    2   17 1   
     8    3    4 1   
     9    3   18 1   
    10    3   19 1   
    11    4    5 2   
    12    4    6 1   
    13    6    7 1   
    14    7    8 1   
    15    7   20 1   
    16    7   21 1   
    17    8    9 1   
    18    8   22 1   
    19    8   23 1   
    20    9   10 1   
    21    9   11 1   
    22    9   12 1   
    23   10   24 1   
    24   10   25 1   
    25   10   26 1   
    26   11   27 1   
    27   11   28 1   
    28   11   29 1   
    29   12   30 1   
    30   12   31 1   
    31   12   32 1   
@<TRIPOS>SUBSTRUCTURE
     1 BCH         1 TEMP              0 ****  ****    0 ROOT
