@<TRIPOS>MOLECULE
BCH
   32    31     1     0     0
SMALL
bcc


@<TRIPOS>ATOM
      1 C21        -5.2600    0.5930   -2.9400 c3        1 BCH     -0.098100
      2 C20        -3.7050    0.7820   -2.7670 c3        1 BCH     -0.071400
      3 C19        -3.2970    0.3850   -1.3280 c3        1 BCH     -0.171400
      4 C18        -1.7870    0.6580   -1.1230 c         1 BCH      0.587700
      5 O12        -1.3290    1.7500   -1.3770 o         1 BCH     -0.561100
      6 S17        -0.7190   -0.6390   -0.5150 ss        1 BCH     -0.181700
      7 C16         0.6410    0.0740    0.3590 c3        1 BCH     -0.073300
      8 C15         1.7320   -0.9870    0.5560 c3        1 BCH      0.120800
      9 N14         2.6910   -0.5230    1.5400 n4        1 BCH     -0.602800
     10 C13         2.0340   -0.3770    2.8200 c3        1 BCH      0.086100
     11 C22         3.2290    0.7390    1.1280 c3        1 BCH      0.086100
     12 C11         3.8000   -1.5190    1.6620 c3        1 BCH      0.086100
     13 H211       -5.5210    0.8280   -3.8740 hc        1 BCH      0.047033
     14 H212       -5.5000   -0.3480   -2.7580 hc        1 BCH      0.047033
     15 H213       -5.7370    1.1840   -2.3070 hc        1 BCH      0.047033
     16 H201       -3.4670    1.7250   -2.9260 hc        1 BCH      0.052700
     17 H202       -3.2320    0.2140   -3.4100 hc        1 BCH      0.052700
     18 H191       -3.8170    0.9150   -0.6830 hc        1 BCH      0.091700
     19 H192       -3.4810   -0.5800   -1.1870 hc        1 BCH      0.091700
     20 H161        1.0080    0.8350   -0.1620 h1        1 BCH      0.105200
     21 H162        0.3370    0.3930    1.2310 h1        1 BCH      0.105200
     22 H151        1.3230   -1.8170    0.8660 hx        1 BCH      0.108700
     23 H152        2.1920   -1.1480   -0.3000 hx        1 BCH      0.108700
     24 H131        1.4000   -1.1120    2.9470 hx        1 BCH      0.103700
     25 H132        2.7030   -0.3970    3.5340 hx        1 BCH      0.103700
     26 H133        1.5490    0.4860    2.8460 hx        1 BCH      0.103700
     27 H221        3.4900    0.6900    0.1780 hx        1 BCH      0.103700
     28 H222        2.5500    1.4400    1.2470 hx        1 BCH      0.103700
     29 H223        4.0220    0.9530    1.6750 hx        1 BCH      0.103700
     30 H111        4.2360   -1.6370    0.7780 hx        1 BCH      0.103700
     31 H112        3.4380   -2.3740    1.9640 hx        1 BCH      0.103700
     32 H113        4.4770   -1.1880    2.3260 hx        1 BCH      0.103700
@<TRIPOS>BOND
     1    1    2 1   
     2    1   13 1   
     3    1   14 1   
     4    1   15 1   
     5    2    3 1   
     6    2   16 1   
     7    2   17 1   
     8    3    4 1   
     9    3   18 1   
    10    3   19 1   
    11    4    5 2   
    12    4    6 1   
    13    6    7 1   
    14    7    8 1   
    15    7   20 1   
    16    7   21 1   
    17    8    9 1   
    18    8   22 1   
    19    8   23 1   
    20    9   10 1   
    21    9   11 1   
    22    9   12 1   
    23   10   24 1   
    24   10   25 1   
    25   10   26 1   
    26   11   27 1   
    27   11   28 1   
    28   11   29 1   
    29   12   30 1   
    30   12   31 1   
    31   12   32 1   
@<TRIPOS>SUBSTRUCTURE
     1 BCH         1 TEMP              0 ****  ****    0 ROOT
