@<TRIPOS>MOLECULE
BCH
   32    31     1     0     0
SMALL
bcc


@<TRIPOS>ATOM
      1 C21         5.1360   -0.0410   -0.6620 c3        1 BCH     -0.098100
      2 C20         3.7230    0.4720   -0.5530 c3        1 BCH     -0.071400
      3 C19         2.8080   -0.5930    0.0230 c3        1 BCH     -0.170400
      4 C18         1.3870   -0.1320    0.0430 c         1 BCH      0.586700
      5 O12         0.7380    0.2240   -0.9470 o         1 BCH     -0.561100
      6 S17         0.7470   -0.1970    1.6560 ss        1 BCH     -0.179700
      7 C16        -0.8590    0.5080    1.4870 c3        1 BCH     -0.073300
      8 C15        -1.7780   -0.4320    0.7270 c3        1 BCH      0.121800
      9 N14        -2.9230    0.2300   -0.0020 n4        1 BCH     -0.602800
     10 C13        -2.4060    1.1970   -1.0180 c3        1 BCH      0.086100
     11 C22        -3.7080   -0.8350   -0.7010 c3        1 BCH      0.086100
     12 C11        -3.8090    0.9380    0.9660 c3        1 BCH      0.086100
     13 H211        5.7990    0.7570   -1.0770 hc        1 BCH      0.047033
     14 H212        5.5290   -0.3400    0.3390 hc        1 BCH      0.047033
     15 H213        5.1850   -0.9270   -1.3400 hc        1 BCH      0.047033
     16 H201        3.7010    1.3820    0.1030 hc        1 BCH      0.055700
     17 H202        3.3450    0.7760   -1.5650 hc        1 BCH      0.055700
     18 H191        2.8660   -1.5220   -0.6110 hc        1 BCH      0.088200
     19 H192        3.1430   -0.8660    1.0610 hc        1 BCH      0.088200
     20 H161       -1.2340    0.6820    2.5280 h1        1 BCH      0.105200
     21 H162       -0.7680    1.5020    0.9800 h1        1 BCH      0.105200
     22 H151       -1.1820   -0.9880   -0.0580 hx        1 BCH      0.108200
     23 H152       -2.2260   -1.1830    1.4410 hx        1 BCH      0.108200
     24 H131       -1.5170    0.7500   -1.5460 hx        1 BCH      0.103811
     25 H132       -3.2170    1.4260   -1.7580 hx        1 BCH      0.103811
     26 H133       -2.0920    2.1480   -0.5120 hx        1 BCH      0.103811
     27 H221       -4.0490   -1.6010    0.0460 hx        1 BCH      0.103811
     28 H222       -4.6020   -0.3720   -1.1960 hx        1 BCH      0.103811
     29 H223       -3.0590   -1.3240   -1.4760 hx        1 BCH      0.103811
     30 H111       -3.2070    1.6960    1.5340 hx        1 BCH      0.103811
     31 H112       -4.6320    1.4550    0.4060 hx        1 BCH      0.103811
     32 H113       -4.2490    0.1950    1.6820 hx        1 BCH      0.103811
@<TRIPOS>BOND
     1    1    2 1   
     2    1   13 1   
     3    1   14 1   
     4    1   15 1   
     5    2    3 1   
     6    2   16 1   
     7    2   17 1   
     8    3    4 1   
     9    3   18 1   
    10    3   19 1   
    11    4    5 2   
    12    4    6 1   
    13    6    7 1   
    14    7    8 1   
    15    7   20 1   
    16    7   21 1   
    17    8    9 1   
    18    8   22 1   
    19    8   23 1   
    20    9   10 1   
    21    9   11 1   
    22    9   12 1   
    23   10   24 1   
    24   10   25 1   
    25   10   26 1   
    26   11   27 1   
    27   11   28 1   
    28   11   29 1   
    29   12   30 1   
    30   12   31 1   
    31   12   32 1   
@<TRIPOS>SUBSTRUCTURE
     1 BCH         1 TEMP              0 ****  ****    0 ROOT
