@<TRIPOS>MOLECULE
BCH
   32    31     1     0     0
SMALL
bcc


@<TRIPOS>ATOM
      1 C21         0.4340    0.7310    0.3710 c3        1 BCH     -0.098100
      2 C20         1.9320    0.5650    0.3510 c3        1 BCH     -0.071400
      3 C19         2.4370    0.0690    1.6940 c3        1 BCH     -0.170400
      4 C18         3.9290   -0.0030    1.7180 c         1 BCH      0.586700
      5 O12         4.6920    0.9490    1.5200 o         1 BCH     -0.561100
      6 S17         4.4570   -1.6120    2.1020 ss        1 BCH     -0.179700
      7 C16         6.2090   -1.5160    1.9420 c3        1 BCH     -0.073300
      8 C15         6.8040   -0.6940    3.0710 c3        1 BCH      0.121800
      9 N14         8.1260   -0.0320    2.7630 n4        1 BCH     -0.602800
     10 C13         7.9820    0.9100    1.6100 c3        1 BCH      0.086100
     11 C22         8.5520    0.7410    3.9710 c3        1 BCH      0.086100
     12 C11         9.1570   -1.0620    2.4500 c3        1 BCH      0.086100
     13 H211        0.1280    1.4790    1.1420 hc        1 BCH      0.047033
     14 H212        0.0780    1.0860   -0.6260 hc        1 BCH      0.047033
     15 H213       -0.0690   -0.2390    0.6010 hc        1 BCH      0.047033
     16 H201        2.4240    1.5460    0.1110 hc        1 BCH      0.055700
     17 H202        2.2220   -0.1630   -0.4520 hc        1 BCH      0.055700
     18 H191        1.9950   -0.9400    1.9190 hc        1 BCH      0.088200
     19 H192        2.1060    0.7760    2.5040 hc        1 BCH      0.088200
     20 H161        6.4590   -1.0890    0.9390 h1        1 BCH      0.105200
     21 H162        6.5830   -2.5720    1.9740 h1        1 BCH      0.105200
     22 H151        6.9620   -1.3500    3.9750 hx        1 BCH      0.108200
     23 H152        6.0890    0.1390    3.3460 hx        1 BCH      0.108200
     24 H131        8.8500    1.6210    1.6020 hx        1 BCH      0.103811
     25 H132        7.9720    0.3340    0.6470 hx        1 BCH      0.103811
     26 H133        7.0170    1.4810    1.7080 hx        1 BCH      0.103811
     27 H221        7.8090    1.5600    4.1680 hx        1 BCH      0.103811
     28 H222        8.6040    0.0550    4.8570 hx        1 BCH      0.103811
     29 H223        9.5650    1.1890    3.7860 hx        1 BCH      0.103811
     30 H111       10.1220   -0.5530    2.1860 hx        1 BCH      0.103811
     31 H112        9.3100   -1.7210    3.3440 hx        1 BCH      0.103811
     32 H113        8.8100   -1.6820    1.5810 hx        1 BCH      0.103811
@<TRIPOS>BOND
     1    1    2 1   
     2    1   13 1   
     3    1   14 1   
     4    1   15 1   
     5    2    3 1   
     6    2   16 1   
     7    2   17 1   
     8    3    4 1   
     9    3   18 1   
    10    3   19 1   
    11    4    5 2   
    12    4    6 1   
    13    6    7 1   
    14    7    8 1   
    15    7   20 1   
    16    7   21 1   
    17    8    9 1   
    18    8   22 1   
    19    8   23 1   
    20    9   10 1   
    21    9   11 1   
    22    9   12 1   
    23   10   24 1   
    24   10   25 1   
    25   10   26 1   
    26   11   27 1   
    27   11   28 1   
    28   11   29 1   
    29   12   30 1   
    30   12   31 1   
    31   12   32 1   
@<TRIPOS>SUBSTRUCTURE
     1 BCH         1 TEMP              0 ****  ****    0 ROOT
