@<TRIPOS>MOLECULE
BCH
   32    31     1     0     0
SMALL
bcc


@<TRIPOS>ATOM
      1 C21         0.4430    0.6590    0.3120 c3        1 BCH     -0.098100
      2 C20         1.9380    0.4690    0.3060 c3        1 BCH     -0.071400
      3 C19         2.4380    0.0930    1.6900 c3        1 BCH     -0.170400
      4 C18         3.9280    0.0010    1.7200 c         1 BCH      0.586700
      5 O12         4.7070    0.9170    1.4330 o         1 BCH     -0.561100
      6 S17         4.4310   -1.5730    2.2530 ss        1 BCH     -0.179700
      7 C16         6.1850   -1.5220    2.0840 c3        1 BCH     -0.073300
      8 C15         6.7950   -0.6070    3.1310 c3        1 BCH      0.121800
      9 N14         8.1270    0.0020    2.7610 n4        1 BCH     -0.602800
     10 C13         7.9970    0.8330    1.5250 c3        1 BCH      0.086100
     11 C22         8.5670    0.8780    3.8910 c3        1 BCH      0.086100
     12 C11         9.1400   -1.0690    2.5460 c3        1 BCH      0.086100
     13 H211        0.1500    1.4810    1.0090 hc        1 BCH      0.047033
     14 H212        0.0900    0.9250   -0.7140 hc        1 BCH      0.047033
     15 H213       -0.0750   -0.2770    0.6320 hc        1 BCH      0.047033
     16 H201        2.4440    1.4150   -0.0250 hc        1 BCH      0.055700
     17 H202        2.2150   -0.3350   -0.4250 hc        1 BCH      0.055700
     18 H191        2.1200    0.8790    2.4300 hc        1 BCH      0.088200
     19 H192        1.9800   -0.8830    2.0100 hc        1 BCH      0.088200
     20 H161        6.5420   -2.5750    2.2140 h1        1 BCH      0.105200
     21 H162        6.4390   -1.1940    1.0440 h1        1 BCH      0.105200
     22 H151        6.0940    0.2600    3.3260 hx        1 BCH      0.108200
     23 H152        6.9440   -1.1780    4.0920 hx        1 BCH      0.108200
     24 H131        7.9760    0.1690    0.6210 hx        1 BCH      0.103811
     25 H132        8.8760    1.5260    1.4500 hx        1 BCH      0.103811
     26 H133        7.0410    1.4260    1.5680 hx        1 BCH      0.103811
     27 H221        8.6090    0.2780    4.8380 hx        1 BCH      0.103811
     28 H222        7.8380    1.7240    4.0100 hx        1 BCH      0.103811
     29 H223        9.5870    1.2900    3.6650 hx        1 BCH      0.103811
     30 H111       10.1140   -0.6040    2.2360 hx        1 BCH      0.103811
     31 H112        9.2840   -1.6440    3.4990 hx        1 BCH      0.103811
     32 H113        8.7830   -1.7640    1.7400 hx        1 BCH      0.103811
@<TRIPOS>BOND
     1    1    2 1   
     2    1   13 1   
     3    1   14 1   
     4    1   15 1   
     5    2    3 1   
     6    2   16 1   
     7    2   17 1   
     8    3    4 1   
     9    3   18 1   
    10    3   19 1   
    11    4    5 2   
    12    4    6 1   
    13    6    7 1   
    14    7    8 1   
    15    7   20 1   
    16    7   21 1   
    17    8    9 1   
    18    8   22 1   
    19    8   23 1   
    20    9   10 1   
    21    9   11 1   
    22    9   12 1   
    23   10   24 1   
    24   10   25 1   
    25   10   26 1   
    26   11   27 1   
    27   11   28 1   
    28   11   29 1   
    29   12   30 1   
    30   12   31 1   
    31   12   32 1   
@<TRIPOS>SUBSTRUCTURE
     1 BCH         1 TEMP              0 ****  ****    0 ROOT
