@<TRIPOS>MOLECULE
BCK
   26    22     1     0     0
SMALL
bcc


@<TRIPOS>ATOM
      1 O13         2.0960   -0.5440   -3.2260 oh        1 BCK     -0.324000
      2 C12         1.1340    0.0280   -2.3630 c3        1 BCK      0.058000
      3 C3          1.6400   -0.0440   -0.9110 c2        1 BCK     -0.175000
      4 C4          2.9510   -0.0520   -0.5160 c1        1 BCK     -0.086000
      5 N5          2.9810   -0.0450    0.8370 n2        1 BCK     -0.098500
      6 N1          1.6820   -0.0330    1.2920 n2        1 BCK     -0.098500
      7 C14         1.2700    0.0270    2.6730 c2        1 BCK     -0.061000
      8 C2          0.8610   -0.0320    0.2160 c1        1 BCK     -0.086000
      9 C6         -0.6780    0.0040    0.2510 c1        1 BCK     -0.028000
     10 C11        -1.3440    1.2240    0.2580 c1        1 BCK     -0.118000
     11 C10        -2.7330    1.2570    0.2960 c1        1 BCK     -0.127000
     12 C9         -3.4580    0.0640    0.3270 c1        1 BCK     -0.127000
     13 C8         -2.7920   -1.1550    0.3200 c1        1 BCK     -0.133000
     14 C7         -1.4050   -1.1890    0.2820 c2        1 BCK     -0.109000
     15 H1          1.9410   -0.2830   -4.0520 ho        1 BCK      0.199000
     16 H2          0.2920   -0.4660   -2.4400 h1        1 BCK      0.067500
     17 H3          0.9900    0.9490   -2.6090 h1        1 BCK      0.067500
     18 H4          3.7330   -0.0610   -1.1110 DU        1 BCK      0.193000
     19 H5          0.6430    0.7770    2.7980 ha        1 BCK      0.098333
     20 H6          2.0660    0.1630    3.2500 ha        1 BCK      0.098333
     21 H7          0.8310   -0.8080    2.9180 ha        1 BCK      0.098333
     22 H8         -0.8320    2.0650    0.2360 ha        1 BCK      0.139000
     23 H9         -3.2030    2.1150    0.3010 ha        1 BCK      0.135000
     24 H10        -4.4360    0.0870    0.3540 ha        1 BCK      0.135000
     25 H11        -3.2990   -1.9890    0.3420 ha        1 BCK      0.136000
     26 H12        -0.9300   -2.0590    0.2770 ha        1 BCK      0.143000
@<TRIPOS>BOND
     1    1    2 1   
     2    1   15 1   
     3    2    3 1   
     4    2   16 1   
     5    2   17 1   
     6    3    4 1   
     7    3    8 1   
     8    4    5 1   
     9    5    6 1   
    10    6    8 1   
    11    7   19 1   
    12    7   20 1   
    13    7   21 1   
    14    9   10 1   
    15    9   14 1   
    16   10   22 1   
    17   11   12 1   
    18   11   23 1   
    19   12   24 1   
    20   13   14 1   
    21   13   25 1   
    22   14   26 1   
@<TRIPOS>SUBSTRUCTURE
     1 BCK         1 TEMP              0 ****  ****    0 ROOT
