@<TRIPOS>MOLECULE
BCK
   26    27     1     0     0
SMALL
bcc


@<TRIPOS>ATOM
      1 O13        -2.8790   -2.4250   -0.1660 oh        1 BCK     -0.596800
      2 C12        -1.5760   -1.9130   -0.4250 c3        1 BCK      0.215700
      3 C3         -1.5760   -0.4680   -0.1560 cc        1 BCK     -0.247600
      4 C4         -2.7240    0.4050   -0.0520 cc        1 BCK      0.327200
      5 N5         -2.3250    1.6790    0.1740 nd        1 BCK     -0.511800
      6 N1         -0.9820    1.6770    0.2050 na        1 BCK      0.095400
      7 C14        -0.1990    2.8450    0.5250 c3        1 BCK      0.037600
      8 C2         -0.4620    0.3770    0.0230 cd        1 BCK     -0.058300
      9 C6          0.9520    0.0410    0.0120 ca        1 BCK     -0.028000
     10 C11         1.8130    0.5990   -0.9430 ca        1 BCK     -0.113500
     11 C10         3.1610    0.2450   -0.9580 ca        1 BCK     -0.133000
     12 C9          3.6590   -0.6630   -0.0240 ca        1 BCK     -0.121000
     13 C8          2.8050   -1.2210    0.9270 ca        1 BCK     -0.133000
     14 C7          1.4560   -0.8740    0.9480 ca        1 BCK     -0.113500
     15 H1         -2.8450   -3.3620   -0.3900 ho        1 BCK      0.400000
     16 H2         -0.8280   -2.4340    0.2360 h1        1 BCK      0.028200
     17 H3         -1.3020   -2.1080   -1.5000 h1        1 BCK      0.028200
     18 H4         -3.7720    0.1140   -0.1320 h4        1 BCK      0.056100
     19 H5         -0.3200    3.1050    1.6110 h1        1 BCK      0.059033
     20 H6          0.8800    2.6250    0.3120 h1        1 BCK      0.059033
     21 H7         -0.5370    3.7150   -0.0980 h1        1 BCK      0.059033
     22 H8          1.4200    1.3080   -1.6870 ha        1 BCK      0.141000
     23 H9          3.8320    0.6830   -1.7120 ha        1 BCK      0.135500
     24 H10         4.7230   -0.9400   -0.0380 ha        1 BCK      0.135000
     25 H11         3.1960   -1.9380    1.6650 ha        1 BCK      0.135500
     26 H12         0.7810   -1.3130    1.6980 ha        1 BCK      0.141000
@<TRIPOS>BOND
     1    1    2 1   
     2    1   15 1   
     3    2    3 1   
     4    2   16 1   
     5    2   17 1   
     6    3    4 1   
     7    3    8 2   
     8    4    5 2   
     9    4   18 1   
    10    5    6 1   
    11    6    7 1   
    12    6    8 1   
    13    7   19 1   
    14    7   20 1   
    15    7   21 1   
    16    8    9 1   
    17    9   10 ar  
    18    9   14 ar  
    19   10   11 ar  
    20   10   22 1   
    21   11   12 ar  
    22   11   23 1   
    23   12   13 ar  
    24   12   24 1   
    25   13   14 ar  
    26   13   25 1   
    27   14   26 1   
@<TRIPOS>SUBSTRUCTURE
     1 BCK         1 TEMP              0 ****  ****    0 ROOT
