@<TRIPOS>MOLECULE
BCK
   26    27     1     0     0
SMALL
bcc


@<TRIPOS>ATOM
      1 O13        -0.0600   -0.1110    0.0520 oh        1 BCK     -0.596800
      2 C12         1.3370    0.1570   -0.0050 c3        1 BCK      0.215700
      3 C3          1.8870    0.0740    1.3560 cc        1 BCK     -0.247600
      4 C4          1.1470    0.0760    2.5970 cc        1 BCK      0.327200
      5 N5          1.9960    0.0190    3.6510 nd        1 BCK     -0.510800
      6 N1          3.2430   -0.0170    3.1540 na        1 BCK      0.094400
      7 C14         4.4240   -0.0780    3.9790 c3        1 BCK      0.037600
      8 C2          3.2420    0.0110    1.7420 cd        1 BCK     -0.057300
      9 C6          4.4350   -0.0170    0.9140 ca        1 BCK     -0.026000
     10 C11         5.4510    0.9330    1.0910 ca        1 BCK     -0.114000
     11 C10         6.5790    0.9120    0.2730 ca        1 BCK     -0.132000
     12 C9          6.7040   -0.0560   -0.7230 ca        1 BCK     -0.121000
     13 C8          5.6980   -1.0060   -0.9000 ca        1 BCK     -0.132000
     14 C7          4.5670   -0.9900   -0.0860 ca        1 BCK     -0.114000
     15 H1         -0.3890    0.0020   -0.8480 ho        1 BCK      0.400000
     16 H2          1.8360   -0.5950   -0.6790 h1        1 BCK      0.028200
     17 H3          1.5060    1.1870   -0.4290 h1        1 BCK      0.028200
     18 H4          0.0620    0.1080    2.7070 h4        1 BCK      0.056100
     19 H5          4.6320    0.9340    4.4210 h1        1 BCK      0.059367
     20 H6          5.2940   -0.3930    3.3440 h1        1 BCK      0.059367
     21 H7          4.2780   -0.8160    4.8120 h1        1 BCK      0.059367
     22 H8          5.3500    1.7010    1.8730 ha        1 BCK      0.140500
     23 H9          7.3700    1.6630    0.4130 ha        1 BCK      0.135500
     24 H10         7.5950   -0.0710   -1.3680 ha        1 BCK      0.135000
     25 H11         5.7970   -1.7730   -1.6830 ha        1 BCK      0.135500
     26 H12         3.7750   -1.7430   -0.2230 ha        1 BCK      0.140500
@<TRIPOS>BOND
     1    1    2 1   
     2    1   15 1   
     3    2    3 1   
     4    2   16 1   
     5    2   17 1   
     6    3    4 1   
     7    3    8 2   
     8    4    5 2   
     9    4   18 1   
    10    5    6 1   
    11    6    7 1   
    12    6    8 1   
    13    7   19 1   
    14    7   20 1   
    15    7   21 1   
    16    8    9 1   
    17    9   10 ar  
    18    9   14 ar  
    19   10   11 ar  
    20   10   22 1   
    21   11   12 ar  
    22   11   23 1   
    23   12   13 ar  
    24   12   24 1   
    25   13   14 ar  
    26   13   25 1   
    27   14   26 1   
@<TRIPOS>SUBSTRUCTURE
     1 BCK         1 TEMP              0 ****  ****    0 ROOT
