@<TRIPOS>MOLECULE
BCK
   26    27     1     0     0
SMALL
bcc


@<TRIPOS>ATOM
      1 O13        -0.0640   -0.0660    0.0580 oh        1 BCK     -0.596800
      2 C12         1.3360    0.1830   -0.0010 c3        1 BCK      0.216700
      3 C3          1.8880    0.0880    1.3590 cc        1 BCK     -0.247600
      4 C4          1.1500    0.0900    2.6010 cc        1 BCK      0.327200
      5 N5          2.0010    0.0210    3.6530 nd        1 BCK     -0.510800
      6 N1          3.2460   -0.0230    3.1540 na        1 BCK      0.094400
      7 C14         4.4280   -0.0980    3.9780 c3        1 BCK      0.037600
      8 C2          3.2430    0.0120    1.7430 cd        1 BCK     -0.057300
      9 C6          4.4350   -0.0220    0.9130 ca        1 BCK     -0.026000
     10 C11         5.4590    0.9180    1.0940 ca        1 BCK     -0.114000
     11 C10         6.5860    0.8910    0.2740 ca        1 BCK     -0.132000
     12 C9          6.7010   -0.0730   -0.7280 ca        1 BCK     -0.121000
     13 C8          5.6860   -1.0120   -0.9090 ca        1 BCK     -0.132000
     14 C7          4.5560   -0.9900   -0.0930 ca        1 BCK     -0.114000
     15 H1         -0.3930    0.0530   -0.8400 ho        1 BCK      0.400000
     16 H2          1.8240   -0.5730   -0.6780 h1        1 BCK      0.028200
     17 H3          1.5180    1.2120   -0.4220 h1        1 BCK      0.028200
     18 H4          0.0650    0.1320    2.7130 h4        1 BCK      0.056100
     19 H5          4.6460    0.9100    4.4210 h1        1 BCK      0.059033
     20 H6          5.2930   -0.4210    3.3400 h1        1 BCK      0.059033
     21 H7          4.2750   -0.8370    4.8090 h1        1 BCK      0.059033
     22 H8          5.3670    1.6820    1.8810 ha        1 BCK      0.140500
     23 H9          7.3840    1.6340    0.4180 ha        1 BCK      0.135500
     24 H10         7.5910   -0.0920   -1.3730 ha        1 BCK      0.135000
     25 H11         5.7770   -1.7750   -1.6960 ha        1 BCK      0.135500
     26 H12         3.7570   -1.7350   -0.2340 ha        1 BCK      0.140500
@<TRIPOS>BOND
     1    1    2 1   
     2    1   15 1   
     3    2    3 1   
     4    2   16 1   
     5    2   17 1   
     6    3    4 1   
     7    3    8 2   
     8    4    5 2   
     9    4   18 1   
    10    5    6 1   
    11    6    7 1   
    12    6    8 1   
    13    7   19 1   
    14    7   20 1   
    15    7   21 1   
    16    8    9 1   
    17    9   10 ar  
    18    9   14 ar  
    19   10   11 ar  
    20   10   22 1   
    21   11   12 ar  
    22   11   23 1   
    23   12   13 ar  
    24   12   24 1   
    25   13   14 ar  
    26   13   25 1   
    27   14   26 1   
@<TRIPOS>SUBSTRUCTURE
     1 BCK         1 TEMP              0 ****  ****    0 ROOT
