@<TRIPOS>MOLECULE
BCM
   39    40     1     0     0
SMALL
bcc


@<TRIPOS>ATOM
      1 C5A        -0.1350    0.0660   -0.3460 c2        1 BCM     -0.149000
      2 C5          1.1860    0.2080   -0.2040 c2        1 BCM     -0.162400
      3 C6          1.8330    0.0340    1.1670 c3        1 BCM      0.298400
      4 O6          0.8270    0.2600    2.1470 oh        1 BCM     -0.581800
      5 N10         2.9240    0.9620    1.4300 n         1 BCM     -0.574900
      6 C9          4.1970    0.6980    0.9930 c         1 BCM      0.684500
      7 O9          5.1210    1.5180    1.1530 o         1 BCM     -0.646500
      8 C4          2.0710    0.5390   -1.3530 c3        1 BCM     -0.083200
      9 C3          3.0450   -0.5700   -1.7260 c3        1 BCM      0.133400
     10 O2          4.3210   -0.4260   -1.1220 os        1 BCM     -0.414600
     11 C1          4.4630   -0.6790    0.2850 c3        1 BCM      0.243200
     12 N8          3.6130   -1.7110    0.8240 n         1 BCM     -0.552900
     13 C7          2.3410   -1.4430    1.2660 c         1 BCM      0.668500
     14 O7          1.6080   -2.3130    1.7680 o         1 BCM     -0.619500
     15 C1A         5.9990   -0.9970    0.4340 c3        1 BCM      0.170100
     16 O1A         6.3850   -0.8660    1.7870 oh        1 BCM     -0.597800
     17 C2A         6.4360   -2.4140   -0.0220 c3        1 BCM      0.163800
     18 C2B         6.5980   -3.3850    1.1410 c3        1 BCM     -0.113100
     19 O2A         5.4520   -2.9020   -0.9270 oh        1 BCM     -0.608800
     20 C3A         7.7830   -2.2740   -0.7650 c3        1 BCM      0.096400
     21 O3A         8.0860   -3.5570   -1.2920 oh        1 BCM     -0.613800
     22 H5A1       -0.6320    0.1670   -1.3210 ha        1 BCM      0.130000
     23 H5A2       -0.7970   -0.1590    0.5030 ha        1 BCM      0.130000
     24 HO6         0.9460   -0.3820    2.8630 ho        1 BCM      0.437000
     25 H10         2.6920    1.8420    1.8330 hn        1 BCM      0.341500
     26 H41         2.6460    1.4820   -1.1460 hc        1 BCM      0.066700
     27 H42         1.4310    0.7450   -2.2550 hc        1 BCM      0.066700
     28 H31         3.3020   -0.4930   -2.8220 h1        1 BCM      0.063700
     29 H32         2.6100   -1.5830   -1.5310 h1        1 BCM      0.063700
     30 HN8         3.9210   -2.6550    0.7210 hn        1 BCM      0.355500
     31 H1A         6.5140   -0.2220   -0.2040 h1        1 BCM      0.077700
     32 H1O         6.4740    0.0810    1.9730 ho        1 BCM      0.434000
     33 HB1         7.3520   -2.9910    1.8640 hc        1 BCM      0.054700
     34 HB2         6.9450   -4.3720    0.7520 hc        1 BCM      0.054700
     35 HB3         5.6310   -3.5210    1.6790 hc        1 BCM      0.054700
     36 H2O         5.8170   -3.7070   -1.3210 ho        1 BCM      0.429000
     37 HA1         8.5810   -1.9480   -0.0490 h1        1 BCM      0.042700
     38 HA2         7.6860   -1.5310   -1.6010 h1        1 BCM      0.042700
     39 H3O         8.8820   -3.4550   -1.8270 ho        1 BCM      0.412000
@<TRIPOS>BOND
     1    1    2 2   
     2    1   22 1   
     3    1   23 1   
     4    2    3 1   
     5    2    8 1   
     6    3    4 1   
     7    3    5 1   
     8    3   13 1   
     9    4   24 1   
    10    5    6 1   
    11    5   25 1   
    12    6    7 2   
    13    6   11 1   
    14    8    9 1   
    15    8   26 1   
    16    8   27 1   
    17    9   10 1   
    18    9   28 1   
    19    9   29 1   
    20   10   11 1   
    21   11   12 1   
    22   11   15 1   
    23   12   13 1   
    24   12   30 1   
    25   13   14 2   
    26   15   16 1   
    27   15   17 1   
    28   15   31 1   
    29   16   32 1   
    30   17   18 1   
    31   17   19 1   
    32   17   20 1   
    33   18   33 1   
    34   18   34 1   
    35   18   35 1   
    36   19   36 1   
    37   20   21 1   
    38   20   37 1   
    39   20   38 1   
    40   21   39 1   
@<TRIPOS>SUBSTRUCTURE
     1 BCM         1 TEMP              0 ****  ****    0 ROOT
