@<TRIPOS>MOLECULE
BCM
   39    38     1     0     0
SMALL
bcc


@<TRIPOS>ATOM
      1 C5A        -4.2600    0.3940   -0.1850 c1        1 BCM     -0.089500
      2 C5         -2.9170    0.4750   -0.1870 c1        1 BCM     -0.128100
      3 C6         -2.2060    0.4080    1.0190 ce        1 BCM      0.436900
      4 O6         -3.2750    0.3640    2.2510 oh        1 BCM     -0.642600
      5 N10        -1.5270    1.4910    1.1260 n         1 BCM     -0.536500
      6 C9         -0.1700    1.4460    0.8960 c         1 BCM      0.678500
      7 O9          0.4780    2.4750    0.8830 o         1 BCM     -0.644500
      8 C4         -2.1270    0.6130   -1.5590 c3        1 BCM     -0.111300
      9 C3         -0.7840   -0.3850   -1.5320 c3        1 BCM      0.131400
     10 O2          0.4320    0.3880   -0.9390 os        1 BCM     -0.426600
     11 C1          0.3720    0.3400    0.5210 c3        1 BCM      0.238200
     12 N8         -0.1460   -0.6750    0.7940 n         1 BCM     -0.566900
     13 C7         -1.5520   -0.7040    1.0230 c         1 BCM      0.550200
     14 O7         -2.1460   -1.7570    1.0210 o         1 BCM     -0.613500
     15 C1A         1.0680    0.3240    0.7670 c3        1 BCM      0.128100
     16 O1A         1.1400   -0.6590    2.2330 oh        1 BCM     -0.618800
     17 C2A         2.1280   -0.4130   -0.4890 c3        1 BCM      0.125800
     18 C2B         2.8270    0.6070   -1.1790 c3        1 BCM     -0.086100
     19 O2A         1.3400   -1.1350   -1.4010 oh        1 BCM     -0.601800
     20 C3A         3.0610   -1.2950    0.1300 c3        1 BCM      0.107400
     21 O3A         3.9820   -1.7900   -0.8580 oh        1 BCM     -0.599800
     22 H5A1       -4.7420    0.3090    0.6610 DU        1 BCM      0.142000
     23 H5A2       -4.7570    0.4620   -1.0300 ha        1 BCM      0.062500
     24 HO6        -3.0810    1.0110    2.8360 ho        1 BCM      0.438000
     25 H10        -1.9600    2.3030    1.1800 hn        1 BCM      0.343500
     26 H41        -1.8380    1.5540   -1.6810 hc        1 BCM      0.068200
     27 H42        -2.7170    0.3510   -2.3060 hc        1 BCM      0.068200
     28 H31        -0.5710   -0.6760   -2.4520 h1        1 BCM      0.063700
     29 H32        -0.9730   -1.1730   -0.9750 h1        1 BCM      0.063700
     30 HN8         0.3420   -1.4770    0.7620 hn        1 BCM      0.369500
     31 H1A         1.3690    1.2310    0.9630 h1        1 BCM      0.083700
     32 H1O         1.6260   -0.2520    2.8340 ho        1 BCM      0.439000
     33 HB1         3.3260    1.1560   -0.5340 hc        1 BCM      0.053033
     34 HB2         3.4550    0.2000   -1.8190 hc        1 BCM      0.053033
     35 HB3         2.1780    1.1800   -1.6700 hc        1 BCM      0.053033
     36 H2O         1.8800   -1.5500   -2.0060 ho        1 BCM      0.434000
     37 HA1         3.5540   -0.8150    0.8210 h1        1 BCM      0.057700
     38 HA2         2.5760   -2.0550    0.5400 h1        1 BCM      0.057700
     39 H3O         4.6170   -2.2720   -0.4580 ho        1 BCM      0.417000
@<TRIPOS>BOND
     1    1    2 3   
     2    1   23 1   
     3    2    8 1   
     4    3    4 1   
     5    3    5 2   
     6    3   13 1   
     7    4   24 1   
     8    5    6 1   
     9    5   25 1   
    10    6    7 2   
    11    6   11 1   
    12    8    9 1   
    13    8   26 1   
    14    8   27 1   
    15    9   10 1   
    16    9   28 1   
    17    9   29 1   
    18   10   11 1   
    19   11   12 1   
    20   11   15 1   
    21   12   13 1   
    22   12   30 1   
    23   13   14 2   
    24   15   16 1   
    25   15   17 1   
    26   15   31 1   
    27   16   32 1   
    28   17   18 1   
    29   17   19 1   
    30   17   20 1   
    31   18   33 1   
    32   18   34 1   
    33   18   35 1   
    34   19   36 1   
    35   20   21 1   
    36   20   37 1   
    37   20   38 1   
    38   21   39 1   
@<TRIPOS>SUBSTRUCTURE
     1 BCM         1 TEMP              0 ****  ****    0 ROOT
