@<TRIPOS>MOLECULE
BCM
   39    40     1     0     0
SMALL
bcc


@<TRIPOS>ATOM
      1 C5A        -0.1510    0.0230   -0.3050 c2        1 BCM     -0.149000
      2 C5          1.1710    0.1780   -0.1860 c2        1 BCM     -0.162400
      3 C6          1.8410    0.0400    1.1790 c3        1 BCM      0.298400
      4 O6          0.8480    0.2810    2.1690 oh        1 BCM     -0.581800
      5 N10         2.9280    0.9820    1.4030 n         1 BCM     -0.574900
      6 C9          4.1960    0.7180    0.9530 c         1 BCM      0.684500
      7 O9          5.1160    1.5480    1.0790 o         1 BCM     -0.646500
      8 C4          2.0360    0.4880   -1.3570 c3        1 BCM     -0.083200
      9 C3          3.0130   -0.6210   -1.7190 c3        1 BCM      0.133400
     10 O2          4.2960   -0.4540   -1.1380 os        1 BCM     -0.414600
     11 C1          4.4620   -0.6730    0.2720 c3        1 BCM      0.243200
     12 N8          3.6290   -1.6990    0.8480 n         1 BCM     -0.552900
     13 C7          2.3610   -1.4310    1.3030 c         1 BCM      0.668500
     14 O7          1.6430   -2.2940    1.8360 o         1 BCM     -0.619500
     15 C1A         6.0030   -0.9760    0.4050 c3        1 BCM      0.170100
     16 O1A         6.4080   -0.8120    1.7470 oh        1 BCM     -0.597800
     17 C2A         6.4440   -2.4000   -0.0260 c3        1 BCM      0.163800
     18 C2B         6.6310   -3.3420    1.1570 c3        1 BCM     -0.113100
     19 O2A         5.4500   -2.9160   -0.9040 oh        1 BCM     -0.608800
     20 C3A         7.7780   -2.2670   -0.7930 c3        1 BCM      0.096400
     21 O3A         8.0830   -3.5590   -1.2960 oh        1 BCM     -0.613800
     22 H5A1       -0.7980   -0.1860    0.5600 ha        1 BCM      0.130000
     23 H5A2       -0.6630    0.0990   -1.2740 ha        1 BCM      0.130000
     24 HO6         0.9840   -0.3440    2.8970 ho        1 BCM      0.437000
     25 H10         2.6960    1.8690    1.7890 hn        1 BCM      0.341500
     26 H41         2.6070    1.4400   -1.1800 hc        1 BCM      0.066700
     27 H42         1.3810    0.6690   -2.2530 hc        1 BCM      0.066700
     28 H31         2.5890   -1.6330   -1.4930 h1        1 BCM      0.063700
     29 H32         3.2520   -0.5670   -2.8200 h1        1 BCM      0.063700
     30 HN8         3.9420   -2.6430    0.7610 hn        1 BCM      0.355500
     31 H1A         6.5020   -0.2130   -0.2600 h1        1 BCM      0.077700
     32 H1O         6.4930    0.1400    1.9110 ho        1 BCM      0.434000
     33 HB1         7.3930   -2.9260    1.8580 hc        1 BCM      0.054700
     34 HB2         5.6740   -3.4740    1.7120 hc        1 BCM      0.054700
     35 HB3         6.9800   -4.3360    0.7840 hc        1 BCM      0.054700
     36 H2O         5.8150   -3.7270   -1.2860 ho        1 BCM      0.429000
     37 HA1         8.5850   -1.9190   -0.0980 h1        1 BCM      0.042700
     38 HA2         7.6630   -1.5440   -1.6450 h1        1 BCM      0.042700
     39 H3O         8.8690   -3.4640   -1.8460 ho        1 BCM      0.412000
@<TRIPOS>BOND
     1    1    2 2   
     2    1   22 1   
     3    1   23 1   
     4    2    3 1   
     5    2    8 1   
     6    3    4 1   
     7    3    5 1   
     8    3   13 1   
     9    4   24 1   
    10    5    6 1   
    11    5   25 1   
    12    6    7 2   
    13    6   11 1   
    14    8    9 1   
    15    8   26 1   
    16    8   27 1   
    17    9   10 1   
    18    9   28 1   
    19    9   29 1   
    20   10   11 1   
    21   11   12 1   
    22   11   15 1   
    23   12   13 1   
    24   12   30 1   
    25   13   14 2   
    26   15   16 1   
    27   15   17 1   
    28   15   31 1   
    29   16   32 1   
    30   17   18 1   
    31   17   19 1   
    32   17   20 1   
    33   18   33 1   
    34   18   34 1   
    35   18   35 1   
    36   19   36 1   
    37   20   21 1   
    38   20   37 1   
    39   20   38 1   
    40   21   39 1   
@<TRIPOS>SUBSTRUCTURE
     1 BCM         1 TEMP              0 ****  ****    0 ROOT
