@<TRIPOS>MOLECULE
BCM
   39    40     1     0     0
SMALL
bcc


@<TRIPOS>ATOM
      1 C5A        -0.1210    0.0910   -0.3030 c2        1 BCM     -0.149000
      2 C5          1.2020    0.2240   -0.1660 c2        1 BCM     -0.162400
      3 C6          1.8550    0.0360    1.2010 c3        1 BCM      0.298400
      4 O6          0.8540    0.2630    2.1870 oh        1 BCM     -0.581800
      5 N10         2.9530    0.9550    1.4640 ns        1 BCM     -0.574900
      6 C9          4.2220    0.6850    1.0190 c         1 BCM      0.684500
      7 O9          5.1520    1.4980    1.1790 o         1 BCM     -0.646500
      8 C4          2.0830    0.5560   -1.3180 c3        1 BCM     -0.083200
      9 C3          3.0480   -0.5560   -1.7030 c3        1 BCM      0.133400
     10 O2          4.3270   -0.4260   -1.1050 os        1 BCM     -0.414600
     11 C1          4.4740   -0.6880    0.3000 c3        1 BCM      0.243200
     12 N8          3.6200   -1.7190    0.8370 ns        1 BCM     -0.552900
     13 C7          2.3530   -1.4450    1.2870 c         1 BCM      0.668500
     14 O7          1.6160   -2.3130    1.7870 o         1 BCM     -0.619500
     15 C1A         6.0090   -1.0180    0.4400 c3        1 BCM      0.170100
     16 O1A         6.4030   -0.8990    1.7910 oh        1 BCM     -0.597800
     17 C2A         6.4340   -2.4350   -0.0280 c3        1 BCM      0.163800
     18 C2B         6.5950   -3.4140    1.1280 c3        1 BCM     -0.113100
     19 O2A         5.4420   -2.9100   -0.9320 oh        1 BCM     -0.608800
     20 C3A         7.7790   -2.3000   -0.7770 c3        1 BCM      0.096400
     21 O3A         8.0700   -3.5810   -1.3140 oh        1 BCM     -0.613800
     22 H5A1       -0.7800   -0.1340    0.5490 ha        1 BCM      0.130000
     23 H5A2       -0.6220    0.2030   -1.2740 ha        1 BCM      0.130000
     24 HO6         0.9740   -0.3850    2.8980 ho        1 BCM      0.437000
     25 H10         2.7300    1.8340    1.8730 hn        1 BCM      0.341500
     26 H41         1.4400    0.7720   -2.2150 hc        1 BCM      0.066700
     27 H42         2.6660    1.4940   -1.1070 hc        1 BCM      0.066700
     28 H31         3.2990   -0.4740   -2.8000 h1        1 BCM      0.063700
     29 H32         2.6070   -1.5680   -1.5120 h1        1 BCM      0.063700
     30 HN8         3.9210   -2.6640    0.7260 hn        1 BCM      0.355500
     31 H1A         6.5260   -0.2430   -0.1970 h1        1 BCM      0.077700
     32 H1O         6.5000    0.0460    1.9820 ho        1 BCM      0.434000
     33 HB1         6.9330   -4.4020    0.7300 hc        1 BCM      0.054700
     34 HB2         7.3550   -3.0300    1.8500 hc        1 BCM      0.054700
     35 HB3         5.6300   -3.5480    1.6690 hc        1 BCM      0.054700
     36 H2O         5.8000   -3.7150   -1.3330 ho        1 BCM      0.429000
     37 HA1         8.5820   -1.9830   -0.0630 h1        1 BCM      0.042700
     38 HA2         7.6830   -1.5510   -1.6080 h1        1 BCM      0.042700
     39 H3O         8.8640   -3.4810   -1.8520 ho        1 BCM      0.412000
@<TRIPOS>BOND
     1    1    2 2   
     2    1   22 1   
     3    1   23 1   
     4    2    3 1   
     5    2    8 1   
     6    3    4 1   
     7    3    5 1   
     8    3   13 1   
     9    4   24 1   
    10    5    6 1   
    11    5   25 1   
    12    6    7 2   
    13    6   11 1   
    14    8    9 1   
    15    8   26 1   
    16    8   27 1   
    17    9   10 1   
    18    9   28 1   
    19    9   29 1   
    20   10   11 1   
    21   11   12 1   
    22   11   15 1   
    23   12   13 1   
    24   12   30 1   
    25   13   14 2   
    26   15   16 1   
    27   15   17 1   
    28   15   31 1   
    29   16   32 1   
    30   17   18 1   
    31   17   19 1   
    32   17   20 1   
    33   18   33 1   
    34   18   34 1   
    35   18   35 1   
    36   19   36 1   
    37   20   21 1   
    38   20   37 1   
    39   20   38 1   
    40   21   39 1   
@<TRIPOS>SUBSTRUCTURE
     1 BCM         1 TEMP              0 ****  ****    0 ROOT
