@<TRIPOS>MOLECULE
BCM
   39    40     1     0     0
SMALL
bcc


@<TRIPOS>ATOM
      1 C5A        -4.0350    1.3960   -0.9120 c2        1 BCM     -0.141000
      2 C5         -2.9300    1.0710   -0.2340 c2        1 BCM     -0.174400
      3 C6         -2.6050   -0.3940    0.0480 c3        1 BCM      0.295400
      4 O6         -3.8230   -1.1220   -0.0370 oh        1 BCM     -0.574800
      5 N10        -2.0200   -0.6350    1.3600 n         1 BCM     -0.578900
      6 C9         -0.7030   -0.2890    1.5910 c         1 BCM      0.686500
      7 O9         -0.2510   -0.1790    2.7400 o         1 BCM     -0.588500
      8 C4         -1.9880    2.1060    0.2750 c3        1 BCM     -0.082200
      9 C3         -0.6430    2.1200   -0.4350 c3        1 BCM      0.128400
     10 O2          0.3730    1.3770    0.2270 os        1 BCM     -0.439600
     11 C1          0.2170   -0.0480    0.3450 c3        1 BCM      0.216200
     12 N8         -0.2740   -0.6940   -0.8500 n         1 BCM     -0.573900
     13 C7         -1.6230   -0.8770   -1.0680 c         1 BCM      0.669500
     14 O7         -2.0600   -1.4410   -2.0840 o         1 BCM     -0.606500
     15 C1A         1.6570   -0.5560    0.7310 c3        1 BCM      0.131100
     16 O1A         1.5880   -1.8840    1.1890 oh        1 BCM     -0.565800
     17 C2A         2.7130   -0.3730   -0.3880 c3        1 BCM      0.084800
     18 C2B         3.0630   -1.6810   -1.0890 c3        1 BCM     -0.096100
     19 O2A         2.2600    0.4980   -1.4190 oh        1 BCM     -0.615800
     20 C3A         3.9870    0.2350    0.2390 c3        1 BCM      0.106400
     21 O3A         4.9800    0.4790   -0.7330 oh        1 BCM     -0.591800
     22 H5A1       -4.7470    0.6390   -1.2730 ha        1 BCM      0.132000
     23 H5A2       -4.2940    2.4390   -1.1430 ha        1 BCM      0.132000
     24 HO6        -3.6270   -2.0030   -0.3890 ho        1 BCM      0.436000
     25 H10        -2.6500   -0.7190    2.1260 hn        1 BCM      0.337500
     26 H41        -2.4550    3.1200    0.1290 hc        1 BCM      0.071200
     27 H42        -1.8250    1.9900    1.3810 hc        1 BCM      0.071200
     28 H31        -0.7410    1.7900   -1.5020 h1        1 BCM      0.063200
     29 H32        -0.2140    3.1630   -0.4120 h1        1 BCM      0.063200
     30 HN8         0.3670   -0.7700   -1.6130 hn        1 BCM      0.350500
     31 H1A         1.9550    0.0350    1.6500 h1        1 BCM      0.122700
     32 H1O         1.2930   -2.4460    0.4600 ho        1 BCM      0.409000
     33 HB1         3.8630   -1.4850   -1.8450 hc        1 BCM      0.057700
     34 HB2         3.4440   -2.4170   -0.3410 hc        1 BCM      0.057700
     35 HB3         2.1730   -2.1020   -1.6120 hc        1 BCM      0.057700
     36 H2O         2.0710    1.3560   -1.0140 ho        1 BCM      0.423000
     37 HA1         3.7270    1.1940    0.7630 h1        1 BCM      0.058200
     38 HA2         4.4490   -0.4860    0.9640 h1        1 BCM      0.058200
     39 H3O         4.5490    0.9160   -1.4810 ho        1 BCM      0.410000
@<TRIPOS>BOND
     1    1    2 2   
     2    1   22 1   
     3    1   23 1   
     4    2    3 1   
     5    2    8 1   
     6    3    4 1   
     7    3    5 1   
     8    3   13 1   
     9    4   24 1   
    10    5    6 1   
    11    5   25 1   
    12    6    7 2   
    13    6   11 1   
    14    8    9 1   
    15    8   26 1   
    16    8   27 1   
    17    9   10 1   
    18    9   28 1   
    19    9   29 1   
    20   10   11 1   
    21   11   12 1   
    22   11   15 1   
    23   12   13 1   
    24   12   30 1   
    25   13   14 2   
    26   15   16 1   
    27   15   17 1   
    28   15   31 1   
    29   16   32 1   
    30   17   18 1   
    31   17   19 1   
    32   17   20 1   
    33   18   33 1   
    34   18   34 1   
    35   18   35 1   
    36   19   36 1   
    37   20   21 1   
    38   20   37 1   
    39   20   38 1   
    40   21   39 1   
@<TRIPOS>SUBSTRUCTURE
     1 BCM         1 TEMP              0 ****  ****    0 ROOT
