@<TRIPOS>MOLECULE
BCN
   23    22     1     0     0
SMALL
bcc


@<TRIPOS>ATOM
      1 N1          0.0400    0.2130   -0.2010 n3        1 BCN     -0.745600
      2 C1          1.4760    0.1540    0.0110 c3        1 BCN      0.042800
      3 C2          1.8170   -0.5010    1.3800 c         1 BCN      0.920600
      4 O21         2.0980    0.2770    2.3350 o         1 BCN     -0.843300
      5 O22         1.8120   -1.7620    1.4540 o         1 BCN     -0.843300
      6 C3         -0.4880    1.5570   -0.3220 c3        1 BCN      0.161300
      7 C4         -0.5980    2.2850    1.0300 c3        1 BCN      0.148900
      8 O4          0.6420    2.7690    1.4870 oh        1 BCN     -0.642300
      9 C5         -0.4650   -0.7050   -1.2000 c3        1 BCN      0.161300
     10 C6         -0.1070   -2.1770   -0.9350 c3        1 BCN      0.148900
     11 O6         -0.6870   -2.6580    0.2540 oh        1 BCN     -0.642300
     12 H11         1.9850   -0.4390   -0.8000 h1        1 BCN      0.023200
     13 H12         1.9240    1.1880   -0.0030 h1        1 BCN      0.023200
     14 H31        -1.5280    1.5080   -0.7550 h1        1 BCN      0.009200
     15 H32         0.1360    2.1980   -1.0120 h1        1 BCN      0.009200
     16 H41        -1.2300    3.2030    0.8820 h1        1 BCN      0.031200
     17 H42        -1.0760    1.6230    1.7990 h1        1 BCN      0.031200
     18 HO4         1.1560    2.0060    1.8190 ho        1 BCN      0.462500
     19 H51        -1.5890   -0.6220   -1.2080 h1        1 BCN      0.009200
     20 H52        -0.0960   -0.4490   -2.2390 h1        1 BCN      0.009200
     21 H61        -0.5540   -2.7990   -1.7580 h1        1 BCN      0.031200
     22 H62         1.0060   -2.3200   -0.9100 h1        1 BCN      0.031200
     23 HO6        -0.1360   -2.3220    0.9850 ho        1 BCN      0.462500
@<TRIPOS>BOND
     1    1    2 1   
     2    1    6 1   
     3    1    9 1   
     4    2    3 1   
     5    2   12 1   
     6    2   13 1   
     7    3    4 1   
     8    3    5 1   
     9    6    7 1   
    10    6   14 1   
    11    6   15 1   
    12    7    8 1   
    13    7   16 1   
    14    7   17 1   
    15    8   18 1   
    16    9   10 1   
    17    9   19 1   
    18    9   20 1   
    19   10   11 1   
    20   10   21 1   
    21   10   22 1   
    22   11   23 1   
@<TRIPOS>SUBSTRUCTURE
     1 BCN         1 TEMP              0 ****  ****    0 ROOT
