@<TRIPOS>MOLECULE
BCN
   23    22     1     0     0
SMALL
bcc


@<TRIPOS>ATOM
      1 N1          0.2900   -0.0400   -0.0780 n3        1 BCN     -0.754600
      2 C1          1.7450   -0.0830   -0.0390 c3        1 BCN      0.054800
      3 C2          2.2050   -0.0600    1.3890 c         1 BCN      0.885600
      4 O21         2.8840   -1.0140    1.8450 o         1 BCN     -0.847800
      5 O22         1.9330    0.9280    2.1250 o         1 BCN     -0.847800
      6 C3         -0.2250   -1.3670   -0.1960 c3        1 BCN      0.157300
      7 C4         -1.3310   -1.5860    0.8720 c3        1 BCN      0.110400
      8 O4         -1.6550   -2.9250    0.9260 oh        1 BCN     -0.647800
      9 C5         -0.1340    0.7410   -1.1780 c3        1 BCN      0.157300
     10 C6         -0.5740    2.1640   -0.6690 c3        1 BCN      0.110400
     11 O6         -1.1690    2.8940   -1.7460 oh        1 BCN     -0.647800
     12 H11         2.0600   -0.9000   -0.4690 h1        1 BCN      0.036700
     13 H12         2.1040    0.6880   -0.5080 h1        1 BCN      0.036700
     14 H31        -0.6090   -1.4980   -1.1070 h1        1 BCN      0.033950
     15 H32         0.5070   -2.0180   -0.0500 h1        1 BCN      0.033950
     16 H41        -2.1270   -1.0660    0.6320 h1        1 BCN      0.038950
     17 H42        -1.0060   -1.2970    1.7390 h1        1 BCN      0.038950
     18 HO4        -2.1160   -3.0890    1.6670 ho        1 BCN      0.451500
     19 H51        -0.9210    0.2890   -1.6360 h1        1 BCN      0.033950
     20 H52         0.6000    0.8320   -1.8100 h1        1 BCN      0.033950
     21 H61         0.2330    2.6650   -0.3270 h1        1 BCN      0.038950
     22 H62        -1.2340    2.0610    0.0650 h1        1 BCN      0.038950
     23 HO6        -1.4580    3.6820   -1.4460 ho        1 BCN      0.451500
@<TRIPOS>BOND
     1    1    2 1   
     2    1    6 1   
     3    1    9 1   
     4    2    3 1   
     5    2   12 1   
     6    2   13 1   
     7    3    4 1   
     8    3    5 1   
     9    6    7 1   
    10    6   14 1   
    11    6   15 1   
    12    7    8 1   
    13    7   16 1   
    14    7   17 1   
    15    8   18 1   
    16    9   10 1   
    17    9   19 1   
    18    9   20 1   
    19   10   11 1   
    20   10   21 1   
    21   10   22 1   
    22   11   23 1   
@<TRIPOS>SUBSTRUCTURE
     1 BCN         1 TEMP              0 ****  ****    0 ROOT
