@<TRIPOS>MOLECULE
BCN
   23    22     1     0     0
SMALL
bcc


@<TRIPOS>ATOM
      1 N1         -0.6370    0.3390   -0.5380 n3        1 BCN     -0.745600
      2 C1          0.3870    0.9220    0.3140 c3        1 BCN      0.042800
      3 C2          1.4600   -0.1320    0.7060 c         1 BCN      0.920600
      4 O21         1.3570   -0.6600    1.8490 o         1 BCN     -0.843300
      5 O22         2.3780   -0.3840   -0.1250 o         1 BCN     -0.843300
      6 C3         -1.9680    0.3580    0.0340 c3        1 BCN      0.161300
      7 C4         -2.1730   -0.7170    1.1170 c3        1 BCN      0.148900
      8 O4         -1.5940   -0.3620    2.3490 oh        1 BCN     -0.642300
      9 C5         -0.5890    0.7630   -1.9210 c3        1 BCN      0.161300
     10 C6          0.7650    0.5150   -2.6060 c3        1 BCN      0.148900
     11 O6          1.0750   -0.8560   -2.6870 oh        1 BCN     -0.642300
     12 H11         0.9050    1.7810   -0.1980 h1        1 BCN      0.023200
     13 H12        -0.0680    1.3270    1.2620 h1        1 BCN      0.023200
     14 H31        -2.7220    0.1550   -0.7790 h1        1 BCN      0.009200
     15 H32        -2.2210    1.3610    0.4880 h1        1 BCN      0.009200
     16 H41        -1.7890   -1.7110    0.7670 h1        1 BCN      0.031200
     17 H42        -3.2750   -0.7950    1.3270 h1        1 BCN      0.031200
     18 HO4        -0.6260   -0.4770    2.2680 ho        1 BCN      0.462500
     19 H51        -1.3710    0.1810   -2.4870 h1        1 BCN      0.009200
     20 H52        -0.8300    1.8630   -2.0380 h1        1 BCN      0.009200
     21 H61         0.6880    0.8670   -3.6700 h1        1 BCN      0.031200
     22 H62         1.5880    1.0680   -2.0780 h1        1 BCN      0.031200
     23 HO6         1.3960   -1.1190   -1.8050 ho        1 BCN      0.462500
@<TRIPOS>BOND
     1    1    2 1   
     2    1    6 1   
     3    1    9 1   
     4    2    3 1   
     5    2   12 1   
     6    2   13 1   
     7    3    4 1   
     8    3    5 1   
     9    6    7 1   
    10    6   14 1   
    11    6   15 1   
    12    7    8 1   
    13    7   16 1   
    14    7   17 1   
    15    8   18 1   
    16    9   10 1   
    17    9   19 1   
    18    9   20 1   
    19   10   11 1   
    20   10   21 1   
    21   10   22 1   
    22   11   23 1   
@<TRIPOS>SUBSTRUCTURE
     1 BCN         1 TEMP              0 ****  ****    0 ROOT
