@<TRIPOS>MOLECULE
BCP
   13    14     1     0     0
SMALL
bcc


@<TRIPOS>ATOM
      1 CL         -2.4630   -0.0000   -2.0590 cl        1 BCP     -0.128000
      2 C6         -1.0210   -0.0000   -1.1530 ca        1 BCP      0.539300
      3 N1         -1.0640   -0.0000    0.1900 nb        1 BCP     -0.653000
      4 C2          0.1370   -0.0000    0.8620 ca        1 BCP      0.689200
      5 BR         -0.0000   -0.0000    2.7570 br        1 BCP     -0.085200
      6 C5          0.2200   -0.0000   -1.8260 ca        1 BCP     -0.312800
      7 C4          1.4460   -0.0000   -1.0090 ca        1 BCP      0.561300
      8 N3          1.3930   -0.0000    0.3520 nb        1 BCP     -0.595000
      9 N7          0.6330   -0.0000   -3.1520 na        1 BCP     -0.256300
     10 C8          2.0380    0.0000   -3.1210 cc        1 BCP      0.447700
     11 N9          2.5640    0.0000   -1.8830 nd        1 BCP     -0.613700
     12 H7          0.0470   -0.0000   -3.9450 hn        1 BCP      0.323700
     13 H8          2.6320    0.0000   -4.0460 h5        1 BCP      0.082800
@<TRIPOS>BOND
     1    1    2 1   
     2    2    3 ar  
     3    2    6 ar  
     4    3    4 ar  
     5    4    5 1   
     6    4    8 ar  
     7    6    7 ar  
     8    6    9 1   
     9    7    8 ar  
    10    7   11 1   
    11    9   10 1   
    12    9   12 1   
    13   10   11 2   
    14   10   13 1   
@<TRIPOS>SUBSTRUCTURE
     1 BCP         1 TEMP              0 ****  ****    0 ROOT
