@<TRIPOS>MOLECULE
BCP
   13     8     1     0     0
SMALL
bcc


@<TRIPOS>ATOM
      1 CL         -3.1390    0.0110    0.2630 cl        1 BCP      0.038000
      2 C6         -1.3950    0.0110    0.2630 c2        1 BCP      0.045000
      3 N1         -1.3590    0.0110    1.6050 n2        1 BCP     -0.127000
      4 C2         -0.1600    0.0110    2.2570 c1        1 BCP     -0.068000
      5 BR         -0.3390   -0.1350    4.1550 br        1 BCP      0.146000
      6 C5         -0.2130    0.0110   -0.4610 c1        1 BCP     -0.137000
      7 C4          0.9710    0.0110    0.1840 c1        1 BCP      0.014000
      8 N3          1.0040    0.0110    1.5470 n2        1 BCP     -0.069000
      9 N7          0.0370    0.0110   -1.7980 n1        1 BCP     -0.160000
     10 C8          1.3780    0.0110   -1.9720 c1        1 BCP     -0.008000
     11 N9          1.9590    0.0110   -0.7520 n1        1 BCP     -0.160000
     12 H7         -0.5890    0.0110   -2.4610 DU        1 BCP      0.243000
     13 H8          1.8450    0.0110   -2.8290 DU        1 BCP      0.243000
@<TRIPOS>BOND
     1    1    2 1   
     2    2    3 1   
     3    2    6 1   
     4    3    4 1   
     5    4    8 1   
     6    7    8 1   
     7    9   10 1   
     8   10   11 1   
@<TRIPOS>SUBSTRUCTURE
     1 BCP         1 TEMP              0 ****  ****    0 ROOT
