@<TRIPOS>MOLECULE
BCQ
   89    82     1     0     0
SMALL
bcc


@<TRIPOS>ATOM
      1 N3        108.0830  -87.3540   58.4160 n2        1 BCQ     -0.305000
      2 O6        109.5090  -90.1780   59.7090 o         1 BCQ      0.062000
      3 C2        110.9570  -92.7260   61.5330 c3        1 BCQ     -0.283000
      4 C3        109.8940  -89.3850   58.9600 c1        1 BCQ      0.526000
      5 C4        109.4820  -87.0640   58.2710 c3        1 BCQ     -0.078000
      6 C5        110.2870  -88.3540   58.0370 c3        1 BCQ     -0.136000
      7 C1        107.1760  -86.4510   58.3040 c2        1 BCQ      0.111000
      8 O1        107.4990  -85.1340   58.0020 os        1 BCQ     -0.201000
      9 N         113.3440  -90.3380   60.9610 n3        1 BCQ     -0.335000
     10 CA        113.4560  -88.9820   61.3870 c2        1 BCQ     -0.105000
     11 C         112.1440  -88.2670   61.6200 c2        1 BCQ      0.360000
     12 C03       114.6270  -88.3290   61.4910 c2        1 BCQ     -0.174000
     13 S04       113.1430  -90.6320   58.5930 ss        1 BCQ      1.595000
     14 C12       107.7510  -82.7380   59.3600 c2        1 BCQ     -0.152000
     15 C16       105.4560  -80.0390   59.3980 c1        1 BCQ     -0.067000
     16 C13       106.5180  -83.0770   58.6460 c2        1 BCQ      0.021000
     17 C18       105.2550  -79.1970   60.2200 c1        1 BCQ     -0.194000
     18 C17       106.4090  -84.2620   57.9810 c2        1 BCQ     -0.132000
     19 N14       105.3850  -82.1990   58.7120 n3        1 BCQ     -0.108000
     20 O15       105.7210  -80.9060   58.4060 os        1 BCQ     -0.048000
     21 O05       111.6890  -90.7080   58.6590 o         1 BCQ     -0.829000
     22 O06       113.3970  -89.2840   58.1890 o         1 BCQ     -0.829000
     23 N2        112.0570  -87.4480   62.7100 n         1 BCQ     -0.338000
     24 CA2       110.8740  -86.6850   63.0220 c3        1 BCQ     -0.036000
     25 CB2       110.8940  -85.2300   62.5600 c3        1 BCQ     -0.182000
     26 CG2       111.8430  -82.9660   62.9130 c2        1 BCQ     -0.118000
     27 CD1       110.8380  -82.1560   63.7110 c3        1 BCQ     -0.106000
     28 CD2       112.6340  -82.4190   61.9550 c2        1 BCQ     -0.128000
     29 CE1       110.4310  -80.9460   62.9140 c2        1 BCQ     -0.137000
     30 CE2       112.6250  -80.9530   61.8300 c2        1 BCQ     -0.098000
     31 CZ        111.4530  -80.4650   62.2240 c1        1 BCQ     -0.139000
     32 CB8       111.9370  -84.4030   63.2850 c3        1 BCQ     -0.123000
     33 CT       -386.0400  309.9390 -221.3590 c2        1 BCQ     -0.260000
     34 C4A      -388.6850  307.3310 -219.6060 c2        1 BCQ     -0.974000
     35 C1A      -392.1800  307.0630 -219.4330 c1        1 BCQ     -0.098000
     36 C2A      -391.0920  307.5200 -219.2330 c1        1 BCQ     -0.257000
     37 C3A      -389.8180  308.1040 -218.9460 c3        1 BCQ      0.031000
     38 C5A      -388.1750  306.3170 -218.9170 c1        1 BCQ      0.123000
     39 C6A      -387.7240  305.3400 -218.2060 c2        1 BCQ     -0.133000
     40 S1       -388.2760  307.7630 -221.0650 s4        1 BCQ      2.086800
     41 O1A      -388.9720  308.7630 -221.6620 o         1 BCQ     -0.418900
     42 O2       -387.4740  306.9200 -221.7640 o         1 BCQ     -0.418900
     43 H21       110.7640  -92.1100   60.6250 hc        1 BCQ      0.071500
     44 H22       110.7860  -92.1150   62.4460 hc        1 BCQ      0.071500
     45 H31       112.0050  -93.0980   61.5220 hc        1 BCQ      0.071500
     46 H32       110.2620  -93.5940   61.5400 hc        1 BCQ      0.071500
     47 H41       109.8730  -86.5680   59.2090 h1        1 BCQ      0.124000
     48 H42       110.1390  -88.7470   56.9890 hc        1 BCQ      0.197000
     49 H51       111.3950  -88.1500   58.1890 hc        1 BCQ      0.197000
     50 H52       109.7060  -86.3770   57.4030 h1        1 BCQ      0.124000
     51 HN        106.1070  -86.7060   58.4400 h5        1 BCQ      0.192000
     52 HA        112.4790  -90.7490   61.2790 hn        1 BCQ      0.202500
     53 H031      114.6790  -87.2600   61.7420 ha        1 BCQ      0.147000
     54 H032      115.6000  -88.8070   61.3070 ha        1 BCQ      0.147000
     55 H091      108.7940  -81.7320   60.9190 ha        1 BCQ      0.131500
     56 H092      106.9680  -81.4150   60.8590 ha        1 BCQ      0.131500
     57 H16       108.6480  -83.2320   58.9480 ha        1 BCQ      0.139000
     58 H181      107.5980  -82.3790   63.6660 ha        1 BCQ      0.000500
     59 H182      107.6080  -82.1480   63.0290 ha        1 BCQ      0.000500
     60 H183      105.0770  -78.4280   60.9260 ha        1 BCQ      0.247000
     61 H171      105.5520  -84.5990   57.3840 h4        1 BCQ      0.153000
     62 H172      106.8300  -79.5590   62.3020 ha        1 BCQ      0.000500
     63 H173      107.2300  -79.9130   62.7200 ha        1 BCQ      0.000500
     64 HN14      104.6870  -82.4700   58.0200 hn        1 BCQ      0.186000
     65 HN2       112.8810  -87.2430   63.2290 hn        1 BCQ      0.240000
     66 HA2       110.7470  -86.7130   64.1440 h1        1 BCQ      0.111500
     67 HB21      111.0690  -85.1750   61.4530 hc        1 BCQ      0.100000
     68 HB22      109.8740  -84.8030   62.7590 hc        1 BCQ      0.100000
     69 HD1       111.2880  -81.9060   64.7080 hc        1 BCQ      0.112500
     70 HD2       113.3530  -82.9990   61.3650 ha        1 BCQ      0.135000
     71 HE1       109.9140  -82.7680   63.8920 hc        1 BCQ      0.112500
     72 HE2       109.3830  -80.6380   62.8700 ha        1 BCQ      0.158000
     73 HZ        113.5330  -80.4060   61.5670 ha        1 BCQ      0.166000
     74 HB81      111.7950  -84.5080   64.3960 hc        1 BCQ      0.085500
     75 HB82      112.9630  -84.7920   63.0430 hc        1 BCQ      0.085500
     76 H7A1     -386.4690  310.9250 -221.6110 ha        1 BCQ      0.156500
     77 H7A2     -385.9520  308.2940 -220.0200 ha        1 BCQ      0.156500
     78 HT1       109.9860  -87.1980   62.5520 h1        1 BCQ      0.111500
     79 HT2      -387.2140  309.6170 -219.6170 ha        1 BCQ      0.156500
     80 H1A      -386.8900  305.4520 -217.4860 ha        1 BCQ      0.220500
     81 H2A      -389.6540  308.1300 -217.8310 hc        1 BCQ      0.132000
     82 H3A      -389.7970  309.1740 -219.3080 hc        1 BCQ      0.132000
     83 H5A      -388.1370  304.3130 -218.2800 ha        1 BCQ      0.220500
     84 H6A      -393.1500  306.6630 -219.6140 ha        1 BCQ      0.247000
     85 O         111.1650  -88.4710   60.8590 o         1 BCQ     -0.459000
     86 C7A      -386.5320  309.1700 -220.3670 c2        1 BCQ     -0.260000
     87 C09       107.8330  -81.9350   60.4210 c2        1 BCQ     -0.164000
     88 H2        114.1260  -90.8810   61.2820 hn        1 BCQ      0.202500
     89 H221     -385.2040  309.6100 -222.0020 ha        1 BCQ      0.156500
@<TRIPOS>BOND
     1    1    5 1   
     2    1    7 1   
     3    2    4 1   
     4    3   43 1   
     5    3   44 1   
     6    3   45 1   
     7    3   46 1   
     8    4    6 1   
     9    5    6 1   
    10    5   47 1   
    11    5   50 1   
    12    6   48 1   
    13    6   49 1   
    14    7    8 1   
    15    7   51 1   
    16    8   18 1   
    17    9   10 1   
    18    9   52 1   
    19    9   88 1   
    20   10   11 1   
    21   10   12 1   
    22   11   23 1   
    23   11   85 1   
    24   12   53 1   
    25   12   54 1   
    26   13   21 1   
    27   13   22 1   
    28   14   16 1   
    29   14   57 1   
    30   14   87 1   
    31   15   17 1   
    32   15   20 1   
    33   16   18 1   
    34   16   19 1   
    35   17   60 1   
    36   18   61 1   
    37   19   20 1   
    38   19   64 1   
    39   23   24 1   
    40   23   65 1   
    41   24   25 1   
    42   24   66 1   
    43   24   78 1   
    44   25   32 1   
    45   25   67 1   
    46   25   68 1   
    47   26   27 1   
    48   26   28 1   
    49   26   32 1   
    50   27   29 1   
    51   27   69 1   
    52   27   71 1   
    53   28   30 1   
    54   28   70 1   
    55   29   31 1   
    56   29   72 1   
    57   30   31 1   
    58   30   73 1   
    59   32   74 1   
    60   32   75 1   
    61   33   76 1   
    62   33   86 1   
    63   33   89 1   
    64   34   37 1   
    65   34   38 1   
    66   34   40 1   
    67   35   36 1   
    68   35   84 1   
    69   36   37 1   
    70   37   81 1   
    71   37   82 1   
    72   38   39 1   
    73   39   80 1   
    74   39   83 1   
    75   40   41 1   
    76   40   42 1   
    77   55   87 1   
    78   56   87 1   
    79   58   59 1   
    80   62   63 1   
    81   77   86 1   
    82   79   86 1   
@<TRIPOS>SUBSTRUCTURE
     1 BCQ         1 TEMP              0 ****  ****    0 ROOT
