@<TRIPOS>MOLECULE
BCQ
   87    90     1     0     0
SMALL
bcc


@<TRIPOS>ATOM
      1 N3         -0.2030   -3.2540   -1.3520 n         1 BCQ     -0.420800
      2 O6         -2.0680   -2.8930   -3.4890 os        1 BCQ     -0.409600
      3 C2         -1.6190   -3.1270   -1.0890 c3        1 BCQ      0.056000
      4 C3         -2.3650   -2.3680   -2.2000 c3        1 BCQ      0.098900
      5 C4          0.1180   -3.6630   -2.7080 c3        1 BCQ      0.056000
      6 C5         -0.6720   -2.8810   -3.7670 c3        1 BCQ      0.098900
      7 C1          0.8000   -2.7600   -0.5380 c         1 BCQ      0.741100
      8 O1          2.0050   -2.8360   -0.8950 o         1 BCQ     -0.672100
      9 N           0.4730   -2.2540    0.7890 n         1 BCQ     -0.511900
     10 CA          0.5720   -0.8160    0.9590 c3        1 BCQ      0.055700
     11 C          -0.5990   -0.1070    0.2310 c         1 BCQ      0.661100
     12 C03         1.8670   -0.1430    0.4910 c3        1 BCQ     -0.360600
     13 S04         3.2600   -0.5480    1.4190 s6        1 BCQ      1.309000
     14 C12         5.5920   -1.5010    0.6600 c2        1 BCQ     -0.229400
     15 C16         6.7510   -0.6440    1.1210 c3        1 BCQ      0.170300
     16 C13         5.9770   -2.8090    0.7430 c2        1 BCQ      0.062800
     17 C18         7.3400    0.2390    0.0490 c3        1 BCQ     -0.100100
     18 C17         5.2170   -4.0230    0.3880 c3        1 BCQ     -0.061900
     19 N14         7.3510   -2.9020    1.1950 nh        1 BCQ     -0.417500
     20 O15         7.7670   -1.6420    1.5120 os        1 BCQ     -0.241100
     21 O05         2.9420   -1.6570    2.2230 o         1 BCQ     -0.654800
     22 O06         3.6880    0.6150    2.0770 o         1 BCQ     -0.654800
     23 N2         -1.6940    0.2170    0.9910 n         1 BCQ     -0.555900
     24 CA2        -2.8520    0.8900    0.4430 c3        1 BCQ      0.104700
     25 CB2        -4.1680    0.3620    1.0400 c3        1 BCQ     -0.092400
     26 CG2        -5.7530   -1.5480    1.1170 ca        1 BCQ     -0.087300
     27 CD1        -6.8370   -1.1680    0.3150 ca        1 BCQ     -0.126500
     28 CD2        -5.9810   -2.3480    2.2430 ca        1 BCQ     -0.126500
     29 CE1        -8.1280   -1.5810    0.6360 ca        1 BCQ     -0.126000
     30 CE2        -7.2750   -2.7600    2.5620 ca        1 BCQ     -0.126000
     31 CZ         -8.3500   -2.3770    1.7600 ca        1 BCQ     -0.128000
     32 CB8        -4.3740   -1.1140    0.7650 c3        1 BCQ     -0.036100
     33 CT         -2.8240    2.4160    0.6430 c3        1 BCQ     -0.070400
     34 C4A        -0.3770    5.1030   -0.9570 ca        1 BCQ     -0.391500
     35 C1A         2.0250    5.7460   -2.2590 ca        1 BCQ     -0.063000
     36 C2A         0.9160    5.3400   -3.0010 ca        1 BCQ     -0.155000
     37 C3A        -0.2750    5.0230   -2.3520 ca        1 BCQ     -0.016500
     38 C5A         0.7440    5.5210   -0.2270 ca        1 BCQ     -0.016500
     39 C6A         1.9380    5.8390   -0.8690 ca        1 BCQ     -0.155000
     40 S1         -1.8150    4.7470   -0.1820 sy        1 BCQ      1.386300
     41 O1A        -2.9030    4.9680   -1.0410 o         1 BCQ     -0.655800
     42 O2         -1.8530    5.3600    1.0790 o         1 BCQ     -0.655800
     43 H21        -2.0380   -4.1720   -1.0200 h1        1 BCQ      0.072450
     44 H22        -1.8150   -2.6020   -0.1150 h1        1 BCQ      0.072450
     45 H31        -3.4710   -2.5200   -2.0870 h1        1 BCQ      0.064450
     46 H32        -2.1120   -1.2740   -2.1660 h1        1 BCQ      0.064450
     47 H41         1.2200   -3.5360   -2.9040 h1        1 BCQ      0.072450
     48 H42        -0.1400   -4.7570   -2.7950 h1        1 BCQ      0.072450
     49 H51        -0.5810   -3.3870   -4.7630 h1        1 BCQ      0.064450
     50 H52        -0.3110   -1.8210   -3.8350 h1        1 BCQ      0.064450
     51 HN          1.0690   -2.7210    1.4590 hn        1 BCQ      0.314500
     52 HA          0.4870   -0.6430    2.0780 h1        1 BCQ      0.082700
     53 H031        1.6990    0.9690    0.5330 h1        1 BCQ      0.137200
     54 H032        1.9860   -0.3690   -0.6060 h1        1 BCQ      0.137200
     55 H091        4.5780   -0.0370   -0.4690 h1        1 BCQ      0.137700
     56 H092        3.8760   -1.6850   -0.5630 h1        1 BCQ      0.137700
     57 H16         6.5130   -0.0620    2.0510 h1        1 BCQ      0.078700
     58 H181        7.5600   -0.3510   -0.8720 hc        1 BCQ      0.049367
     59 H182        6.6230    1.0580   -0.1990 hc        1 BCQ      0.049367
     60 H183        8.2940    0.6890    0.4170 hc        1 BCQ      0.049367
     61 H171        5.7920   -4.6440   -0.3450 hc        1 BCQ      0.067700
     62 H172        5.0240   -4.6410    1.3020 hc        1 BCQ      0.067700
     63 H173        4.2320   -3.7480   -0.0690 hc        1 BCQ      0.067700
     64 HN14        7.3940   -3.4600    2.0480 hn        1 BCQ      0.371800
     65 HN2        -1.7070   -0.0010    1.9580 hn        1 BCQ      0.318500
     66 HA2        -2.8570    0.6890   -0.6730 h1        1 BCQ      0.081700
     67 HB21       -4.1950    0.5510    2.1450 hc        1 BCQ      0.059200
     68 HB22       -5.0080    0.9470    0.5790 hc        1 BCQ      0.059200
     69 HD1        -6.6640   -0.5420   -0.5730 ha        1 BCQ      0.131000
     70 HD2        -5.1380   -2.6540    2.8780 ha        1 BCQ      0.131000
     71 HE1        -8.9740   -1.2780    0.0010 ha        1 BCQ      0.133500
     72 HE2        -7.4460   -3.3880    3.4490 ha        1 BCQ      0.133500
     73 HZ         -9.3690   -2.7020    2.0130 ha        1 BCQ      0.133000
     74 HB81       -4.1860   -1.3200   -0.3260 hc        1 BCQ      0.048200
     75 HB82       -3.6250   -1.7180    1.3450 hc        1 BCQ      0.048200
     76 H7A1       -0.7130    2.8430    0.6720 h1        1 BCQ      0.118200
     77 H7A2       -1.3850    2.5450   -0.9500 h1        1 BCQ      0.118200
     78 HT1        -3.7500    2.8310    0.1580 hc        1 BCQ      0.066200
     79 HT2        -2.8700    2.6600    1.7370 hc        1 BCQ      0.066200
     80 H1A         2.9680    5.9970   -2.7700 ha        1 BCQ      0.139000
     81 H2A         0.9790    5.2730   -4.0980 ha        1 BCQ      0.144500
     82 H3A        -1.1590    4.7170   -2.9400 ha        1 BCQ      0.156000
     83 H5A         0.6680    5.6130    0.8720 ha        1 BCQ      0.156000
     84 H6A         2.8080    6.1670   -0.2810 ha        1 BCQ      0.144500
     85 O          -0.5310    0.1480   -0.9880 o         1 BCQ     -0.620100
     86 C7A        -1.6050    3.0590    0.0270 c3        1 BCQ     -0.315600
     87 C09         4.3400   -0.9440    0.1550 c3        1 BCQ     -0.228400
@<TRIPOS>BOND
     1    1    3 1   
     2    1    5 1   
     3    1    7 1   
     4    2    4 1   
     5    2    6 1   
     6    3    4 1   
     7    3   43 1   
     8    3   44 1   
     9    4   45 1   
    10    4   46 1   
    11    5    6 1   
    12    5   47 1   
    13    5   48 1   
    14    6   49 1   
    15    6   50 1   
    16    7    8 2   
    17    7    9 1   
    18    9   10 1   
    19    9   51 1   
    20   10   11 1   
    21   10   12 1   
    22   10   52 1   
    23   11   23 1   
    24   11   85 2   
    25   12   13 1   
    26   12   53 1   
    27   12   54 1   
    28   13   21 2   
    29   13   22 2   
    30   13   87 1   
    31   14   15 1   
    32   14   16 2   
    33   14   87 1   
    34   15   17 1   
    35   15   20 1   
    36   15   57 1   
    37   16   18 1   
    38   16   19 1   
    39   17   58 1   
    40   17   59 1   
    41   17   60 1   
    42   18   61 1   
    43   18   62 1   
    44   18   63 1   
    45   19   20 1   
    46   19   64 1   
    47   23   24 1   
    48   23   65 1   
    49   24   25 1   
    50   24   33 1   
    51   24   66 1   
    52   25   32 1   
    53   25   67 1   
    54   25   68 1   
    55   26   27 ar  
    56   26   28 ar  
    57   26   32 1   
    58   27   29 ar  
    59   27   69 1   
    60   28   30 ar  
    61   28   70 1   
    62   29   31 ar  
    63   29   71 1   
    64   30   31 ar  
    65   30   72 1   
    66   31   73 1   
    67   32   74 1   
    68   32   75 1   
    69   33   78 1   
    70   33   79 1   
    71   33   86 1   
    72   34   37 ar  
    73   34   38 ar  
    74   34   40 1   
    75   35   36 ar  
    76   35   39 ar  
    77   35   80 1   
    78   36   37 ar  
    79   36   81 1   
    80   37   82 1   
    81   38   39 ar  
    82   38   83 1   
    83   39   84 1   
    84   40   41 2   
    85   40   42 2   
    86   40   86 1   
    87   55   87 1   
    88   56   87 1   
    89   76   86 1   
    90   77   86 1   
@<TRIPOS>SUBSTRUCTURE
     1 BCQ         1 TEMP              0 ****  ****    0 ROOT
