@<TRIPOS>MOLECULE
BCQ
   89    84     1     0     0
SMALL
bcc


@<TRIPOS>ATOM
      1 N3          0.3160    0.9410    0.7630 n3        1 BCQ     -0.166000
      2 O6          1.9660    0.5360    8.0420 o         1 BCQ     -0.149000
      3 C2          1.5730    2.3300    3.7950 c3        1 BCQ     -0.081000
      4 C3          1.8590    1.0030    6.9780 c1        1 BCQ      0.154000
      5 C4         -0.0400   -0.3970    1.0610 c2        1 BCQ     -0.114000
      6 C5         -0.6020   -1.2290    0.1740 c2        1 BCQ     -0.184000
      7 C1          0.8270    1.8090    1.6240 c2        1 BCQ      0.071000
      8 O1          1.0140    1.3620    2.8850 os        1 BCQ     -0.205000
      9 N          -1.3950    1.7580   -4.1800 n2        1 BCQ     -0.291000
     10 CA         -2.2130    2.2060   -3.3030 c2        1 BCQ      0.032000
     11 C          -1.7900    3.0850   -2.1280 c2        1 BCQ      0.298000
     12 C03        -3.6780    1.9000   -3.3010 c3        1 BCQ     -0.223000
     13 S04        -1.7810   -0.1940   -6.1710 s6        1 BCQ      2.858000
     14 C12        -1.1950   -1.5400   -8.4390 c2        1 BCQ     -0.034000
     15 C16        -2.2270   -2.9220  -12.4760 c2        1 BCQ     -0.549000
     16 C13        -1.4450   -2.3260   -9.7000 c3        1 BCQ     -0.150000
     17 C18        -2.7080   -3.1390  -13.7190 c1        1 BCQ      0.569000
     18 C17        -1.5230   -3.8200   -9.3310 c3        1 BCQ     -0.218000
     19 N14        -2.6230   -1.8500  -10.4110 n2        1 BCQ      0.245000
     20 O15        -2.9130   -2.1030  -11.5430 os        1 BCQ      0.208000
     21 O05        -2.7450   -0.6110   -5.2560 o         1 BCQ     -0.913000
     22 O06        -0.4190   -0.3560   -5.9110 o         1 BCQ     -0.913000
     23 N2         -2.3600    4.3220   -2.0400 n         1 BCQ     -0.355000
     24 CA2        -2.1010    5.2330   -0.9410 c3        1 BCQ      0.034000
     25 CB2        -0.6790    5.8240   -1.0070 c3        1 BCQ     -0.186000
     26 CG2         1.1950    6.7790    0.3600 c3        1 BCQ     -0.028000
     27 CD1         1.4990    7.9030    1.3560 c3        1 BCQ     -0.049000
     28 CD2         1.9340    5.5420    0.7590 c2        1 BCQ     -0.322000
     29 CE1         2.8990    8.1810    1.4630 c1        1 BCQ     -0.223000
     30 CE2         1.5110    4.3450    0.9960 c1        1 BCQ      0.078000
     31 CZ          4.0590    8.4550    1.5730 c1        1 BCQ     -0.153000
     32 CB8        -0.3090    6.5590    0.2630 c3        1 BCQ     -0.175000
     33 CT         -3.1300    6.3750   -0.8840 c3        1 BCQ     -0.142000
     34 C4A        -7.0510    5.7140   -1.5210 cx        1 BCQ     -0.723000
     35 C1A        -8.9410    5.5230   -3.4010 c2        1 BCQ     -0.110000
     36 C2A        -8.2360    5.9600   -2.3870 cu        1 BCQ     -0.125000
     37 C3A        -8.0090    6.9020   -1.3110 cx        1 BCQ     -0.079000
     38 C5A        -7.1250    4.6250   -0.5470 c2        1 BCQ     -0.478000
     39 C6A        -7.3550    3.3430   -0.7520 c1        1 BCQ      0.265000
     40 S1         -5.4930    5.9940   -2.1340 s6        1 BCQ      2.820000
     41 O1A        -5.3860    7.2800   -2.6730 o         1 BCQ     -0.937000
     42 O2         -5.0770    4.9350   -2.9690 o         1 BCQ     -0.937000
     43 H21        -0.6740    3.8560    2.2240 ha        1 BCQ      0.001750
     44 H22        -1.3150    4.0690    2.2920 ha        1 BCQ      0.001750
     45 H31         1.5910    1.7750    4.7730 h1        1 BCQ      0.117000
     46 H32         2.6030    2.6030    3.4650 h1        1 BCQ      0.117000
     47 H41         0.1300    1.2690   -0.1740 hn        1 BCQ      0.296000
     48 H42        -0.8510   -2.2590    0.4650 ha        1 BCQ      0.147000
     49 H51        -0.8460   -0.9580   -0.8630 ha        1 BCQ      0.147000
     50 H52         0.1920   -0.7020    2.1020 h4        1 BCQ      0.181000
     51 HN          0.9100    3.2260    3.8460 h1        1 BCQ      0.117000
     52 HA          1.1340    2.9850    1.3030 h5        1 BCQ      0.350000
     53 H031       -3.9830    1.5710   -2.2760 hc        1 BCQ      0.126333
     54 H032       -3.9360    1.0840   -4.0250 hc        1 BCQ      0.126333
     55 H091       -2.0290    0.9080   -6.6320 hs        1 BCQ     -0.461000
     56 H092       -3.1950   -1.0790   -7.8770 h4        1 BCQ      0.184000
     57 H16        -0.1130   -1.4800   -8.1930 ha        1 BCQ      0.189000
     58 H181       -4.9900    0.4440   -6.0980 ha        1 BCQ      0.001750
     59 H182       -4.5420    0.4340   -6.6070 ha        1 BCQ      0.001750
     60 H183       -1.2670   -3.3880  -12.1720 h4        1 BCQ      0.234000
     61 H171       -0.5620   -4.0950   -8.8250 hc        1 BCQ      0.130667
     62 H172       -2.3650   -4.0100   -8.6210 hc        1 BCQ      0.130667
     63 H173       -1.6490   -4.4540  -10.2410 hc        1 BCQ      0.130667
     64 HN14       -0.5460   -2.1810  -10.3910 h1        1 BCQ      0.172000
     65 HN2        -4.2570    2.8230   -3.5690 hc        1 BCQ      0.126333
     66 HA2        -2.1760    4.6330    0.0200 h1        1 BCQ      0.098000
     67 HB21        0.0500    4.9820   -1.1700 hc        1 BCQ      0.101000
     68 HB22       -0.5980    6.5190   -1.8830 hc        1 BCQ      0.101000
     69 HD1         1.0860    7.6320    2.3670 hc        1 BCQ      0.118500
     70 HD2         1.5870    7.0820   -0.6560 hc        1 BCQ      0.133000
     71 HE1         0.9620    8.8340    1.0130 hc        1 BCQ      0.118500
     72 HE2         3.0370    5.7320    0.8720 ha        1 BCQ      0.250000
     73 HZ          5.0870    8.7090    1.6710 ha        1 BCQ      0.239000
     74 HB81       -0.8150    7.5620    0.2770 hc        1 BCQ      0.100000
     75 HB82       -0.6690    5.9930    1.1640 hc        1 BCQ      0.100000
     76 H7A1       -2.8410    7.0280   -0.0170 hc        1 BCQ      0.114000
     77 H7A2       -5.0250    6.5460    0.1080 h1        1 BCQ      0.157500
     78 HT1        -3.0510    7.0110   -1.8080 hc        1 BCQ      0.114000
     79 HT2        -4.5620    4.8700   -0.2730 h1        1 BCQ      0.157500
     80 H1A        -8.6750    4.6160   -3.9630 ha        1 BCQ      0.146000
     81 H2A        -8.6670    6.8860   -0.4200 hc        1 BCQ      0.148500
     82 H3A        -7.6210    7.9160   -1.5430 hc        1 BCQ      0.148500
     83 H5A        -7.0420    4.9430    0.5180 ha        1 BCQ      0.200000
     84 H6A        -9.8420    6.0540   -3.7480 ha        1 BCQ      0.146000
     85 O          -0.9420    2.6690   -1.3010 o         1 BCQ     -0.450000
     86 C7A        -4.5570    5.9100   -0.6920 c3        1 BCQ     -0.849000
     87 C09        -2.1160   -1.0030   -7.6460 c2        1 BCQ     -0.823000
     88 H2         -0.4350    2.0140   -4.0800 hn        1 BCQ      0.175000
     89 H221       -3.0280    4.5940   -2.7310 hn        1 BCQ      0.269000
@<TRIPOS>BOND
     1    1    5 1   
     2    1    7 1   
     3    1   47 1   
     4    2    4 1   
     5    3    8 1   
     6    3   45 1   
     7    3   46 1   
     8    3   51 1   
     9    5    6 1   
    10    5   50 1   
    11    6   48 1   
    12    6   49 1   
    13    7    8 1   
    14    7   52 1   
    15    9   10 1   
    16    9   88 1   
    17   10   11 1   
    18   10   12 1   
    19   11   23 1   
    20   11   85 1   
    21   12   53 1   
    22   12   54 1   
    23   12   65 1   
    24   13   21 1   
    25   13   22 1   
    26   13   55 1   
    27   13   87 1   
    28   14   16 1   
    29   14   57 1   
    30   14   87 1   
    31   15   17 1   
    32   15   20 1   
    33   15   60 1   
    34   16   18 1   
    35   16   19 1   
    36   16   64 1   
    37   18   61 1   
    38   18   62 1   
    39   18   63 1   
    40   19   20 1   
    41   23   24 1   
    42   23   89 1   
    43   24   25 1   
    44   24   33 1   
    45   24   66 1   
    46   25   32 1   
    47   25   67 1   
    48   25   68 1   
    49   26   27 1   
    50   26   28 1   
    51   26   32 1   
    52   26   70 1   
    53   27   29 1   
    54   27   69 1   
    55   27   71 1   
    56   28   30 1   
    57   28   72 1   
    58   29   31 1   
    59   31   73 1   
    60   32   74 1   
    61   32   75 1   
    62   33   76 1   
    63   33   78 1   
    64   33   86 1   
    65   34   36 1   
    66   34   37 1   
    67   34   38 1   
    68   34   40 1   
    69   35   36 1   
    70   35   80 1   
    71   35   84 1   
    72   36   37 1   
    73   37   81 1   
    74   37   82 1   
    75   38   39 1   
    76   38   83 1   
    77   40   41 1   
    78   40   42 1   
    79   40   86 1   
    80   43   44 1   
    81   56   87 1   
    82   58   59 1   
    83   77   86 1   
    84   79   86 1   
@<TRIPOS>SUBSTRUCTURE
     1 BCQ         1 TEMP              0 ****  ****    0 ROOT
