@<TRIPOS>MOLECULE
BCQ
   87    83     1     0     0
SMALL
bcc


@<TRIPOS>ATOM
      1 N3          3.0740   -0.5560    4.5500 n         1 BCQ     -0.275000
      2 O6          4.1860   -0.0250    7.1150 os        1 BCQ     -0.269000
      3 C2          4.1030   -1.3790    5.0670 c3        1 BCQ     -0.086500
      4 C3          4.1530   -1.3540    6.5990 c3        1 BCQ     -0.054500
      5 C4          3.0950    0.7520    5.0430 c3        1 BCQ     -0.086500
      6 C5          3.1370    0.7940    6.5820 c3        1 BCQ     -0.054500
      7 C1          2.0920   -1.0220    3.5990 c2        1 BCQ      0.380000
      8 O1          2.1250   -2.2010    3.1960 o         1 BCQ     -0.415000
      9 N           1.0360   -0.0810    3.0910 n         1 BCQ     -0.383000
     10 CA          0.2770   -0.4150    1.9160 c3        1 BCQ      0.052000
     11 O           1.4640    1.3970    0.9800 o         1 BCQ     -0.384000
     12 C           0.5720    0.5800    0.8290 c2        1 BCQ      0.273000
     13 C03        -1.2070   -0.3810    2.2500 c3        1 BCQ     -0.872000
     14 C09        -3.4610   -2.0370    3.3330 c3        1 BCQ     -0.759000
     15 S04        -1.6460   -1.8670    3.2180 s6        1 BCQ      2.802000
     16 C12        -3.8120   -3.0000    4.4750 c2        1 BCQ     -0.223000
     17 C16        -3.9260   -4.2880    4.2390 c3        1 BCQ      0.053000
     18 C13        -4.6000   -2.5490    5.5630 c1        1 BCQ     -0.026000
     19 C18        -4.0240   -4.5340    2.7300 c3        1 BCQ     -0.224000
     20 C17        -3.9440   -1.7230    6.7070 c2        1 BCQ     -0.186000
     21 N14        -5.5740   -3.2660    5.7990 n3        1 BCQ     -0.070000
     22 O15        -5.2470   -4.6070    5.0490 os        1 BCQ     -0.218000
     23 O05        -1.0260   -1.8360    4.5520 o         1 BCQ     -0.925500
     24 O06        -1.0470   -3.0460    2.6610 o         1 BCQ     -0.925500
     25 N2         -0.1260    0.4870   -0.4600 n         1 BCQ     -0.360000
     26 CA2         0.4680    1.0250   -1.6310 c3        1 BCQ      0.031000
     27 CB2         0.5890   -0.0680   -2.6890 c3        1 BCQ     -0.183000
     28 CG2         0.8260   -0.2980   -5.2130 c1        1 BCQ     -0.075000
     29 CD1         1.4160   -1.5150   -5.5200 c1        1 BCQ     -0.113625
     30 CD2        -0.1130    0.2450   -6.0640 c1        1 BCQ     -0.122000
     31 CE1         1.0640   -2.1820   -6.6760 c1        1 BCQ     -0.113625
     32 CE2        -0.4670   -0.4270   -7.2260 c1        1 BCQ     -0.113625
     33 CZ          0.1220   -1.6390   -7.5300 c1        1 BCQ     -0.113625
     34 CB8         1.2830    0.5030   -3.9240 c3        1 BCQ     -0.123000
     35 C7A         0.4960    3.2320   -2.7500 c3        1 BCQ     -0.848000
     36 CT         -0.3910    2.1500   -2.1650 c3        1 BCQ     -0.141000
     37 C4A         0.6160    4.2440   -5.6110 c1        1 BCQ     -0.833000
     38 C1A         1.9290    4.4080   -8.0610 c1        1 BCQ     -0.113625
     39 C2A         1.6990    3.1690   -7.4760 c1        1 BCQ     -0.113625
     40 C3A         1.0430    3.0870   -6.2510 c1        1 BCQ     -0.113625
     41 C5A         0.8460    5.4860   -6.1950 c1        1 BCQ     -0.018000
     42 C6A         1.5040    5.5670   -7.4230 c1        1 BCQ     -0.113625
     43 S1         -0.4230    4.1210   -4.0980 s6        1 BCQ      2.841000
     44 O1A        -1.6570    3.4950   -4.3760 o         1 BCQ     -0.935000
     45 O2         -0.8500    5.3780   -3.6730 o         1 BCQ     -0.935000
     46 H21         5.0160   -1.0470    4.6950 h1        1 BCQ      0.116750
     47 H22         3.9540   -2.2920    4.7710 h1        1 BCQ      0.116750
     48 H31         4.9480   -1.8250    6.8940 h1        1 BCQ      0.102500
     49 H32         3.3450   -1.8220    6.9590 h1        1 BCQ      0.102500
     50 H41         3.8940    1.2120    4.6890 h1        1 BCQ      0.116750
     51 H42         2.2970    1.2200    4.7330 h1        1 BCQ      0.116750
     52 H51         2.2510    0.4720    6.9440 h1        1 BCQ      0.102500
     53 H52         3.2840    1.7450    6.8770 h1        1 BCQ      0.102500
     54 HN          0.8360    0.6980    3.5700 hn        1 BCQ      0.245000
     55 HA          0.5250   -1.3210    1.6090 h1        1 BCQ      0.148000
     56 H031       -1.7420   -0.3650    1.3960 h1        1 BCQ      0.173000
     57 H032       -1.4120    0.4520    2.7940 h1        1 BCQ      0.173000
     58 H091       -3.8660   -1.1480    3.5140 h1        1 BCQ      0.155500
     59 H092       -3.8280   -2.4050    2.4490 h1        1 BCQ      0.155500
     60 H16        -3.1730   -4.8920    4.4950 h1        1 BCQ      0.133000
     61 H181       -4.0140   -5.4960    2.5560 hc        1 BCQ      0.087333
     62 H182       -4.8600   -4.1470    2.3880 hc        1 BCQ      0.087333
     63 H183       -3.2390   -4.1020    2.2660 hc        1 BCQ      0.087333
     64 H171       -3.9450   -0.7830    6.4700 ha        1 BCQ      0.107333
     65 H172       -3.0130   -2.0290    6.8400 ha        1 BCQ      0.107333
     66 H173       -4.4470   -1.8500    7.5270 ha        1 BCQ      0.107333
     67 HN14       -6.3960   -2.9820    6.0470 hn        1 BCQ      0.164000
     68 HN2        -0.9480    0.0090   -0.5220 hn        1 BCQ      0.259000
     69 HA2         1.3270    1.3580   -1.4240 h1        1 BCQ      0.102000
     70 HB21       -0.2930   -0.3830   -2.9310 hc        1 BCQ      0.108500
     71 HB22        1.1120   -0.8070   -2.3330 hc        1 BCQ      0.108500
     72 HD1         2.0660   -1.8920   -4.9330 ha        1 BCQ      0.137500
     73 HD2        -0.5290    1.1000   -5.8490 ha        1 BCQ      0.145000
     74 HE1         1.4990   -3.0770   -6.8980 ha        1 BCQ      0.137500
     75 HE2        -1.1340   -0.0410   -7.8300 ha        1 BCQ      0.137500
     76 HZ         -0.1210   -2.1000   -8.3280 ha        1 BCQ      0.137500
     77 HB81        1.0450    1.4320   -4.0230 hc        1 BCQ      0.091500
     78 HB82        2.2560    0.4250   -3.8170 hc        1 BCQ      0.091500
     79 H7A1        0.7420    3.8690   -2.0430 h1        1 BCQ      0.153500
     80 H7A2        1.3210    2.8190   -3.1260 h1        1 BCQ      0.153500
     81 HT1        -0.9310    2.5280   -1.4320 hc        1 BCQ      0.107000
     82 HT2        -0.9790    1.8060   -2.8560 hc        1 BCQ      0.107000
     83 H1A         2.3920    4.4650   -8.9220 ha        1 BCQ      0.137500
     84 H2A         1.9920    2.3710   -7.9140 ha        1 BCQ      0.137500
     85 H3A         0.8850    2.2370   -5.8520 ha        1 BCQ      0.137500
     86 H5A         0.5410    6.3150   -5.7380 ha        1 BCQ      0.155000
     87 H6A         1.6660    6.4490   -7.8390 ha        1 BCQ      0.137500
@<TRIPOS>BOND
     1    1    3 1   
     2    1    5 1   
     3    1    7 1   
     4    2    4 1   
     5    2    6 1   
     6    3    4 1   
     7    3   46 1   
     8    3   47 1   
     9    4   48 1   
    10    4   49 1   
    11    5    6 1   
    12    5   50 1   
    13    5   51 1   
    14    6   52 1   
    15    6   53 1   
    16    7    8 1   
    17    7    9 1   
    18    9   10 1   
    19    9   54 1   
    20   10   12 1   
    21   10   13 1   
    22   10   55 1   
    23   11   12 1   
    24   12   25 1   
    25   13   15 1   
    26   13   56 1   
    27   13   57 1   
    28   14   15 1   
    29   14   16 1   
    30   14   58 1   
    31   14   59 1   
    32   15   23 1   
    33   15   24 1   
    34   16   17 1   
    35   16   18 1   
    36   17   19 1   
    37   17   22 1   
    38   17   60 1   
    39   18   21 1   
    40   19   61 1   
    41   19   62 1   
    42   19   63 1   
    43   20   64 1   
    44   20   65 1   
    45   20   66 1   
    46   21   22 1   
    47   21   67 1   
    48   25   26 1   
    49   25   68 1   
    50   26   27 1   
    51   26   36 1   
    52   26   69 1   
    53   27   34 1   
    54   27   70 1   
    55   27   71 1   
    56   28   30 1   
    57   28   34 1   
    58   29   31 1   
    59   29   72 1   
    60   30   73 1   
    61   31   74 1   
    62   32   33 1   
    63   32   75 1   
    64   33   76 1   
    65   34   77 1   
    66   34   78 1   
    67   35   36 1   
    68   35   43 1   
    69   35   79 1   
    70   35   80 1   
    71   36   81 1   
    72   36   82 1   
    73   37   41 1   
    74   37   43 1   
    75   38   42 1   
    76   38   83 1   
    77   39   40 1   
    78   39   84 1   
    79   40   85 1   
    80   41   86 1   
    81   42   87 1   
    82   43   44 1   
    83   43   45 1   
@<TRIPOS>SUBSTRUCTURE
     1 BCQ         1 TEMP              0 ****  ****    0 ROOT
