@<TRIPOS>MOLECULE
BCR
   96    97     1     0     0
SMALL
bcc


@<TRIPOS>ATOM
      1 C1         -2.0010    3.2720    2.0860 c3        1 BCR     -0.004800
      2 C2         -1.3340    4.5590    2.5810 c3        1 BCR     -0.070400
      3 C3         -2.1850    5.7820    2.3290 c3        1 BCR     -0.075400
      4 C4         -3.5100    5.6600    3.0480 c3        1 BCR     -0.043200
      5 C5         -4.1440    4.3220    2.8750 c2        1 BCR     -0.092900
      6 C6         -3.4730    3.2390    2.4310 ce        1 BCR     -0.087700
      7 C7         -4.0920    1.9190    2.3200 ce        1 BCR     -0.106500
      8 C8         -5.0940    1.5170    1.5290 cf        1 BCR     -0.138500
      9 C9         -5.8460    2.2940    0.5510 cf        1 BCR     -0.057200
     10 C10        -7.1930    2.3730    0.5800 ce        1 BCR     -0.147500
     11 C11        -8.0250    1.7660    1.5940 ce        1 BCR     -0.118000
     12 C33        -5.5710    4.2940    3.2840 c3        1 BCR     -0.064900
     13 C31        -1.2750    2.0980    2.7410 c3        1 BCR     -0.085850
     14 C32        -1.8260    3.1600    0.5740 c3        1 BCR     -0.085850
     15 C34        -5.0660    2.9650   -0.5170 c3        1 BCR     -0.062900
     16 C12        -9.3660    1.7400    1.5770 cf        1 BCR     -0.133000
     17 C13       -10.2260    2.2710    0.5240 cf        1 BCR     -0.070700
     18 C14       -11.0540    3.3190    0.7170 ce        1 BCR     -0.136000
     19 C15       -11.1560    4.0500    1.9580 ce        1 BCR     -0.123000
     20 C16       -11.9440    5.1160    2.1890 cf        1 BCR     -0.123000
     21 C17       -12.8340    5.7360    1.2390 cf        1 BCR     -0.136000
     22 C18       -13.6160    6.8040    1.5080 ce        1 BCR     -0.070700
     23 C19       -13.6750    7.4250    2.8230 ce        1 BCR     -0.133000
     24 C20       -13.5370    8.7330    3.0920 cf        1 BCR     -0.118000
     25 C21       -13.2460    9.7580    2.1150 cf        1 BCR     -0.147500
     26 C22       -13.3360   11.0830    2.3520 ce        1 BCR     -0.057200
     27 C23       -13.7170   11.6170    3.6550 ce        1 BCR     -0.138500
     28 C24       -14.7810   12.3660    3.9660 cf        1 BCR     -0.106500
     29 C25       -15.8500   12.8560    3.0960 cf        1 BCR     -0.087700
     30 C26       -16.7200   12.0320    2.4780 c2        1 BCR     -0.092900
     31 C27       -17.8500   12.5210    1.6360 c3        1 BCR     -0.043200
     32 C28       -17.7020   13.9720    1.2340 c3        1 BCR     -0.075400
     33 C29       -17.2880   14.8080    2.4210 c3        1 BCR     -0.070400
     34 C30       -15.9460   14.3630    3.0100 c3        1 BCR     -0.004800
     35 C35       -10.1840    1.5510   -0.7740 c3        1 BCR     -0.060900
     36 C36       -14.4970    7.3650    0.4500 c3        1 BCR     -0.060900
     37 C37       -13.0110   12.0740    1.2970 c3        1 BCR     -0.062900
     38 C38       -16.6840   10.5530    2.6030 c3        1 BCR     -0.064900
     39 C39       -15.8270   14.9830    4.4010 c3        1 BCR     -0.085850
     40 C40       -14.8100   14.9000    2.1450 c3        1 BCR     -0.085850
     41 HC21       -0.3420    4.6750    2.0710 hc        1 BCR      0.041700
     42 HC22       -1.1390    4.4690    3.6830 hc        1 BCR      0.041700
     43 HC31       -1.6460    6.6980    2.6850 hc        1 BCR      0.041450
     44 HC32       -2.3610    5.9050    1.2280 hc        1 BCR      0.041450
     45 HC41       -4.2110    6.4550    2.6780 hc        1 BCR      0.047950
     46 HC42       -3.3600    5.8380    4.1480 hc        1 BCR      0.047950
     47 HC7        -3.6420    1.1720    3.0050 ha        1 BCR      0.124000
     48 HC8        -5.4270    0.4630    1.6020 ha        1 BCR      0.124500
     49 H10C       -7.7250    2.9460   -0.2010 ha        1 BCR      0.131000
     50 H11C       -7.4890    1.3090    2.4480 ha        1 BCR      0.123500
     51 H331       -5.6570    4.5640    4.3660 hc        1 BCR      0.045367
     52 H332       -6.0340    3.2880    3.1280 hc        1 BCR      0.045367
     53 H333       -6.1550    5.0410    2.6900 hc        1 BCR      0.045367
     54 H311       -1.5580    1.1360    2.2500 hc        1 BCR      0.036200
     55 H312       -0.1710    2.2320    2.6380 hc        1 BCR      0.036200
     56 H313       -1.5270    2.0380    3.8270 hc        1 BCR      0.036200
     57 H321       -2.1950    4.0830    0.0660 hc        1 BCR      0.036200
     58 H322       -0.7470    3.0240    0.3240 hc        1 BCR      0.036200
     59 H323       -2.4000    2.2850    0.1840 hc        1 BCR      0.036200
     60 H341       -5.7300    3.4970   -1.2400 hc        1 BCR      0.046867
     61 H342       -4.4570    2.2130   -1.0790 hc        1 BCR      0.046867
     62 H343       -4.3640    3.7090   -0.0580 hc        1 BCR      0.046867
     63 H12C       -9.9140    1.2770    2.4190 ha        1 BCR      0.127500
     64 H14C      -11.6980    3.6550   -0.1140 ha        1 BCR      0.123500
     65 H15C      -10.5140    3.6790    2.7790 ha        1 BCR      0.123500
     66 H16C      -11.9180    5.5800    3.1930 ha        1 BCR      0.123500
     67 H17C      -12.8620    5.3000    0.2250 ha        1 BCR      0.123500
     68 H19C      -13.8590    6.7200    3.6550 ha        1 BCR      0.127500
     69 H20C      -13.6370    9.0800    4.1370 ha        1 BCR      0.123500
     70 H21C      -12.9320    9.4000    1.1180 ha        1 BCR      0.131000
     71 H23C      -13.0130   11.3400    4.4640 ha        1 BCR      0.124500
     72 H24C      -14.9050   12.6790    5.0220 ha        1 BCR      0.124000
     73 H271      -18.8040   12.3860    2.2160 hc        1 BCR      0.047950
     74 H272      -17.9310   11.8840    0.7150 hc        1 BCR      0.047950
     75 H281      -16.9390   14.0630    0.4170 hc        1 BCR      0.041450
     76 H282      -18.6750   14.3500    0.8250 hc        1 BCR      0.041450
     77 H291      -17.2130   15.8860    2.1190 hc        1 BCR      0.041700
     78 H292      -18.0780   14.7350    3.2150 hc        1 BCR      0.041700
     79 H351       -9.1270    1.4460   -1.1250 hc        1 BCR      0.045200
     80 H352      -10.6130    0.5250   -0.6500 hc        1 BCR      0.045200
     81 H353      -10.7700    2.0870   -1.5600 hc        1 BCR      0.045200
     82 H361      -13.8920    7.6800   -0.4370 hc        1 BCR      0.045200
     83 H362      -15.0640    8.2540    0.8240 hc        1 BCR      0.045200
     84 H363      -15.2330    6.5930    0.1120 hc        1 BCR      0.045200
     85 H371      -12.2480   12.8010    1.6720 hc        1 BCR      0.046867
     86 H372      -12.6100   11.5800    0.3790 hc        1 BCR      0.046867
     87 H373      -13.9340   12.6470    1.0220 hc        1 BCR      0.046867
     88 H381      -16.5950   10.0830    1.5910 hc        1 BCR      0.045367
     89 H382      -15.8210   10.2030    3.2220 hc        1 BCR      0.045367
     90 H383      -17.6330   10.1920    3.0740 hc        1 BCR      0.045367
     91 H391      -16.5260   14.4850    5.1140 hc        1 BCR      0.036200
     92 H392      -16.0810   16.0700    4.3530 hc        1 BCR      0.036200
     93 H393      -14.7840   14.8850    4.7880 hc        1 BCR      0.036200
     94 H401      -14.7840   16.0150    2.2000 hc        1 BCR      0.036200
     95 H402      -13.8310   14.4990    2.5030 hc        1 BCR      0.036200
     96 H403      -14.9510   14.6000    1.0800 hc        1 BCR      0.036200
@<TRIPOS>BOND
     1    1    2 1   
     2    1    6 1   
     3    1   13 1   
     4    1   14 1   
     5    2    3 1   
     6    2   41 1   
     7    2   42 1   
     8    3    4 1   
     9    3   43 1   
    10    3   44 1   
    11    4    5 1   
    12    4   45 1   
    13    4   46 1   
    14    5    6 2   
    15    5   12 1   
    16    6    7 1   
    17    7    8 2   
    18    7   47 1   
    19    8    9 1   
    20    8   48 1   
    21    9   10 2   
    22    9   15 1   
    23   10   11 1   
    24   10   49 1   
    25   11   16 2   
    26   11   50 1   
    27   12   51 1   
    28   12   52 1   
    29   12   53 1   
    30   13   54 1   
    31   13   55 1   
    32   13   56 1   
    33   14   57 1   
    34   14   58 1   
    35   14   59 1   
    36   15   60 1   
    37   15   61 1   
    38   15   62 1   
    39   16   17 1   
    40   16   63 1   
    41   17   18 2   
    42   17   35 1   
    43   18   19 1   
    44   18   64 1   
    45   19   20 2   
    46   19   65 1   
    47   20   21 1   
    48   20   66 1   
    49   21   22 2   
    50   21   67 1   
    51   22   23 1   
    52   22   36 1   
    53   23   24 2   
    54   23   68 1   
    55   24   25 1   
    56   24   69 1   
    57   25   26 2   
    58   25   70 1   
    59   26   27 1   
    60   26   37 1   
    61   27   28 2   
    62   27   71 1   
    63   28   29 1   
    64   28   72 1   
    65   29   30 2   
    66   29   34 1   
    67   30   31 1   
    68   30   38 1   
    69   31   32 1   
    70   31   73 1   
    71   31   74 1   
    72   32   33 1   
    73   32   75 1   
    74   32   76 1   
    75   33   34 1   
    76   33   77 1   
    77   33   78 1   
    78   34   39 1   
    79   34   40 1   
    80   35   79 1   
    81   35   80 1   
    82   35   81 1   
    83   36   82 1   
    84   36   83 1   
    85   36   84 1   
    86   37   85 1   
    87   37   86 1   
    88   37   87 1   
    89   38   88 1   
    90   38   89 1   
    91   38   90 1   
    92   39   91 1   
    93   39   92 1   
    94   39   93 1   
    95   40   94 1   
    96   40   95 1   
    97   40   96 1   
@<TRIPOS>SUBSTRUCTURE
     1 BCR         1 TEMP              0 ****  ****    0 ROOT
