@<TRIPOS>MOLECULE
BCR
   96    97     1     0     0
SMALL
bcc


@<TRIPOS>ATOM
      1 C1         66.0090   70.1400   86.5430 c3        1 BCR     -0.007800
      2 C2         66.6640   68.7710   86.7460 c3        1 BCR     -0.069400
      3 C3         68.1720   68.8620   86.7670 c3        1 BCR     -0.076400
      4 C4         68.6940   69.4250   85.4650 c3        1 BCR     -0.041200
      5 C5         67.9080   70.5870   84.9610 c2        1 BCR     -0.096900
      6 C6         66.6790   70.9040   85.4250 ce        1 BCR     -0.086200
      7 C7         65.9060   72.0340   84.9220 ce        1 BCR     -0.109000
      8 C8         65.7090   72.3060   83.6210 cf        1 BCR     -0.139000
      9 C9         64.9170   73.4220   83.1210 cf        1 BCR     -0.062700
     10 C10        64.5080   73.4100   81.8310 ce        1 BCR     -0.136000
     11 C11        63.6980   74.4180   81.1910 ce        1 BCR     -0.122000
     12 C33        68.5910   71.3470   83.8850 c3        1 BCR     -0.064900
     13 C31        66.0970   70.9470   87.8350 c3        1 BCR     -0.083850
     14 C32        64.5370   69.9060   86.2090 c3        1 BCR     -0.083850
     15 C34        64.6010   74.5110   84.0760 c3        1 BCR     -0.062900
     16 C12        63.3620   74.3470   79.8880 cf        1 BCR     -0.128000
     17 C13        62.5430   75.3240   79.1860 cf        1 BCR     -0.065200
     18 C14        62.1730   75.0690   77.9090 ce        1 BCR     -0.131000
     19 C15        61.3560   75.9100   77.0710 ce        1 BCR     -0.123000
     20 C16        61.0670   75.5920   75.7920 cf        1 BCR     -0.123000
     21 C17        60.2440   76.4290   74.9560 cf        1 BCR     -0.131000
     22 C18        59.9370   76.2100   73.6560 ce        1 BCR     -0.065200
     23 C19        59.0690   77.1540   72.9690 ce        1 BCR     -0.128000
     24 C20        58.5510   76.9700   71.7390 cf        1 BCR     -0.122000
     25 C21        57.6950   77.9470   71.1120 cf        1 BCR     -0.136000
     26 C22        57.0780   77.8150   69.9150 ce        1 BCR     -0.062700
     27 C23        56.2670   78.9160   69.4130 ce        1 BCR     -0.139000
     28 C24        55.8040   79.0120   68.1560 cf        1 BCR     -0.109000
     29 C25        54.9770   80.1060   67.6570 cf        1 BCR     -0.086200
     30 C26        55.2770   81.4080   67.8560 c2        1 BCR     -0.096900
     31 C27        54.4230   82.5250   67.3610 c3        1 BCR     -0.041200
     32 C28        53.4100   82.0970   66.3230 c3        1 BCR     -0.076400
     33 C29        52.7560   80.7940   66.7170 c3        1 BCR     -0.069400
     34 C30        53.7740   79.6590   66.8600 c3        1 BCR     -0.007800
     35 C35        62.1650   76.5480   79.9330 c3        1 BCR     -0.062900
     36 C36        60.4310   75.0530   72.8710 c3        1 BCR     -0.062900
     37 C37        57.1740   76.6040   69.0640 c3        1 BCR     -0.062900
     38 C38        56.4730   81.8600   68.6090 c3        1 BCR     -0.064900
     39 C39        54.2240   79.1980   65.4770 c3        1 BCR     -0.083850
     40 C40        53.0800   78.4960   67.5640 c3        1 BCR     -0.083850
     41 HC21       66.2960   68.3280   87.7080 hc        1 BCR      0.042700
     42 HC22       66.3470   68.0870   85.9150 hc        1 BCR      0.042700
     43 HC31       68.5010   69.5110   87.6210 hc        1 BCR      0.041700
     44 HC32       68.6090   67.8430   86.9370 hc        1 BCR      0.041700
     45 HC41       69.7680   69.7260   85.5990 hc        1 BCR      0.047700
     46 HC42       68.6720   68.6260   84.6730 hc        1 BCR      0.047700
     47 HC7        65.4480   72.6640   85.7060 ha        1 BCR      0.127000
     48 HC8        66.1430   71.6470   82.8470 ha        1 BCR      0.127000
     49 H10C       64.7980   72.5580   81.1880 ha        1 BCR      0.121500
     50 H11C       63.3490   75.2570   81.8160 ha        1 BCR      0.126000
     51 H331       68.2230   72.4010   83.8270 hc        1 BCR      0.043700
     52 H332       69.6960   71.3720   84.0580 hc        1 BCR      0.043700
     53 H333       68.4070   70.8560   82.8960 hc        1 BCR      0.043700
     54 H311       65.5530   71.9160   87.7290 hc        1 BCR      0.035867
     55 H312       65.6360   70.3730   88.6740 hc        1 BCR      0.035867
     56 H313       67.1610   71.1640   88.0900 hc        1 BCR      0.035867
     57 H321       63.9870   70.8760   86.1550 hc        1 BCR      0.035867
     58 H322       64.4390   69.3860   85.2270 hc        1 BCR      0.035867
     59 H323       64.0660   69.2740   87.0000 hc        1 BCR      0.035867
     60 H341       64.3410   75.4630   83.5530 hc        1 BCR      0.044533
     61 H342       63.7360   74.2140   84.7200 hc        1 BCR      0.044533
     62 H343       65.4780   74.7160   84.7400 hc        1 BCR      0.044533
     63 H12C       63.7100   73.4940   79.2770 ha        1 BCR      0.122000
     64 H14C       62.5140   74.1280   77.4360 ha        1 BCR      0.121000
     65 H15C       60.9580   76.8410   77.5110 ha        1 BCR      0.125000
     66 H16C       61.4600   74.6590   75.3540 ha        1 BCR      0.125000
     67 H17C       59.8320   77.3280   75.4540 ha        1 BCR      0.121000
     68 H19C       58.8310   78.0750   73.5330 ha        1 BCR      0.122000
     69 H20C       58.7770   76.0540   71.1680 ha        1 BCR      0.126000
     70 H21C       57.5530   78.8840   71.6830 ha        1 BCR      0.121500
     71 H23C       56.0380   79.7100   70.1470 ha        1 BCR      0.127000
     72 H24C       56.0180   78.2230   67.4120 ha        1 BCR      0.127000
     73 H271       53.8900   82.9690   68.2470 hc        1 BCR      0.047700
     74 H272       55.0730   83.3330   66.9300 hc        1 BCR      0.047700
     75 H281       52.6290   82.8930   66.2120 hc        1 BCR      0.041700
     76 H282       53.9130   81.9830   65.3270 hc        1 BCR      0.041700
     77 H291       52.2200   80.9290   67.6940 hc        1 BCR      0.042700
     78 H292       51.9910   80.5050   65.9500 hc        1 BCR      0.042700
     79 H351       61.6670   77.3070   79.2830 hc        1 BCR      0.045200
     80 H352       61.4620   76.2850   80.7640 hc        1 BCR      0.045200
     81 H353       63.0750   77.0230   80.3790 hc        1 BCR      0.045200
     82 H361       60.8400   75.4000   71.8880 hc        1 BCR      0.045200
     83 H362       61.2400   74.4950   73.4000 hc        1 BCR      0.045200
     84 H363       59.5890   74.3430   72.6690 hc        1 BCR      0.045200
     85 H371       56.1680   76.3410   68.6500 hc        1 BCR      0.044533
     86 H372       57.8680   76.7950   68.2060 hc        1 BCR      0.044533
     87 H373       57.5510   75.7190   69.6310 hc        1 BCR      0.044533
     88 H381       56.8850   82.8020   68.1680 hc        1 BCR      0.043700
     89 H382       56.1970   82.0670   69.6740 hc        1 BCR      0.043700
     90 H383       57.2820   81.0880   68.6000 hc        1 BCR      0.043700
     91 H391       53.3370   78.9020   64.8670 hc        1 BCR      0.035867
     92 H392       54.7670   80.0160   64.9480 hc        1 BCR      0.035867
     93 H393       54.9040   78.3170   65.5610 hc        1 BCR      0.035867
     94 H401       52.1530   78.2160   67.0090 hc        1 BCR      0.035867
     95 H402       53.7520   77.6050   67.6080 hc        1 BCR      0.035867
     96 H403       52.8020   78.7820   68.6060 hc        1 BCR      0.035867
@<TRIPOS>BOND
     1    1    2 1   
     2    1    6 1   
     3    1   13 1   
     4    1   14 1   
     5    2    3 1   
     6    2   41 1   
     7    2   42 1   
     8    3    4 1   
     9    3   43 1   
    10    3   44 1   
    11    4    5 1   
    12    4   45 1   
    13    4   46 1   
    14    5    6 2   
    15    5   12 1   
    16    6    7 1   
    17    7    8 2   
    18    7   47 1   
    19    8    9 1   
    20    8   48 1   
    21    9   10 2   
    22    9   15 1   
    23   10   11 1   
    24   10   49 1   
    25   11   16 2   
    26   11   50 1   
    27   12   51 1   
    28   12   52 1   
    29   12   53 1   
    30   13   54 1   
    31   13   55 1   
    32   13   56 1   
    33   14   57 1   
    34   14   58 1   
    35   14   59 1   
    36   15   60 1   
    37   15   61 1   
    38   15   62 1   
    39   16   17 1   
    40   16   63 1   
    41   17   18 2   
    42   17   35 1   
    43   18   19 1   
    44   18   64 1   
    45   19   20 2   
    46   19   65 1   
    47   20   21 1   
    48   20   66 1   
    49   21   22 2   
    50   21   67 1   
    51   22   23 1   
    52   22   36 1   
    53   23   24 2   
    54   23   68 1   
    55   24   25 1   
    56   24   69 1   
    57   25   26 2   
    58   25   70 1   
    59   26   27 1   
    60   26   37 1   
    61   27   28 2   
    62   27   71 1   
    63   28   29 1   
    64   28   72 1   
    65   29   30 2   
    66   29   34 1   
    67   30   31 1   
    68   30   38 1   
    69   31   32 1   
    70   31   73 1   
    71   31   74 1   
    72   32   33 1   
    73   32   75 1   
    74   32   76 1   
    75   33   34 1   
    76   33   77 1   
    77   33   78 1   
    78   34   39 1   
    79   34   40 1   
    80   35   79 1   
    81   35   80 1   
    82   35   81 1   
    83   36   82 1   
    84   36   83 1   
    85   36   84 1   
    86   37   85 1   
    87   37   86 1   
    88   37   87 1   
    89   38   88 1   
    90   38   89 1   
    91   38   90 1   
    92   39   91 1   
    93   39   92 1   
    94   39   93 1   
    95   40   94 1   
    96   40   95 1   
    97   40   96 1   
@<TRIPOS>SUBSTRUCTURE
     1 BCR         1 TEMP              0 ****  ****    0 ROOT
