@<TRIPOS>MOLECULE
BCR
   96    97     1     0     0
SMALL
bcc


@<TRIPOS>ATOM
      1 C1         -2.6250    1.2080    1.5240 c3        1 BCR     -0.003800
      2 C2         -1.1880    1.5660    1.1270 c3        1 BCR     -0.069900
      3 C3         -1.0340    3.0430    0.8440 c3        1 BCR     -0.075400
      4 C4         -1.4020    3.8750    2.0520 c3        1 BCR     -0.040700
      5 C5         -2.5440    3.3340    2.8410 c2        1 BCR     -0.099900
      6 C6         -3.1060    2.1270    2.6190 ce        1 BCR     -0.080700
      7 C7         -4.1260    1.6000    3.5250 ce        1 BCR     -0.106500
      8 C8         -5.4450    1.4610    3.3670 cf        1 BCR     -0.136000
      9 C9         -6.2870    1.7610    2.2150 cf        1 BCR     -0.062700
     10 C10        -6.6240    2.9970    1.8000 ce        1 BCR     -0.139500
     11 C11        -6.1830    4.2240    2.4230 ce        1 BCR     -0.116500
     12 C33        -2.9890    4.2410    3.9300 c3        1 BCR     -0.063400
     13 C31        -2.6350   -0.2380    2.0110 c3        1 BCR     -0.085600
     14 C32        -3.5300    1.3210    0.3030 c3        1 BCR     -0.085600
     15 C34        -6.8670    0.5560    1.5590 c3        1 BCR     -0.061400
     16 C12        -6.4810    5.4590    1.9920 cf        1 BCR     -0.134500
     17 C13        -7.2560    5.7940    0.8020 cf        1 BCR     -0.070700
     18 C14        -8.4690    6.3830    0.8610 ce        1 BCR     -0.136500
     19 C15        -9.1480    6.7080    2.0920 ce        1 BCR     -0.123500
     20 C16       -10.3640    7.2750    2.2030 cf        1 BCR     -0.123500
     21 C17       -11.2230    7.6620    1.1110 cf        1 BCR     -0.136500
     22 C18       -12.4360    8.2380    1.2600 ce        1 BCR     -0.070700
     23 C19       -13.0330    8.4910    2.5630 ce        1 BCR     -0.134500
     24 C20       -13.5480    9.6550    2.9890 cf        1 BCR     -0.116500
     25 C21       -13.5480   10.8900    2.2380 cf        1 BCR     -0.139500
     26 C22       -14.2610   11.9850    2.5740 ce        1 BCR     -0.062700
     27 C23       -15.0950   12.0350    3.7690 ce        1 BCR     -0.136000
     28 C24       -16.4190   12.2100    3.8510 cf        1 BCR     -0.106500
     29 C25       -17.3920   12.3990    2.7770 cf        1 BCR     -0.080700
     30 C26       -17.6630   11.4430    1.8640 c2        1 BCR     -0.099900
     31 C27       -18.6950   11.6010    0.7990 c3        1 BCR     -0.040700
     32 C28       -19.1250   13.0370    0.6010 c3        1 BCR     -0.075400
     33 C29       -19.3750   13.7010    1.9340 c3        1 BCR     -0.069900
     34 C30       -18.1250   13.7200    2.8200 c3        1 BCR     -0.003800
     35 C35        -6.6040    5.5030   -0.5000 c3        1 BCR     -0.060900
     36 C36       -13.2390    8.5990    0.0620 c3        1 BCR     -0.060900
     37 C37       -14.2010   13.2190    1.7530 c3        1 BCR     -0.061400
     38 C38       -17.0030   10.1140    1.8440 c3        1 BCR     -0.063400
     39 C39       -18.5780   14.0300    4.2460 c3        1 BCR     -0.085600
     40 C40       -17.1940   14.8380    2.3580 c3        1 BCR     -0.085600
     41 HC21       -0.4950    1.2720    1.9580 hc        1 BCR      0.041700
     42 HC22       -0.9010    0.9750    0.2190 hc        1 BCR      0.041700
     43 HC31        0.0270    3.2600    0.5520 hc        1 BCR      0.040950
     44 HC32       -1.6800    3.3310   -0.0260 hc        1 BCR      0.040950
     45 HC41       -0.5130    3.9450    2.7400 hc        1 BCR      0.046950
     46 HC42       -1.6450    4.9220    1.7240 hc        1 BCR      0.046950
     47 HC7        -3.6870    1.2690    4.4890 ha        1 BCR      0.122500
     48 HC8        -6.0250    1.0160    4.2010 ha        1 BCR      0.124000
     49 H10C       -7.3050    3.1120    0.9360 ha        1 BCR      0.129000
     50 H11C       -5.5590    4.1010    3.3290 ha        1 BCR      0.126500
     51 H331       -3.6620    3.7250    4.6570 hc        1 BCR      0.043367
     52 H332       -3.5420    5.1120    3.4940 hc        1 BCR      0.043367
     53 H333       -2.1040    4.6360    4.4890 hc        1 BCR      0.043367
     54 H311       -2.2050   -0.9060    1.2270 hc        1 BCR      0.036367
     55 H312       -2.0280   -0.3400    2.9420 hc        1 BCR      0.036367
     56 H313       -3.6800   -0.5670    2.2280 hc        1 BCR      0.036367
     57 H321       -3.1490    0.6640   -0.5150 hc        1 BCR      0.036367
     58 H322       -3.5650    2.3730   -0.0670 hc        1 BCR      0.036367
     59 H323       -4.5690    1.0060    0.5620 hc        1 BCR      0.036367
     60 H341       -7.7660    0.2150    2.1310 hc        1 BCR      0.045367
     61 H342       -7.1780    0.7770    0.5090 hc        1 BCR      0.045367
     62 H343       -6.1270   -0.2820    1.5430 hc        1 BCR      0.045367
     63 H12C       -6.1190    6.3350    2.5590 ha        1 BCR      0.127000
     64 H14C       -8.9900    6.6360   -0.0790 ha        1 BCR      0.123000
     65 H15C       -8.5950    6.4570    3.0170 ha        1 BCR      0.123500
     66 H16C      -10.7600    7.4740    3.2160 ha        1 BCR      0.123500
     67 H17C      -10.8460    7.4760    0.0900 ha        1 BCR      0.123000
     68 H19C      -13.0520    7.6140    3.2370 ha        1 BCR      0.127000
     69 H20C      -14.0040    9.7040    3.9960 ha        1 BCR      0.126500
     70 H21C      -12.9130   10.9050    1.3340 ha        1 BCR      0.129000
     71 H23C      -14.5220   11.9020    4.7080 ha        1 BCR      0.124000
     72 H24C      -16.8800   12.2180    4.8590 ha        1 BCR      0.122500
     73 H271      -19.5860   10.9750    1.0790 hc        1 BCR      0.046950
     74 H272      -18.2970   11.1930   -0.1690 hc        1 BCR      0.046950
     75 H281      -18.3330   13.5960    0.0380 hc        1 BCR      0.040950
     76 H282      -20.0590   13.0680   -0.0180 hc        1 BCR      0.040950
     77 H291      -19.7240   14.7540    1.7740 hc        1 BCR      0.041700
     78 H292      -20.1940   13.1510    2.4700 hc        1 BCR      0.041700
     79 H351       -5.7260    6.1820   -0.6420 hc        1 BCR      0.044867
     80 H352       -7.3080    5.6530   -1.3550 hc        1 BCR      0.044867
     81 H353       -6.2340    4.4470   -0.5220 hc        1 BCR      0.044867
     82 H361      -14.2020    9.0870    0.3520 hc        1 BCR      0.044867
     83 H362      -13.4740    7.6820   -0.5350 hc        1 BCR      0.044867
     84 H363      -12.6690    9.3040   -0.5930 hc        1 BCR      0.044867
     85 H371      -13.9310   14.0960    2.3940 hc        1 BCR      0.045367
     86 H372      -13.4460   13.1320    0.9340 hc        1 BCR      0.045367
     87 H373      -15.2040   13.4170    1.2960 hc        1 BCR      0.045367
     88 H381      -17.7670    9.3110    1.9970 hc        1 BCR      0.043367
     89 H382      -16.2210   10.0190    2.6390 hc        1 BCR      0.043367
     90 H383      -16.5100    9.9420    0.8540 hc        1 BCR      0.043367
     91 H391      -19.1130   13.1560    4.6860 hc        1 BCR      0.036367
     92 H392      -17.7020   14.2810    4.8910 hc        1 BCR      0.036367
     93 H393      -19.2710   14.9070    4.2400 hc        1 BCR      0.036367
     94 H401      -16.2340   14.7990    2.9280 hc        1 BCR      0.036367
     95 H402      -17.6750   15.8310    2.5300 hc        1 BCR      0.036367
     96 H403      -16.9680   14.7360    1.2700 hc        1 BCR      0.036367
@<TRIPOS>BOND
     1    1    2 1   
     2    1    6 1   
     3    1   13 1   
     4    1   14 1   
     5    2    3 1   
     6    2   41 1   
     7    2   42 1   
     8    3    4 1   
     9    3   43 1   
    10    3   44 1   
    11    4    5 1   
    12    4   45 1   
    13    4   46 1   
    14    5    6 2   
    15    5   12 1   
    16    6    7 1   
    17    7    8 2   
    18    7   47 1   
    19    8    9 1   
    20    8   48 1   
    21    9   10 2   
    22    9   15 1   
    23   10   11 1   
    24   10   49 1   
    25   11   16 2   
    26   11   50 1   
    27   12   51 1   
    28   12   52 1   
    29   12   53 1   
    30   13   54 1   
    31   13   55 1   
    32   13   56 1   
    33   14   57 1   
    34   14   58 1   
    35   14   59 1   
    36   15   60 1   
    37   15   61 1   
    38   15   62 1   
    39   16   17 1   
    40   16   63 1   
    41   17   18 2   
    42   17   35 1   
    43   18   19 1   
    44   18   64 1   
    45   19   20 2   
    46   19   65 1   
    47   20   21 1   
    48   20   66 1   
    49   21   22 2   
    50   21   67 1   
    51   22   23 1   
    52   22   36 1   
    53   23   24 2   
    54   23   68 1   
    55   24   25 1   
    56   24   69 1   
    57   25   26 2   
    58   25   70 1   
    59   26   27 1   
    60   26   37 1   
    61   27   28 2   
    62   27   71 1   
    63   28   29 1   
    64   28   72 1   
    65   29   30 2   
    66   29   34 1   
    67   30   31 1   
    68   30   38 1   
    69   31   32 1   
    70   31   73 1   
    71   31   74 1   
    72   32   33 1   
    73   32   75 1   
    74   32   76 1   
    75   33   34 1   
    76   33   77 1   
    77   33   78 1   
    78   34   39 1   
    79   34   40 1   
    80   35   79 1   
    81   35   80 1   
    82   35   81 1   
    83   36   82 1   
    84   36   83 1   
    85   36   84 1   
    86   37   85 1   
    87   37   86 1   
    88   37   87 1   
    89   38   88 1   
    90   38   89 1   
    91   38   90 1   
    92   39   91 1   
    93   39   92 1   
    94   39   93 1   
    95   40   94 1   
    96   40   95 1   
    97   40   96 1   
@<TRIPOS>SUBSTRUCTURE
     1 BCR         1 TEMP              0 ****  ****    0 ROOT
