@<TRIPOS>MOLECULE
BCS
   26    26     1     0     0
SMALL
bcc


@<TRIPOS>ATOM
      1 N           1.5450    1.0840    2.9160 n3        1 BCS     -0.883800
      2 CA          0.2280    0.5300    2.6350 c3        1 BCS      0.022500
      3 CB          0.2310   -0.5220    1.5390 c3        1 BCS      0.024700
      4 SG          0.5250    0.2260   -0.0500 ss        1 BCS     -0.326200
      5 CD         -0.2470   -0.9700   -1.1110 c3        1 BCS      0.020000
      6 CE         -0.1960   -0.4870   -2.5080 ca        1 BCS     -0.044300
      7 CZ1         0.8550   -0.8660   -3.3540 ca        1 BCS     -0.119000
      8 CZ2        -1.2070    0.3470   -3.0060 ca        1 BCS     -0.119000
      9 CT1         0.8920   -0.4200   -4.6740 ca        1 BCS     -0.136000
     10 CT2        -1.1660    0.7900   -4.3270 ca        1 BCS     -0.136000
     11 CH         -0.1180    0.4070   -5.1630 ca        1 BCS     -0.143000
     12 C          -0.4960   -0.0860    3.8890 c         1 BCS      0.890600
     13 O           0.0250    0.1130    5.0210 o         1 BCS     -0.835800
     14 OXT        -1.5650   -0.7250    3.6890 o         1 BCS     -0.835800
     15 H           2.1790    0.3270    3.1020 hn        1 BCS      0.332800
     16 H2          1.4680    1.6050    3.7740 hn        1 BCS      0.332800
     17 HA         -0.4190    1.3940    2.2990 h1        1 BCS      0.059700
     18 HB2         1.0090   -1.3000    1.7240 h1        1 BCS      0.069200
     19 HB3        -0.7730   -1.0200    1.5440 h1        1 BCS      0.069200
     20 HD2         0.2800   -1.9520   -1.0130 h1        1 BCS      0.061200
     21 HD3        -1.3070   -1.1270   -0.7860 h1        1 BCS      0.061200
     22 HZ1         1.6570   -1.5120   -2.9670 ha        1 BCS      0.138000
     23 HZ2        -2.0280    0.6580   -2.3430 ha        1 BCS      0.138000
     24 HT1         1.7230   -0.7200   -5.3290 ha        1 BCS      0.121000
     25 HT2        -1.9610    1.4480   -4.7070 ha        1 BCS      0.121000
     26 HH         -0.0870    0.7590   -6.2040 ha        1 BCS      0.118000
@<TRIPOS>BOND
     1    1    2 1   
     2    1   15 1   
     3    1   16 1   
     4    2    3 1   
     5    2   12 1   
     6    2   17 1   
     7    3    4 1   
     8    3   18 1   
     9    3   19 1   
    10    4    5 1   
    11    5    6 1   
    12    5   20 1   
    13    5   21 1   
    14    6    7 ar  
    15    6    8 ar  
    16    7    9 ar  
    17    7   22 1   
    18    8   10 ar  
    19    8   23 1   
    20    9   11 ar  
    21    9   24 1   
    22   10   11 ar  
    23   10   25 1   
    24   11   26 1   
    25   12   13 1   
    26   12   14 1   
@<TRIPOS>SUBSTRUCTURE
     1 BCS         1 TEMP              0 ****  ****    0 ROOT
