@<TRIPOS>MOLECULE
BCT
    5     4     1     0     0
SMALL
bcc


@<TRIPOS>ATOM
      1 C          -0.0910    0.0080   -0.0000 c         1 BCT      0.494100
      2 O1         -0.2490    1.2580    0.0000 o         1 BCT     -0.581500
      3 O2         -0.9010   -0.9460   -0.0000 o         1 BCT     -0.581500
      4 O3          1.2490   -0.3970   -0.0000 oh        1 BCT     -0.712100
      5 HO3         1.7920    0.3980    0.0000 ho        1 BCT      0.381000
@<TRIPOS>BOND
     1    1    2 1   
     2    1    3 1   
     3    1    4 1   
     4    4    5 1   
@<TRIPOS>SUBSTRUCTURE
     1 BCT         1 TEMP              0 ****  ****    0 ROOT
