@<TRIPOS>MOLECULE
BCU
   24    22     1     0     0
SMALL
bcc


@<TRIPOS>ATOM
      1 O12        -2.9910   -0.2310   -2.7030 oh        1 BCU     -0.600800
      2 C11        -1.5700   -0.0390   -2.5170 c3        1 BCU      0.136400
      3 C2         -1.2060   -0.1320   -0.9110 c3        1 BCU     -0.101700
      4 C3         -1.3520    1.2210   -0.3380 c3        1 BCU      0.134400
      5 O4         -0.9790    1.3790    0.9490 os        1 BCU     -0.307400
      6 C5          0.2600    0.5940    1.4290 c1        1 BCU      0.110600
      7 C10         0.8910    0.8840    2.6240 c1        1 BCU     -0.071250
      8 C9          2.1040    0.2450    2.9540 c1        1 BCU     -0.071250
      9 C8          2.6960   -0.7250    2.0330 c1        1 BCU     -0.071250
     10 C7          2.0470   -1.0260    0.8000 c1        1 BCU     -0.071250
     11 C6          0.8680   -0.4060    0.4770 c1        1 BCU     -0.112100
     12 C1          0.0810   -0.7440   -0.7840 c3        1 BCU     -0.061300
     13 H1         -3.1390   -0.5920   -3.5080 ho        1 BCU      0.403000
     14 H2         -1.0790   -0.7390   -3.0080 h1        1 BCU      0.025700
     15 H3         -1.3090    0.8520   -2.8620 h1        1 BCU      0.025700
     16 H4         -1.8930   -0.7430   -0.4620 hc        1 BCU      0.084700
     17 H5         -2.2680    1.4600   -0.4000 h1        1 BCU      0.063700
     18 H6         -0.8160    1.8110   -0.8640 h1        1 BCU      0.063700
     19 H7          0.4940    1.5330    3.2440 ha        1 BCU      0.078500
     20 H8          2.5560    0.4550    3.8130 ha        1 BCU      0.078500
     21 H9          3.5560   -1.1770    2.2680 ha        1 BCU      0.078500
     22 H10         2.4430   -1.6760    0.1840 ha        1 BCU      0.078500
     23 H11         0.6530   -0.4670   -1.6040 hc        1 BCU      0.053200
     24 H12        -0.0460   -1.7350   -0.8130 hc        1 BCU      0.053200
@<TRIPOS>BOND
     1    1    2 1   
     2    1   13 1   
     3    2    3 1   
     4    2   14 1   
     5    2   15 1   
     6    3    4 1   
     7    3   12 1   
     8    3   16 1   
     9    4    5 1   
    10    4   17 1   
    11    4   18 1   
    12    5    6 1   
    13    6   11 3   
    14    7    8 3   
    15    7   19 1   
    16    8   20 1   
    17    9   10 3   
    18    9   21 1   
    19   10   22 1   
    20   11   12 1   
    21   12   23 1   
    22   12   24 1   
@<TRIPOS>SUBSTRUCTURE
     1 BCU         1 TEMP              0 ****  ****    0 ROOT
