@<TRIPOS>MOLECULE
BCU
   24    25     1     0     0
SMALL
bcc


@<TRIPOS>ATOM
      1 O12        -3.9810   -0.1300   -0.3840 oh        1 BCU     -0.600800
      2 C11        -3.0230    0.7510    0.1810 c3        1 BCU      0.136400
      3 C2         -1.6450    0.2470   -0.2300 c3        1 BCU     -0.101700
      4 C3         -1.3410   -1.0830    0.4430 c3        1 BCU      0.134400
      5 O4         -0.0790   -1.6190    0.0380 os        1 BCU     -0.323900
      6 C5          0.9660   -0.7140    0.0250 ca        1 BCU      0.127100
      7 C10         2.2530   -1.2730   -0.0610 ca        1 BCU     -0.153000
      8 C9          3.3550   -0.4270   -0.1130 ca        1 BCU     -0.103000
      9 C8          3.1860    0.9590   -0.0760 ca        1 BCU     -0.161000
     10 C7          1.9080    1.5050    0.0060 ca        1 BCU     -0.098000
     11 C6          0.7800    0.6790    0.0550 ca        1 BCU     -0.146300
     12 C1         -0.5810    1.2680    0.1420 c3        1 BCU     -0.027100
     13 H1         -4.8480    0.2240   -0.1550 ho        1 BCU      0.403000
     14 H2         -3.1800    1.7920   -0.2090 h1        1 BCU      0.025700
     15 H3         -3.1240    0.7590    1.2990 h1        1 BCU      0.025700
     16 H4         -1.6370    0.0890   -1.3450 hc        1 BCU      0.084700
     17 H5         -1.3430   -0.9740    1.5590 h1        1 BCU      0.063700
     18 H6         -2.0780   -1.8700    0.1270 h1        1 BCU      0.063700
     19 H7          2.3670   -2.3650   -0.0900 ha        1 BCU      0.149000
     20 H8          4.3660   -0.8550   -0.1810 ha        1 BCU      0.133000
     21 H9          4.0640    1.6200   -0.1150 ha        1 BCU      0.132000
     22 H10         1.7760    2.5970    0.0290 ha        1 BCU      0.130000
     23 H11        -0.6590    2.1560   -0.5390 hc        1 BCU      0.053200
     24 H12        -0.7560    1.6350    1.1900 hc        1 BCU      0.053200
@<TRIPOS>BOND
     1    1    2 1   
     2    1   13 1   
     3    2    3 1   
     4    2   14 1   
     5    2   15 1   
     6    3    4 1   
     7    3   12 1   
     8    3   16 1   
     9    4    5 1   
    10    4   17 1   
    11    4   18 1   
    12    5    6 1   
    13    6    7 ar  
    14    6   11 ar  
    15    7    8 ar  
    16    7   19 1   
    17    8    9 ar  
    18    8   20 1   
    19    9   10 ar  
    20    9   21 1   
    21   10   11 ar  
    22   10   22 1   
    23   11   12 1   
    24   12   23 1   
    25   12   24 1   
@<TRIPOS>SUBSTRUCTURE
     1 BCU         1 TEMP              0 ****  ****    0 ROOT
