@<TRIPOS>MOLECULE
BCV
   48    48     1     0     0
SMALL
bcc


@<TRIPOS>ATOM
      1 N14         1.4490    1.0890    0.3060 n4        1 BCV     -0.828600
      2 C2          1.8240    0.8270   -1.1210 c3        1 BCV     -0.020500
      3 C1          2.0510    2.2020   -1.8260 c         1 BCV      0.894600
      4 O19         1.2180    3.1220   -1.5810 o         1 BCV     -0.793800
      5 O20         3.0050    2.2870   -2.6350 o         1 BCV     -0.793800
      6 C3          0.7530    0.0170   -1.8620 c3        1 BCV     -0.083400
      7 C4          0.6970    0.3420   -3.3460 c3        1 BCV     -0.083400
      8 C7         -0.2940    1.4580   -3.6390 c3        1 BCV     -0.166400
      9 C10         0.1230    2.3350   -4.7900 c         1 BCV      0.559100
     10 O15        -0.3610    2.3300   -5.9130 o         1 BCV     -0.425100
     11 N11         1.2040    3.3280   -4.4860 n4        1 BCV     -0.691800
     12 C12         1.3920    4.3930   -5.5180 c3        1 BCV      0.057500
     13 C16         1.9540    5.6750   -4.8980 c3        1 BCV     -0.042300
     14 S17         0.9630    6.1830   -3.5290 sh        1 BCV     -0.325900
     15 C13         2.3590    3.9130   -6.6320 c         1 BCV      0.654100
     16 O18         3.0700    2.9060   -6.4470 o         1 BCV     -0.590100
     17 N29         2.4130    4.6830   -7.7640 n         1 BCV     -0.518900
     18 C30         3.1570    4.2580   -8.9350 c3        1 BCV      0.042700
     19 C31         2.2270    3.6110   -9.9670 c         1 BCV      0.601100
     20 O42         2.7270    2.6710  -10.8120 oh        1 BCV     -0.555100
     21 O43         1.0280    3.8470  -10.1130 o         1 BCV     -0.482000
     22 C32         3.9120    5.4190   -9.5500 cx        1 BCV     -0.169700
     23 C37         3.1800    6.5010  -10.3010 cx        1 BCV     -0.119400
     24 C33         4.0650    5.5480  -11.0430 cx        1 BCV     -0.119400
     25 H141        0.8240    1.9130    0.3170 hn        1 BCV      0.459133
     26 H142        2.2900    1.3110    0.8430 hn        1 BCV      0.459133
     27 H2          2.7990    0.2570   -1.1260 hx        1 BCV      0.122700
     28 H3C1       -0.2630    0.1860   -1.4140 hc        1 BCV      0.065700
     29 H3C2        0.9920   -1.0740   -1.7440 hc        1 BCV      0.065700
     30 H4C1        0.3730   -0.5810   -3.9000 hc        1 BCV      0.087200
     31 H4C2        1.7270    0.5960   -3.7180 hc        1 BCV      0.087200
     32 H7C1       -0.4440    2.1040   -2.7260 hc        1 BCV      0.113200
     33 H7C2       -1.2920    1.0160   -3.9140 hc        1 BCV      0.113200
     34 H11         0.9960    3.7890   -3.5600 hn        1 BCV      0.512300
     35 H12         0.3760    4.6050   -5.9730 hx        1 BCV      0.132700
     36 H161        3.0270    5.5410   -4.6170 h1        1 BCV      0.114700
     37 H162        1.9030    6.4850   -5.6720 h1        1 BCV      0.114700
     38 H17         1.8330    6.0250   -2.5360 hs        1 BCV      0.240800
     39 H29         3.6780    2.5570  -10.6650 ho        1 BCV      0.437000
     40 H30         3.9100    3.4740   -8.6040 h1        1 BCV      0.110700
     41 H32         4.7730    5.7170   -8.9160 hc        1 BCV      0.102700
     42 H371        3.5010    7.5500  -10.1690 hc        1 BCV      0.089450
     43 H372        2.0850    6.4140  -10.4290 hc        1 BCV      0.089450
     44 H331        5.0350    5.9040  -11.4370 hc        1 BCV      0.089450
     45 H332        3.6030    4.7980  -11.7120 hc        1 BCV      0.089450
     46 H143        0.9750    0.2860    0.7190 hn        1 BCV      0.459133
     47 H112        2.1060    2.8080   -4.3700 hn        1 BCV      0.512300
     48 H292        1.7220    5.3840   -7.9210 hn        1 BCV      0.336500
@<TRIPOS>BOND
     1    1    2 1   
     2    1   25 1   
     3    1   26 1   
     4    1   46 1   
     5    2    3 1   
     6    2    6 1   
     7    2   27 1   
     8    3    4 1   
     9    3    5 1   
    10    6    7 1   
    11    6   28 1   
    12    6   29 1   
    13    7    8 1   
    14    7   30 1   
    15    7   31 1   
    16    8    9 1   
    17    8   32 1   
    18    8   33 1   
    19    9   10 2   
    20    9   11 1   
    21   11   12 1   
    22   11   34 1   
    23   11   47 1   
    24   12   13 1   
    25   12   15 1   
    26   12   35 1   
    27   13   14 1   
    28   13   36 1   
    29   13   37 1   
    30   14   38 1   
    31   15   16 2   
    32   15   17 1   
    33   17   18 1   
    34   17   48 1   
    35   18   19 1   
    36   18   22 1   
    37   18   40 1   
    38   19   20 1   
    39   19   21 2   
    40   20   39 1   
    41   22   23 1   
    42   22   24 1   
    43   22   41 1   
    44   23   24 1   
    45   23   42 1   
    46   23   43 1   
    47   24   44 1   
    48   24   45 1   
@<TRIPOS>SUBSTRUCTURE
     1 BCV         1 TEMP              0 ****  ****    0 ROOT
