@<TRIPOS>MOLECULE
BCV
   45    45     1     0     0
SMALL
bcc


@<TRIPOS>ATOM
      1 N14        -2.3400    2.9100    6.2240 n3        1 BCV     -0.892800
      2 C2         -2.0530    3.2860    4.8860 c3        1 BCV      0.022500
      3 C1         -2.9250    4.4580    4.4940 c         1 BCV      0.886600
      4 O19        -2.3950    5.5450    4.1290 o         1 BCV     -0.848800
      5 O20        -4.1820    4.3660    4.5780 o         1 BCV     -0.848800
      6 C3         -2.3330    2.1120    3.9560 c3        1 BCV     -0.065400
      7 C4         -1.0540    1.7590    3.1770 c3        1 BCV     -0.073400
      8 C7         -1.3210    0.5390    2.2780 c3        1 BCV     -0.151400
      9 C10        -0.0840    0.2600    1.4120 c         1 BCV      0.667100
     10 O15         0.8650    1.0240    1.4410 o         1 BCV     -0.625100
     11 N11        -0.0570   -0.8880    0.5440 n         1 BCV     -0.569900
     12 C12         1.1160   -1.1870   -0.2060 c3        1 BCV      0.025700
     13 C16         1.9980   -2.1290    0.5880 c3        1 BCV     -0.003300
     14 S17         3.6850   -1.9650    0.0420 sh        1 BCV     -0.429900
     15 C13         0.7250   -1.8440   -1.5180 c         1 BCV      0.626100
     16 O18         0.1840   -2.9370   -1.5150 o         1 BCV     -0.663100
     17 N29         1.0170   -1.1890   -2.7670 n         1 BCV     -0.511900
     18 C30         1.0460   -1.9420   -3.9760 c3        1 BCV     -0.017300
     19 C31        -0.2260   -2.7410   -4.1020 c         1 BCV      0.916600
     20 O42        -1.3350   -2.1480   -4.2210 o         1 BCV     -0.829300
     21 O43        -0.1780   -4.0030   -4.1370 o         1 BCV     -0.829300
     22 C32         1.1710   -0.9920   -5.1650 cx        1 BCV     -0.094700
     23 C37         2.5280   -0.9720   -5.8560 cx        1 BCV     -0.142400
     24 C33         1.3420   -1.6540   -6.5250 cx        1 BCV     -0.142400
     25 H141       -1.5740    2.9590    6.7270 hn        1 BCV      0.330300
     26 H142       -2.9720    3.4770    6.5730 hn        1 BCV      0.330300
     27 H2         -1.1080    3.5430    4.8130 h1        1 BCV      0.041700
     28 H3C1       -3.0450    2.3570    3.3240 hc        1 BCV      0.047700
     29 H3C2       -2.6190    1.3350    4.4870 hc        1 BCV      0.047700
     30 H4C1       -0.3330    1.5460    3.8110 hc        1 BCV      0.046200
     31 H4C2       -0.7870    2.5240    2.6210 hc        1 BCV      0.046200
     32 H7C1       -2.0930    0.7240    1.6970 hc        1 BCV      0.064700
     33 H7C2       -1.5140   -0.2460    2.8380 hc        1 BCV      0.064700
     34 H11        -0.7900   -1.4370    0.4870 hn        1 BCV      0.315500
     35 H12         1.6060   -0.3560   -0.3900 h1        1 BCV      0.124700
     36 H161        1.9400   -1.9050    1.5430 h1        1 BCV      0.082200
     37 H162        1.6980   -3.0530    0.4500 h1        1 BCV      0.082200
     38 H17         4.3800   -2.6610    0.6950 hs        1 BCV      0.249800
     39 H29         1.2110   -0.2930   -2.7800 hn        1 BCV      0.329500
     40 H30         1.8160   -2.5520   -3.9620 h1        1 BCV      0.064700
     41 H32         0.6800   -0.1400   -5.1640 hc        1 BCV      0.080700
     42 H371        2.7970   -0.1100   -6.2420 hc        1 BCV      0.061700
     43 H372        3.2070   -1.5720   -5.4780 hc        1 BCV      0.061700
     44 H331        0.9470   -1.1740   -7.2860 hc        1 BCV      0.061700
     45 H332        1.3580   -2.6360   -6.5220 hc        1 BCV      0.061700
@<TRIPOS>BOND
     1    1    2 1   
     2    1   25 1   
     3    1   26 1   
     4    2    3 1   
     5    2    6 1   
     6    2   27 1   
     7    3    4 1   
     8    3    5 1   
     9    6    7 1   
    10    6   28 1   
    11    6   29 1   
    12    7    8 1   
    13    7   30 1   
    14    7   31 1   
    15    8    9 1   
    16    8   32 1   
    17    8   33 1   
    18    9   10 2   
    19    9   11 1   
    20   11   12 1   
    21   11   34 1   
    22   12   13 1   
    23   12   15 1   
    24   12   35 1   
    25   13   14 1   
    26   13   36 1   
    27   13   37 1   
    28   14   38 1   
    29   15   16 2   
    30   15   17 1   
    31   17   18 1   
    32   17   39 1   
    33   18   19 1   
    34   18   22 1   
    35   18   40 1   
    36   19   20 1   
    37   19   21 1   
    38   22   23 1   
    39   22   24 1   
    40   22   41 1   
    41   23   24 1   
    42   23   42 1   
    43   23   43 1   
    44   24   44 1   
    45   24   45 1   
@<TRIPOS>SUBSTRUCTURE
     1 BCV         1 TEMP              0 ****  ****    0 ROOT
