@<TRIPOS>MOLECULE
BCV
   48    48     1     0     0
SMALL
bcc


@<TRIPOS>ATOM
      1 N14         1.4150    0.9350    0.2420 n4        1 BCV     -0.828600
      2 C2          1.9280    0.8240   -1.1620 c3        1 BCV     -0.020500
      3 C1          1.9530    2.2560   -1.7850 c         1 BCV      0.893600
      4 O19         0.9440    2.9930   -1.5840 o         1 BCV     -0.793800
      5 O20         2.9400    2.5610   -2.4940 o         1 BCV     -0.793800
      6 C3          1.0730   -0.1180   -2.0180 c3        1 BCV     -0.084400
      7 C4          1.0500    0.2810   -3.4850 c3        1 BCV     -0.083400
      8 C7         -0.1070    1.2180   -3.7920 c3        1 BCV     -0.167400
      9 C10         0.1990    2.2290   -4.8640 c         1 BCV      0.563100
     10 O15        -0.2800    2.2550   -5.9890 o         1 BCV     -0.433100
     11 N11         1.1380    3.3290   -4.4690 n4        1 BCV     -0.691800
     12 C12         1.2920    4.4200   -5.4790 c3        1 BCV      0.056500
     13 C16         1.7400    5.7260   -4.8230 c3        1 BCV     -0.043300
     14 S17         0.6300    6.1540   -3.5200 sh        1 BCV     -0.324900
     15 C13         2.3440    4.0210   -6.5490 c         1 BCV      0.653100
     16 O18         3.1780    3.1340   -6.2930 o         1 BCV     -0.571100
     17 N29         2.2770    4.6780   -7.7500 n         1 BCV     -0.548900
     18 C30         3.2410    4.4270   -8.8050 c3        1 BCV      0.040700
     19 C31         2.7320    3.3940   -9.8170 c         1 BCV      0.609100
     20 O42         1.4570    3.4280  -10.2980 oh        1 BCV     -0.563100
     21 O43         3.4120    2.4740  -10.2640 o         1 BCV     -0.456000
     22 C32         3.6810    5.6990   -9.4970 cx        1 BCV     -0.178700
     23 C37         3.0500    6.1820  -10.7780 cx        1 BCV     -0.116900
     24 C33         4.4310    5.6050  -10.8020 cx        1 BCV     -0.116900
     25 H141        2.1620    1.2790    0.8500 hn        1 BCV      0.458800
     26 H142        1.0740    0.0370    0.5850 hn        1 BCV      0.458800
     27 H2          2.9870    0.4350   -1.1160 hx        1 BCV      0.123700
     28 H3C1        1.5010   -1.1540   -1.9360 hc        1 BCV      0.066700
     29 H3C2        0.0170   -0.1650   -1.6370 hc        1 BCV      0.066700
     30 H4C1        2.0400    0.7310   -3.7700 hc        1 BCV      0.087700
     31 H4C2        0.9320   -0.6510   -4.1040 hc        1 BCV      0.087700
     32 H7C1       -0.9910    0.6210   -4.1540 hc        1 BCV      0.114700
     33 H7C2       -0.4250    1.7740   -2.8620 hc        1 BCV      0.114700
     34 H11         2.0800    2.9100   -4.2840 hn        1 BCV      0.513300
     35 H12         0.2810    4.5680   -5.9690 hx        1 BCV      0.128700
     36 H161        2.7990    5.6490   -4.4690 h1        1 BCV      0.112700
     37 H162        1.6970    6.5350   -5.5960 h1        1 BCV      0.112700
     38 H17         1.4590    6.1200   -2.4810 hs        1 BCV      0.243800
     39 H29         0.9890    4.2070   -9.9720 ho        1 BCV      0.423000
     40 H30         4.1650    3.9540   -8.3330 h1        1 BCV      0.131700
     41 H32         4.0200    6.4660   -8.7700 hc        1 BCV      0.095700
     42 H371        2.9140    7.2700  -10.9190 hc        1 BCV      0.089950
     43 H372        2.2250    5.6040  -11.2350 hc        1 BCV      0.089950
     44 H331        5.2980    6.2720  -10.9580 hc        1 BCV      0.089950
     45 H332        4.5890    4.6070  -11.2560 hc        1 BCV      0.089950
     46 H143        0.6470    1.6270    0.2390 hn        1 BCV      0.458800
     47 H112        0.8110    3.7530   -3.5590 hn        1 BCV      0.513300
     48 H292        1.6550    5.4440   -7.8650 hn        1 BCV      0.325500
@<TRIPOS>BOND
     1    1    2 1   
     2    1   25 1   
     3    1   26 1   
     4    1   46 1   
     5    2    3 1   
     6    2    6 1   
     7    2   27 1   
     8    3    4 1   
     9    3    5 1   
    10    6    7 1   
    11    6   28 1   
    12    6   29 1   
    13    7    8 1   
    14    7   30 1   
    15    7   31 1   
    16    8    9 1   
    17    8   32 1   
    18    8   33 1   
    19    9   10 2   
    20    9   11 1   
    21   11   12 1   
    22   11   34 1   
    23   11   47 1   
    24   12   13 1   
    25   12   15 1   
    26   12   35 1   
    27   13   14 1   
    28   13   36 1   
    29   13   37 1   
    30   14   38 1   
    31   15   16 2   
    32   15   17 1   
    33   17   18 1   
    34   17   48 1   
    35   18   19 1   
    36   18   22 1   
    37   18   40 1   
    38   19   20 1   
    39   19   21 2   
    40   20   39 1   
    41   22   23 1   
    42   22   24 1   
    43   22   41 1   
    44   23   24 1   
    45   23   42 1   
    46   23   43 1   
    47   24   44 1   
    48   24   45 1   
@<TRIPOS>SUBSTRUCTURE
     1 BCV         1 TEMP              0 ****  ****    0 ROOT
