@<TRIPOS>MOLECULE
BCV
   48    48     1     0     0
SMALL
bcc


@<TRIPOS>ATOM
      1 N14         1.2760    1.2700    0.3560 nz        1 BCV     -0.828600
      2 C2          1.8300    1.0240   -1.0150 c3        1 BCV     -0.020500
      3 C1          1.8810    2.3890   -1.7730 c         1 BCV      0.894600
      4 O19         0.8800    3.1540   -1.6540 o         1 BCV     -0.793800
      5 O20         2.8800    2.6110   -2.4960 o         1 BCV     -0.793800
      6 C3          0.9940    0.0070   -1.8030 c3        1 BCV     -0.083400
      7 C4          1.0280    0.2590   -3.3020 c3        1 BCV     -0.083400
      8 C7         -0.1090    1.1670   -3.7430 c3        1 BCV     -0.166400
      9 C10         0.2590    2.0590   -4.9000 c         1 BCV      0.559100
     10 O15        -0.1040    1.9240   -6.0590 o         1 BCV     -0.425100
     11 N11         1.1150    3.2410   -4.5560 ny        1 BCV     -0.691800
     12 C12         1.2140    4.2820   -5.6240 c3        1 BCV      0.057500
     13 C16         1.4810    5.6660   -5.0290 c3        1 BCV     -0.042300
     14 S17         0.2870    6.0410   -3.7850 sh        1 BCV     -0.325900
     15 C13         2.3540    3.9390   -6.6200 c         1 BCV      0.654100
     16 O18         3.2090    3.0840   -6.3150 o         1 BCV     -0.590100
     17 N29         2.3830    4.6610   -7.7840 ns        1 BCV     -0.518900
     18 C30         3.3000    4.3300   -8.8580 c3        1 BCV      0.042700
     19 C31         2.6030    3.4850   -9.9300 c         1 BCV      0.601100
     20 O42         3.3410    2.6180  -10.6730 oh        1 BCV     -0.555100
     21 O43         1.4010    3.4950  -10.1950 o         1 BCV     -0.482000
     22 C32         3.8950    5.5830   -9.4690 cx        1 BCV     -0.169700
     23 C37         3.0610    6.4840  -10.3420 cx        1 BCV     -0.119400
     24 C33         4.1670    5.6780  -10.9480 cx        1 BCV     -0.119400
     25 H141        0.5190    1.9680    0.2640 hn        1 BCV      0.459133
     26 H142        0.9110    0.4120    0.7690 hn        1 BCV      0.459133
     27 H2          2.8850    0.6380   -0.9010 hx        1 BCV      0.122700
     28 H3C1        1.4070   -1.0190   -1.6030 hc        1 BCV      0.065700
     29 H3C2       -0.0750    0.0080   -1.4580 hc        1 BCV      0.065700
     30 H4C1        0.9260   -0.7280   -3.8300 hc        1 BCV      0.087200
     31 H4C2        2.0290    0.6780   -3.5940 hc        1 BCV      0.087200
     32 H7C1       -0.4590    1.8110   -2.8850 hc        1 BCV      0.113200
     33 H7C2       -0.9830    0.5430   -4.0820 hc        1 BCV      0.113200
     34 H11         2.0780    2.8950   -4.3310 hn        1 BCV      0.512300
     35 H12         0.2260    4.2900   -6.1790 hx        1 BCV      0.132700
     36 H161        1.3650    6.4230   -5.8480 h1        1 BCV      0.114700
     37 H162        2.5280    5.7370   -4.6470 h1        1 BCV      0.114700
     38 H17         1.0700    6.0810   -2.7100 hs        1 BCV      0.240800
     39 H29         4.2780    2.6840  -10.4350 ho        1 BCV      0.437000
     40 H30         4.1430    3.7090   -8.4170 h1        1 BCV      0.110700
     41 H32         4.6240    6.0560   -8.7790 hc        1 BCV      0.102700
     42 H371        3.1780    7.5780  -10.2420 hc        1 BCV      0.089450
     43 H372        2.0150    6.1950  -10.5610 hc        1 BCV      0.089450
     44 H331        3.9110    4.8300  -11.6120 hc        1 BCV      0.089450
     45 H332        5.0930    6.1860  -11.2740 hc        1 BCV      0.089450
     46 H143        2.0090    1.6590    0.9530 hn        1 BCV      0.459133
     47 H112        0.7400    3.6930   -3.6790 hn        1 BCV      0.512300
     48 H292        1.5980    5.2190   -8.0400 hn        1 BCV      0.336500
@<TRIPOS>BOND
     1    1    2 1   
     2    1   25 1   
     3    1   26 1   
     4    1   46 1   
     5    2    3 1   
     6    2    6 1   
     7    2   27 1   
     8    3    4 1   
     9    3    5 1   
    10    6    7 1   
    11    6   28 1   
    12    6   29 1   
    13    7    8 1   
    14    7   30 1   
    15    7   31 1   
    16    8    9 1   
    17    8   32 1   
    18    8   33 1   
    19    9   10 2   
    20    9   11 1   
    21   11   12 1   
    22   11   34 1   
    23   11   47 1   
    24   12   13 1   
    25   12   15 1   
    26   12   35 1   
    27   13   14 1   
    28   13   36 1   
    29   13   37 1   
    30   14   38 1   
    31   15   16 2   
    32   15   17 1   
    33   17   18 1   
    34   17   48 1   
    35   18   19 1   
    36   18   22 1   
    37   18   40 1   
    38   19   20 1   
    39   19   21 2   
    40   20   39 1   
    41   22   23 1   
    42   22   24 1   
    43   22   41 1   
    44   23   24 1   
    45   23   42 1   
    46   23   43 1   
    47   24   44 1   
    48   24   45 1   
@<TRIPOS>SUBSTRUCTURE
     1 BCV         1 TEMP              0 ****  ****    0 ROOT
