@<TRIPOS>MOLECULE
BCV
   45    45     1     0     0
SMALL
bcc


@<TRIPOS>ATOM
      1 N14         5.3750    0.3140   -1.9830 n3        1 BCV     -0.890800
      2 C2          5.7620    0.1280   -0.5900 c3        1 BCV      0.022500
      3 C1          7.1680   -0.5310   -0.3940 c         1 BCV      0.886600
      4 O19         7.8550   -0.7910   -1.4240 o         1 BCV     -0.848300
      5 O20         7.5560   -0.7470    0.7880 o         1 BCV     -0.848300
      6 C3          4.7390   -0.6670    0.2230 c3        1 BCV     -0.065400
      7 C4          3.4090    0.0470    0.3460 c3        1 BCV     -0.073400
      8 C7          2.4750   -0.7220    1.2580 c3        1 BCV     -0.150400
      9 C10         1.1680    0.0090    1.4970 c         1 BCV      0.659100
     10 O15         0.8950    0.5080    2.6110 o         1 BCV     -0.644100
     11 N11         0.2930    0.1300    0.4360 n         1 BCV     -0.560900
     12 C12        -1.0610    0.6050    0.5850 c3        1 BCV      0.024700
     13 C16        -1.2690    2.0210    0.0400 c3        1 BCV      0.009700
     14 S17        -0.6510    3.3170    1.0820 sh        1 BCV     -0.443900
     15 C13        -2.0640   -0.3150   -0.1820 c         1 BCV      0.631100
     16 O18        -1.6710   -0.9690   -1.1770 o         1 BCV     -0.656100
     17 N29        -3.3330   -0.3680    0.3050 n         1 BCV     -0.511900
     18 C30        -4.4260   -1.0610   -0.3500 c3        1 BCV     -0.007300
     19 C31        -5.7110   -1.0390    0.5600 c         1 BCV      0.916600
     20 O42        -5.8980   -0.0440    1.3140 o         1 BCV     -0.831300
     21 O43        -6.4800   -2.0330    0.4700 o         1 BCV     -0.831300
     22 C32        -4.7300   -0.5130   -1.7300 cx        1 BCV     -0.121700
     23 C37        -6.0590   -0.8180   -2.3650 cx        1 BCV     -0.141400
     24 C33        -5.7490    0.5800   -1.9150 cx        1 BCV     -0.141400
     25 H141        6.2050    0.5800   -2.4890 hn        1 BCV      0.329800
     26 H142        5.0900   -0.5730   -2.3580 hn        1 BCV      0.329800
     27 H2          5.8360    1.1620   -0.1430 h1        1 BCV      0.042700
     28 H3C1        4.5820   -1.6770   -0.2390 hc        1 BCV      0.047200
     29 H3C2        5.1850   -0.8300    1.2410 hc        1 BCV      0.047200
     30 H4C1        3.5740    1.0770    0.7600 hc        1 BCV      0.046700
     31 H4C2        2.9440    0.1660   -0.6670 hc        1 BCV      0.046700
     32 H7C1        2.2650   -1.7350    0.8250 hc        1 BCV      0.065700
     33 H7C2        2.9610   -0.8700    2.2590 hc        1 BCV      0.065700
     34 H11         0.4980   -0.3380   -0.4200 hn        1 BCV      0.334500
     35 H12        -1.3130    0.6040    1.6900 h1        1 BCV      0.099700
     36 H161       -0.8110    2.1210   -0.9740 h1        1 BCV      0.081700
     37 H162       -2.3660    2.2250   -0.0510 h1        1 BCV      0.081700
     38 H17         0.3140    2.6650    1.7310 hs        1 BCV      0.253800
     39 H29        -3.6130    0.2400    1.0470 hn        1 BCV      0.335500
     40 H30        -4.1180   -2.1410   -0.4820 h1        1 BCV      0.062700
     41 H32        -3.8330   -0.5050   -2.3830 hc        1 BCV      0.072700
     42 H371       -6.0900   -1.0410   -3.4450 hc        1 BCV      0.069450
     43 H372       -6.7880   -1.4150   -1.7820 hc        1 BCV      0.069450
     44 H331       -6.2590    0.9700   -1.0120 hc        1 BCV      0.069450
     45 H332       -5.5610    1.3620   -2.6700 hc        1 BCV      0.069450
@<TRIPOS>BOND
     1    1    2 1   
     2    1   25 1   
     3    1   26 1   
     4    2    3 1   
     5    2    6 1   
     6    2   27 1   
     7    3    4 1   
     8    3    5 1   
     9    6    7 1   
    10    6   28 1   
    11    6   29 1   
    12    7    8 1   
    13    7   30 1   
    14    7   31 1   
    15    8    9 1   
    16    8   32 1   
    17    8   33 1   
    18    9   10 2   
    19    9   11 1   
    20   11   12 1   
    21   11   34 1   
    22   12   13 1   
    23   12   15 1   
    24   12   35 1   
    25   13   14 1   
    26   13   36 1   
    27   13   37 1   
    28   14   38 1   
    29   15   16 2   
    30   15   17 1   
    31   17   18 1   
    32   17   39 1   
    33   18   19 1   
    34   18   22 1   
    35   18   40 1   
    36   19   20 1   
    37   19   21 1   
    38   22   23 1   
    39   22   24 1   
    40   22   41 1   
    41   23   24 1   
    42   23   42 1   
    43   23   43 1   
    44   24   44 1   
    45   24   45 1   
@<TRIPOS>SUBSTRUCTURE
     1 BCV         1 TEMP              0 ****  ****    0 ROOT
