@<TRIPOS>MOLECULE
BCX
   16    14     1     0     0
SMALL
bcc


@<TRIPOS>ATOM
      1 C          -1.9720    1.1950   -0.6970 c1        1 BCX      0.328000
      2 N           0.0610   -0.9520   -1.1880 n3        1 BCX     -0.339000
      3 CA         -0.0990   -0.2390    0.0330 c3        1 BCX     -0.032000
      4 CB          1.2120   -0.2270    0.7850 c3        1 BCX     -0.265000
      5 CC         -0.5220    1.1810   -0.2650 c2        1 BCX     -0.224000
      6 SG          1.5020   -1.8260    1.4930 sh        1 BCX     -0.133000
      7 H2         -0.3070   -1.7860   -1.1050 hn        1 BCX      0.126500
      8 HA         -0.7830   -0.6750    0.5780 h1        1 BCX      0.120000
      9 HB          1.1730    0.4430    1.4970 h1        1 BCX      0.132500
     10 HBA         1.9390   -0.0060    0.1690 h1        1 BCX      0.132500
     11 HC1        -0.4170    1.7280    0.5390 ha        1 BCX      0.072500
     12 HC2         0.0350    1.5440   -0.9820 ha        1 BCX      0.072500
     13 O          -2.8840    1.0050    0.1500 o         1 BCX     -0.584000
     14 OXT        -2.2670    1.3970   -1.9040 o         1 BCX     -0.584000
     15 H           0.9530   -1.0290   -1.3810 hn        1 BCX      0.126500
     16 HG          2.3770   -1.7550    2.2770 hs        1 BCX      0.052000
@<TRIPOS>BOND
     1    1   13 1   
     2    1   14 1   
     3    2    3 1   
     4    2    7 1   
     5    2   15 1   
     6    3    4 1   
     7    3    5 1   
     8    3    8 1   
     9    4    6 1   
    10    4    9 1   
    11    4   10 1   
    12    5   11 1   
    13    5   12 1   
    14    6   16 1   
@<TRIPOS>SUBSTRUCTURE
     1 BCX         1 TEMP              0 ****  ****    0 ROOT
