@<TRIPOS>MOLECULE
BCX
   16    15     1     0     0
SMALL
bcc


@<TRIPOS>ATOM
      1 C           2.1440   -0.1440   -0.0660 c         1 BCX      0.908600
      2 N          -0.4210    1.0830   -1.0800 n3        1 BCX     -0.896800
      3 CA         -0.3980    0.0690   -0.0370 c3        1 BCX      0.186500
      4 CB         -1.6710   -0.7860   -0.0350 c3        1 BCX      0.020700
      5 CC          0.7980   -0.8910   -0.0900 c3        1 BCX     -0.233400
      6 SG         -3.0790    0.2020    0.4080 sh        1 BCX     -0.373900
      7 HA         -0.3520    0.6230    0.9500 h1        1 BCX      0.065700
      8 HB         -1.8370   -1.2460   -1.0380 h1        1 BCX      0.047200
      9 HBA        -1.5460   -1.6080    0.7090 h1        1 BCX      0.047200
     10 HC1         0.7540   -1.5010   -1.0260 hc        1 BCX      0.027200
     11 HC2         0.7550   -1.5850    0.7860 hc        1 BCX      0.027200
     12 O           2.9500   -0.4180    0.8660 o         1 BCX     -0.846800
     13 OXT         2.3890    0.6880   -0.9890 o         1 BCX     -0.846800
     14 HG         -3.9040   -0.7790    0.7160 hs        1 BCX      0.155800
     15 H2          0.4160    1.6410   -0.9870 hn        1 BCX      0.355300
     16 H          -0.3690    0.6330   -1.9750 hn        1 BCX      0.355300
@<TRIPOS>BOND
     1    1    5 1   
     2    1   12 1   
     3    1   13 1   
     4    2    3 1   
     5    2   15 1   
     6    2   16 1   
     7    3    4 1   
     8    3    5 1   
     9    3    7 1   
    10    4    6 1   
    11    4    8 1   
    12    4    9 1   
    13    5   10 1   
    14    5   11 1   
    15    6   14 1   
@<TRIPOS>SUBSTRUCTURE
     1 BCX         1 TEMP              0 ****  ****    0 ROOT
