@<TRIPOS>MOLECULE
BCY
   30    30     1     0     0
SMALL
bcc


@<TRIPOS>ATOM
      1 N           1.6800   -1.5220   -1.5830 n3        1 BCY     -1.059400
      2 N2         -1.5980   -1.1900   -2.1380 nh        1 BCY     -0.032900
      3 N3         -1.3630   -0.1350   -3.0180 n3        1 BCY     -0.516900
      4 CB         -0.7000   -0.0110    1.3530 c3        1 BCY     -0.071900
      5 C1         -1.0560   -1.2060   -0.8490 ce        1 BCY      0.598900
      6 C2         -0.8380    0.0220   -0.1150 ce        1 BCY     -0.206800
      7 C3         -0.7410    1.1330   -0.8950 c2        1 BCY     -0.025200
      8 C4         -0.9010    1.1190   -2.3790 c3        1 BCY      0.122000
      9 C6         -0.4680   -0.6590   -4.0960 c3        1 BCY      0.110800
     10 C7         -0.4440   -2.2060   -3.9980 c3        1 BCY     -0.083400
     11 C8         -1.3180   -2.5230   -2.7720 c3        1 BCY     -0.067000
     12 C9         -0.7170   -3.3200   -1.6290 c         1 BCY      0.719600
     13 O2         -0.2650   -4.4110   -1.4050 o         1 BCY     -0.400500
     14 HN1         1.8280   -2.4450   -1.2220 hn        1 BCY      0.354800
     15 HN2         2.0240   -0.8660   -0.9100 hn        1 BCY      0.354800
     16 HB1        -0.2540    0.9450    1.7300 hc        1 BCY      0.080700
     17 HB2        -1.7050   -0.1440    1.8320 hc        1 BCY      0.080700
     18 HB3        -0.0470   -0.8640    1.6680 hc        1 BCY      0.080700
     19 H31         0.3420    3.4780    1.8580 ha        1 BCY      0.001000
     20 H32        -0.5100    2.1200   -0.4500 ha        1 BCY      0.193000
     21 H41         0.2670    3.0790    1.3150 ha        1 BCY      0.001000
     22 H42        -1.7150    1.8630   -2.6530 h1        1 BCY      0.120200
     23 H61         0.0640    1.4850   -2.8410 h1        1 BCY      0.120200
     24 H62        -0.9400   -0.3260   -5.0610 h1        1 BCY      0.093700
     25 H71         0.5760   -0.2500   -4.0350 h1        1 BCY      0.093700
     26 H72         0.5980   -2.5870   -3.8750 hc        1 BCY      0.100200
     27 H8         -0.8870   -2.6660   -4.9150 hc        1 BCY      0.100200
     28 H9         -2.2990   -3.0000   -3.0680 h1        1 BCY      0.165700
     29 O1         -0.7630   -2.4500   -0.4340 os        1 BCY     -0.383700
     30 HN3         2.2170   -1.4220   -2.4220 hn        1 BCY      0.354800
@<TRIPOS>BOND
     1    1   14 1   
     2    1   15 1   
     3    1   30 1   
     4    2    3 1   
     5    2    5 2   
     6    2   11 1   
     7    3    8 1   
     8    3    9 1   
     9    4    6 1   
    10    4   16 1   
    11    4   17 1   
    12    4   18 1   
    13    5    6 1   
    14    5   29 1   
    15    6    7 2   
    16    7    8 1   
    17    7   20 1   
    18    8   22 1   
    19    8   23 1   
    20    9   10 1   
    21    9   24 1   
    22    9   25 1   
    23   10   11 1   
    24   10   26 1   
    25   10   27 1   
    26   11   12 1   
    27   11   28 1   
    28   12   13 2   
    29   12   29 1   
    30   19   21 1   
@<TRIPOS>SUBSTRUCTURE
     1 BCY         1 TEMP              0 ****  ****    0 ROOT
