@<TRIPOS>MOLECULE
BCY
   29    30     1     0     0
SMALL
bcc


@<TRIPOS>ATOM
      1 N           1.3700   -1.0590   -2.8460 n3        1 BCY     -0.885800
      2 N2          0.0050    0.2190    0.3870 n         1 BCY     -0.352200
      3 N3         -1.2830    0.6130    0.0240 n3        1 BCY     -0.433600
      4 CB          0.4560    1.2090   -2.5840 c3        1 BCY     -0.091100
      5 C1          0.9430   -0.1680   -0.5590 c         1 BCY      0.667500
      6 C2          0.4780   -0.2280   -2.0420 c3        1 BCY      0.140200
      7 C3         -0.9490   -0.8190   -2.0560 c3        1 BCY     -0.077400
      8 C4         -1.9050   -0.2020   -1.0390 c3        1 BCY      0.119800
      9 C6         -2.1070    0.6590    1.2610 c3        1 BCY      0.129800
     10 C7         -1.1770    0.4330    2.4640 c3        1 BCY     -0.094400
     11 C8          0.1910    0.0830    1.8400 c3        1 BCY     -0.011300
     12 C9          0.7080   -1.2790    2.2810 c         1 BCY      0.549900
     13 O2          0.3000   -1.8290    3.3030 o         1 BCY     -0.523100
     14 HN1         1.4660   -1.9650   -2.4300 hn        1 BCY      0.361800
     15 HN2         2.2750   -0.6290   -2.8960 hn        1 BCY      0.361800
     16 HB1         1.4510    1.6940   -2.4350 hc        1 BCY      0.054700
     17 HB2         0.2200    1.2000   -3.6760 hc        1 BCY      0.054700
     18 HB3        -0.3190    1.8140   -2.0590 hc        1 BCY      0.054700
     19 H31        -1.3780   -0.6790   -3.0830 hc        1 BCY      0.061200
     20 H32        -0.8930   -1.9240   -1.8640 hc        1 BCY      0.061200
     21 H41        -2.5880    0.5290   -1.5580 h1        1 BCY      0.051700
     22 H42        -2.5490   -1.0320   -0.6250 h1        1 BCY      0.051700
     23 H61        -2.5580    1.6860    1.2860 h1        1 BCY      0.061200
     24 H62        -2.9390   -0.0960    1.2580 h1        1 BCY      0.061200
     25 H71        -1.0960    1.3570    3.0830 hc        1 BCY      0.075700
     26 H72        -1.5450   -0.3990    3.1130 hc        1 BCY      0.075700
     27 H8          0.9790    0.8310    2.1550 h1        1 BCY      0.095700
     28 H9          1.5090   -1.7170    1.6460 h4        1 BCY      0.039200
     29 O1          2.1060   -0.4550   -0.2140 o         1 BCY     -0.661500
@<TRIPOS>BOND
     1    1    6 1   
     2    1   14 1   
     3    1   15 1   
     4    2    3 1   
     5    2    5 1   
     6    2   11 1   
     7    3    8 1   
     8    3    9 1   
     9    4    6 1   
    10    4   16 1   
    11    4   17 1   
    12    4   18 1   
    13    5    6 1   
    14    5   29 2   
    15    6    7 1   
    16    7    8 1   
    17    7   19 1   
    18    7   20 1   
    19    8   21 1   
    20    8   22 1   
    21    9   10 1   
    22    9   23 1   
    23    9   24 1   
    24   10   11 1   
    25   10   25 1   
    26   10   26 1   
    27   11   12 1   
    28   11   27 1   
    29   12   13 2   
    30   12   28 1   
@<TRIPOS>SUBSTRUCTURE
     1 BCY         1 TEMP              0 ****  ****    0 ROOT
