@<TRIPOS>MOLECULE
BCY
   29    30     1     0     0
SMALL
bcc


@<TRIPOS>ATOM
      1 N           1.8300    0.5030    1.6970 n3        1 BCY     -0.904800
      2 N2         -0.0760   -0.6860   -0.4250 n         1 BCY     -0.310200
      3 N3         -0.4570    0.6420   -1.0830 n3        1 BCY     -0.442600
      4 O1         -0.3300   -1.7230    1.5950 o         1 BCY     -0.638500
      5 CB          0.0910    0.6310    3.1930 c3        1 BCY     -0.127100
      6 C1         -0.2400   -0.6760    0.9860 c         1 BCY      0.695500
      7 C2          0.4100    0.5910    1.6800 c3        1 BCY      0.119200
      8 C3         -0.0450    1.8150    1.0040 c3        1 BCY     -0.069400
      9 C4          0.1390    1.7590   -0.5100 c3        1 BCY      0.120800
     10 C6         -0.7920    0.3550   -2.2610 c3        1 BCY      0.124800
     11 C7         -1.3510   -1.1490   -2.2420 c3        1 BCY     -0.088400
     12 C8         -0.5650   -1.8240   -1.3970 c3        1 BCY     -0.031300
     13 C9          0.5890   -2.6100   -2.0910 c         1 BCY      0.552900
     14 O2          1.7480   -2.3360   -1.8410 o         1 BCY     -0.525100
     15 HN1         2.0860   -0.2080    2.2150 hn        1 BCY      0.361300
     16 HN2         2.1790    1.2750    2.0440 hn        1 BCY      0.361300
     17 HB1         0.3920    1.4850    3.5680 hc        1 BCY      0.052033
     18 HB2         0.5540   -0.1050    3.6450 hc        1 BCY      0.052033
     19 HB3        -0.8760    0.5390    3.3260 hc        1 BCY      0.052033
     20 H31        -0.9930    1.9490    1.2020 hc        1 BCY      0.061700
     21 H32         0.4620    2.5750    1.3550 hc        1 BCY      0.061700
     22 H41        -0.2550    2.5650   -0.9050 h1        1 BCY      0.057200
     23 H42         1.0980    1.7440   -0.7110 h1        1 BCY      0.057200
     24 H61        -1.4930    0.9680   -2.5680 h1        1 BCY      0.059700
     25 H62        -0.0140    0.4150   -2.8540 h1        1 BCY      0.059700
     26 H71        -2.2400   -1.1140   -1.8330 hc        1 BCY      0.073700
     27 H72        -1.1900   -1.5210   -3.1340 hc        1 BCY      0.073700
     28 H8         -1.0440   -2.5360   -0.9290 h1        1 BCY      0.105700
     29 H9          0.3820   -3.3230   -2.7280 h4        1 BCY      0.035200
@<TRIPOS>BOND
     1    1    7 1   
     2    1   15 1   
     3    1   16 1   
     4    2    3 1   
     5    2    6 1   
     6    2   12 1   
     7    3    9 1   
     8    3   10 1   
     9    4    6 2   
    10    5    7 1   
    11    5   17 1   
    12    5   18 1   
    13    5   19 1   
    14    6    7 1   
    15    7    8 1   
    16    8    9 1   
    17    8   20 1   
    18    8   21 1   
    19    9   22 1   
    20    9   23 1   
    21   10   11 1   
    22   10   24 1   
    23   10   25 1   
    24   11   12 1   
    25   11   26 1   
    26   11   27 1   
    27   12   13 1   
    28   12   28 1   
    29   13   14 2   
    30   13   29 1   
@<TRIPOS>SUBSTRUCTURE
     1 BCY         1 TEMP              0 ****  ****    0 ROOT
