@<TRIPOS>MOLECULE
BCY
   30    29     1     0     0
SMALL
bcc


@<TRIPOS>ATOM
      1 N           1.5840   -0.8870    0.1330 nz        1 BCY     -0.116000
      2 N2         -1.0410   -1.0340   -2.4730 n         1 BCY     -0.191000
      3 N3         -1.1210    0.2920   -2.8910 n3        1 BCY     -0.098000
      4 CB         -0.7660   -0.4380    0.8090 c3        1 BCY     -0.242000
      5 C1         -0.2900   -1.4620   -1.3920 c2        1 BCY      0.280000
      6 C2          0.2330   -0.4200   -0.3550 c3        1 BCY     -0.036000
      7 C3          0.3290    0.9920   -0.9450 c3        1 BCY     -0.213000
      8 C4         -0.8980    1.2640   -1.8100 c3        1 BCY     -0.100000
      9 C6         -0.2750    0.5990   -4.0580 c3        1 BCY     -0.169000
     10 C7         -2.6390   -1.7880   -4.1990 c2        1 BCY     -0.204000
     11 C8         -1.7360   -2.0260   -3.2410 c2        1 BCY     -0.055000
     12 C9          1.5700   -3.6350    0.5690 c1        1 BCY      0.131000
     13 O2          1.3900   -4.7820    0.5510 o         1 BCY     -0.060000
     14 HN1         1.5460   -1.9500    0.3330 hn        1 BCY      0.267000
     15 HN2         1.8260   -0.3850    0.9860 hn        1 BCY      0.267000
     16 HB1        -0.4630    0.2810    1.6080 hc        1 BCY      0.123333
     17 HB2        -1.7740   -0.1380    0.4260 hc        1 BCY      0.123333
     18 HB3        -0.8540   -1.4650    1.2430 hc        1 BCY      0.123333
     19 H31         0.3710    1.7500   -0.1190 hc        1 BCY      0.117500
     20 H32         1.2560    1.1100   -1.5680 hc        1 BCY      0.117500
     21 H41        -1.8260    1.2720   -1.1690 h1        1 BCY      0.135500
     22 H42        -0.8010    2.2840   -2.2780 h1        1 BCY      0.135500
     23 H61         0.8210    0.6530   -3.8250 h1        1 BCY      0.102667
     24 H62        -0.6230    1.5940   -4.4420 h1        1 BCY      0.102667
     25 H71        -0.4410   -0.1690   -4.8600 h1        1 BCY      0.102667
     26 H72        -2.9640   -0.7950   -4.5310 ha        1 BCY      0.146000
     27 H8         -3.1180   -2.6360   -4.7110 ha        1 BCY      0.146000
     28 H9         -1.4510   -3.0540   -2.9360 h4        1 BCY      0.178000
     29 O1         -0.0800   -2.6700   -1.1460 o         1 BCY     -0.380000
     30 HN3         2.2910   -0.7090   -0.5780 hn        1 BCY      0.267000
@<TRIPOS>BOND
     1    1    6 1   
     2    1   14 1   
     3    1   15 1   
     4    1   30 1   
     5    2    3 1   
     6    2    5 1   
     7    2   11 1   
     8    3    8 1   
     9    3    9 1   
    10    4    6 1   
    11    4   16 1   
    12    4   17 1   
    13    4   18 1   
    14    5    6 1   
    15    5   29 1   
    16    6    7 1   
    17    7    8 1   
    18    7   19 1   
    19    7   20 1   
    20    8   21 1   
    21    8   22 1   
    22    9   23 1   
    23    9   24 1   
    24    9   25 1   
    25   10   11 1   
    26   10   26 1   
    27   10   27 1   
    28   11   28 1   
    29   12   13 1   
@<TRIPOS>SUBSTRUCTURE
     1 BCY         1 TEMP              0 ****  ****    0 ROOT
