@<TRIPOS>MOLECULE
BCZ
   50    50     1     0     0
SMALL
bcc


@<TRIPOS>ATOM
      1 C2         -0.0190    0.0510   -0.2050 c3        1 BCZ      0.159500
      2 N25        -0.4410    0.5330   -1.5130 nh        1 BCZ     -0.833200
      3 C26        -1.8480    0.9220   -1.5550 c2        1 BCZ      0.744100
      4 N30        -2.8060    0.0880   -1.8660 n2        1 BCZ     -0.863100
      5 N27        -2.1470    2.3040   -1.3530 nh        1 BCZ     -0.908800
      6 C3          1.5240   -0.0970   -0.0620 c3        1 BCZ     -0.086700
      7 C10         2.1100   -1.3570   -0.7310 c3        1 BCZ      0.112700
      8 C24         3.6100   -1.1890   -1.1110 c3        1 BCZ     -0.061700
      9 C37         4.4010   -0.5320    0.0100 c3        1 BCZ     -0.078900
     10 C38         5.8650   -0.3750   -0.3150 c3        1 BCZ     -0.089100
     11 C36         4.2070   -2.5520   -1.4660 c3        1 BCZ     -0.078900
     12 C39         5.0240   -2.4990   -2.7330 c3        1 BCZ     -0.089100
     13 N11         1.3340   -1.8310   -1.8690 n         1 BCZ     -0.536900
     14 C13         1.2230   -1.1570   -3.0780 c         1 BCZ      0.667100
     15 C15         0.1800   -1.6800   -4.0450 c3        1 BCZ     -0.176100
     16 O14         1.9660   -0.2130   -3.4160 o         1 BCZ     -0.625100
     17 C4          1.7730   -0.0010    1.4630 c3        1 BCZ      0.163100
     18 O9          2.2450   -1.2270    2.0030 oh        1 BCZ     -0.638800
     19 C5          0.4480    0.4010    2.1330 c3        1 BCZ     -0.226700
     20 C6          0.7170    1.4140    3.2650 c         1 BCZ      0.918600
     21 O8          1.5710    1.0560    4.1280 o         1 BCZ     -0.838300
     22 O7          0.0930    2.5090    3.2730 o         1 BCZ     -0.838300
     23 C1         -0.4350    0.9040    1.0130 c3        1 BCZ     -0.089400
     24 H21        -0.4960   -0.9660   -0.0740 h1        1 BCZ      0.046700
     25 H251        0.1590    1.2680   -1.8430 hn        1 BCZ      0.392800
     26 H301       -2.5060   -0.8370   -2.0830 hn        1 BCZ      0.388400
     27 H271       -1.6430    2.7040   -0.5870 hn        1 BCZ      0.397800
     28 H272       -3.1240    2.5020   -1.3040 hn        1 BCZ      0.397800
     29 H31         2.0090    0.8000   -0.5390 hc        1 BCZ      0.061700
     30 H101        2.0580   -2.1970    0.0320 h1        1 BCZ      0.078700
     31 H241        3.6700   -0.5120   -2.0110 hc        1 BCZ      0.078700
     32 H371        4.2750   -1.1240    0.9560 hc        1 BCZ      0.047200
     33 H372        3.9830    0.4930    0.2030 hc        1 BCZ      0.047200
     34 H381        6.3720    0.2090    0.4920 hc        1 BCZ      0.026200
     35 H382        6.3730   -1.3660   -0.3980 hc        1 BCZ      0.026200
     36 H383        6.0000    0.1690   -1.2820 hc        1 BCZ      0.026200
     37 H361        4.8480   -2.9140   -0.6190 hc        1 BCZ      0.047200
     38 H362        3.4020   -3.3220   -1.5950 hc        1 BCZ      0.047200
     39 H391        4.3900   -2.1750   -3.5940 hc        1 BCZ      0.026200
     40 H392        5.4500   -3.5050   -2.9630 hc        1 BCZ      0.026200
     41 H393        5.8670   -1.7730   -2.6290 hc        1 BCZ      0.026200
     42 H111        0.5160   -2.3330   -1.5990 hn        1 BCZ      0.289500
     43 H151        0.3350   -1.1940   -5.0380 hc        1 BCZ      0.057367
     44 H152        0.2560   -2.7860   -4.1650 hc        1 BCZ      0.057367
     45 H153       -0.8390   -1.4180   -3.6700 hc        1 BCZ      0.057367
     46 H41         2.5490    0.7920    1.6620 h1        1 BCZ      0.055700
     47 HO91        2.2810   -1.0710    2.9610 ho        1 BCZ      0.436000
     48 H51        -0.0160   -0.5040    2.6080 hc        1 BCZ      0.050700
     49 H11        -1.5180    0.7750    1.2460 hc        1 BCZ      0.051700
     50 H12        -0.2380    1.9940    0.8510 hc        1 BCZ      0.051700
@<TRIPOS>BOND
     1    1    2 1   
     2    1    6 1   
     3    1   23 1   
     4    1   24 1   
     5    2    3 1   
     6    2   25 1   
     7    3    4 2   
     8    3    5 1   
     9    4   26 1   
    10    5   27 1   
    11    5   28 1   
    12    6    7 1   
    13    6   17 1   
    14    6   29 1   
    15    7    8 1   
    16    7   13 1   
    17    7   30 1   
    18    8    9 1   
    19    8   11 1   
    20    8   31 1   
    21    9   10 1   
    22    9   32 1   
    23    9   33 1   
    24   10   34 1   
    25   10   35 1   
    26   10   36 1   
    27   11   12 1   
    28   11   37 1   
    29   11   38 1   
    30   12   39 1   
    31   12   40 1   
    32   12   41 1   
    33   13   14 1   
    34   13   42 1   
    35   14   15 1   
    36   14   16 2   
    37   15   43 1   
    38   15   44 1   
    39   15   45 1   
    40   17   18 1   
    41   17   19 1   
    42   17   46 1   
    43   18   47 1   
    44   19   20 1   
    45   19   23 1   
    46   19   48 1   
    47   20   21 1   
    48   20   22 1   
    49   23   49 1   
    50   23   50 1   
@<TRIPOS>SUBSTRUCTURE
     1 BCZ         1 TEMP              0 ****  ****    0 ROOT
