@<TRIPOS>MOLECULE
BCZ
   50    50     1     0     0
SMALL
bcc


@<TRIPOS>ATOM
      1 C2         -1.3500    0.3950   -0.2820 c3        1 BCZ      0.156500
      2 N25        -2.1830   -0.3700    0.6370 nh        1 BCZ     -0.775200
      3 C26        -3.6060   -0.1820    0.3880 c2        1 BCZ      0.747100
      4 N30        -4.2160    0.7850    1.0240 n2        1 BCZ     -0.841100
      5 N27        -4.2530   -1.1430   -0.4580 nh        1 BCZ     -0.966800
      6 C3          0.1620    0.0440   -0.1770 c3        1 BCZ     -0.085700
      7 C10         0.8780    0.6910    1.0270 c3        1 BCZ      0.112700
      8 C24         2.1470   -0.0970    1.4620 c3        1 BCZ     -0.062700
      9 C37         2.9840   -0.5220    0.2650 c3        1 BCZ     -0.078400
     10 C38         4.2360   -1.2670    0.6540 c3        1 BCZ     -0.089100
     11 C36         2.9750    0.7550    2.4250 c3        1 BCZ     -0.078400
     12 C39         3.4240   -0.0300    3.6330 c3        1 BCZ     -0.089100
     13 N11         0.0030    0.9420    2.1640 n         1 BCZ     -0.534900
     14 C13        -0.5650   -0.0570    2.9490 c         1 BCZ      0.671100
     15 C15        -1.6510    0.3820    3.9090 c3        1 BCZ     -0.182100
     16 O14        -0.1810   -1.2450    2.9420 o         1 BCZ     -0.635100
     17 C4          0.7370    0.4290   -1.5610 c3        1 BCZ      0.163100
     18 O9          1.6250    1.5350   -1.4740 oh        1 BCZ     -0.635800
     19 C5         -0.4440    0.7660   -2.4880 c3        1 BCZ     -0.225700
     20 C6         -0.2040    0.1740   -3.8930 c         1 BCZ      0.918600
     21 O8          0.8940    0.4840   -4.4410 o         1 BCZ     -0.839300
     22 O7         -1.0890   -0.5610   -4.4080 o         1 BCZ     -0.839300
     23 C1         -1.6780    0.2490   -1.7830 c3        1 BCZ     -0.091400
     24 H21        -1.4950    1.4830   -0.0140 h1        1 BCZ      0.062700
     25 H251       -1.9440   -1.3460    0.6220 hn        1 BCZ      0.386800
     26 H301       -5.1910    0.8650    0.8270 hn        1 BCZ      0.372400
     27 H271       -5.1120   -0.8360   -0.8560 hn        1 BCZ      0.393300
     28 H272       -3.6610   -1.5810   -1.1310 hn        1 BCZ      0.393300
     29 H31         0.2610   -1.0730   -0.0720 hc        1 BCZ      0.059700
     30 H101        1.2290    1.7180    0.6930 h1        1 BCZ      0.076700
     31 H241        1.8130   -1.0350    1.9920 hc        1 BCZ      0.079700
     32 H371        3.2460    0.3820   -0.3490 hc        1 BCZ      0.046450
     33 H372        2.3720   -1.2000   -0.3880 hc        1 BCZ      0.046450
     34 H381        4.7500   -1.6470   -0.2620 hc        1 BCZ      0.025700
     35 H382        4.9490   -0.6070    1.2040 hc        1 BCZ      0.025700
     36 H383        3.9900   -2.1380    1.3090 hc        1 BCZ      0.025700
     37 H361        3.8720    1.1650    1.8890 hc        1 BCZ      0.046450
     38 H362        2.3920    1.6450    2.7780 hc        1 BCZ      0.046450
     39 H391        4.0270    0.6160    4.3150 hc        1 BCZ      0.025700
     40 H392        2.5400   -0.4170    4.1970 hc        1 BCZ      0.025700
     41 H393        4.0510   -0.9030    3.3270 hc        1 BCZ      0.025700
     42 H111       -0.5890    1.7340    2.0280 hn        1 BCZ      0.293500
     43 H151       -1.8700   -0.4550    4.6130 hc        1 BCZ      0.062033
     44 H152       -1.3360    1.2780    4.4940 hc        1 BCZ      0.062033
     45 H153       -2.5760    0.6250    3.3310 hc        1 BCZ      0.062033
     46 H41         1.3070   -0.4460   -1.9850 h1        1 BCZ      0.055700
     47 HO91        1.8560    1.7340   -2.3950 ho        1 BCZ      0.433000
     48 H51        -0.5120    1.8800   -2.6100 hc        1 BCZ      0.051700
     49 H11        -2.5870    0.8350   -2.0560 hc        1 BCZ      0.048200
     50 H12        -1.8490   -0.8180   -2.0770 hc        1 BCZ      0.048200
@<TRIPOS>BOND
     1    1    2 1   
     2    1    6 1   
     3    1   23 1   
     4    1   24 1   
     5    2    3 1   
     6    2   25 1   
     7    3    4 2   
     8    3    5 1   
     9    4   26 1   
    10    5   27 1   
    11    5   28 1   
    12    6    7 1   
    13    6   17 1   
    14    6   29 1   
    15    7    8 1   
    16    7   13 1   
    17    7   30 1   
    18    8    9 1   
    19    8   11 1   
    20    8   31 1   
    21    9   10 1   
    22    9   32 1   
    23    9   33 1   
    24   10   34 1   
    25   10   35 1   
    26   10   36 1   
    27   11   12 1   
    28   11   37 1   
    29   11   38 1   
    30   12   39 1   
    31   12   40 1   
    32   12   41 1   
    33   13   14 1   
    34   13   42 1   
    35   14   15 1   
    36   14   16 2   
    37   15   43 1   
    38   15   44 1   
    39   15   45 1   
    40   17   18 1   
    41   17   19 1   
    42   17   46 1   
    43   18   47 1   
    44   19   20 1   
    45   19   23 1   
    46   19   48 1   
    47   20   21 1   
    48   20   22 1   
    49   23   49 1   
    50   23   50 1   
@<TRIPOS>SUBSTRUCTURE
     1 BCZ         1 TEMP              0 ****  ****    0 ROOT
