@<TRIPOS>MOLECULE
BCZ
   53    53     1     0     0
SMALL
bcc


@<TRIPOS>ATOM
      1 C2          0.0000    0.0000    0.0000 c3        1 BCZ     -0.146500
      2 N25        -0.5280    0.5520   -1.2500 ny        1 BCZ      0.075000
      3 C26        -1.7820    0.1960   -1.6830 c2        1 BCZ     -0.213900
      4 N30        -2.2780    0.7120   -2.8560 n2        1 BCZ     -0.426100
      5 N27        -2.5030   -0.6330   -0.9810 nz        1 BCZ      0.273400
      6 C3          1.5480    0.0000    0.0000 c3        1 BCZ     -0.065700
      7 C10         2.0840   -1.2550   -0.6890 c3        1 BCZ     -0.025500
      8 C24         3.6040   -1.1550   -0.8250 c3        1 BCZ     -0.060700
      9 C37         4.2420   -1.1780    0.5650 c3        1 BCZ     -0.059900
     10 C38         5.7610   -1.0480    0.4320 c3        1 BCZ     -0.016100
     11 C36         4.1230   -2.3360   -1.6450 c3        1 BCZ     -0.059900
     12 C39         3.6430   -2.2030   -3.0920 c3        1 BCZ     -0.016100
     13 N11         1.4830   -1.3760   -2.0200 ny        1 BCZ      0.009200
     14 C13         1.5660   -0.3530   -2.8920 c         1 BCZ      0.335100
     15 C15         0.8780   -0.4450   -4.2300 c3        1 BCZ     -0.068100
     16 O14         2.1960    0.6410   -2.6010 o         1 BCZ     -0.399100
     17 C4          1.9300    0.0000    1.4940 c3        1 BCZ      0.191100
     18 O9          2.1830   -1.3350    1.9340 oh        1 BCZ     -0.619800
     19 C5          0.7300    0.5880    2.2550 c3        1 BCZ     -0.181700
     20 C6          1.1440    1.8380    2.9880 c         1 BCZ      0.931600
     21 O8          2.2850    2.2290    2.9170 o         1 BCZ     -0.613300
     22 O7          0.2470    2.5170    3.7200 o         1 BCZ     -0.613300
     23 C1         -0.3400    0.9270    1.1960 c3        1 BCZ      0.020600
     24 H21        -0.3800   -0.9990    0.1740 hx        1 BCZ      0.075700
     25 H251       -0.5270    1.5480   -1.1510 hn        1 BCZ      0.239300
     26 H301       -1.7270    1.3490   -3.3960 hn        1 BCZ      0.368400
     27 H271       -2.0130   -1.5000   -0.8810 hn        1 BCZ      0.215467
     28 H272       -2.6770   -0.2420   -0.0770 hn        1 BCZ      0.215467
     29 H31         1.9240    0.8940   -0.4840 hc        1 BCZ      0.096700
     30 H101        1.8300   -2.1270   -0.0980 hx        1 BCZ      0.129700
     31 H241        3.8620   -0.2290   -1.3240 hc        1 BCZ      0.069700
     32 H371        3.8600   -0.3520    1.1520 hc        1 BCZ      0.059950
     33 H372        4.0020   -2.1130    1.0580 hc        1 BCZ      0.059950
     34 H381        6.1710   -0.6460    1.3500 hc        1 BCZ      0.019533
     35 H382        6.1920   -2.0240    0.2410 hc        1 BCZ      0.019533
     36 H383        5.9960   -0.3830   -0.3900 hc        1 BCZ      0.019533
     37 H361        5.2060   -2.3440   -1.6240 hc        1 BCZ      0.059950
     38 H362        3.7470   -3.2610   -1.2240 hc        1 BCZ      0.059950
     39 H391        3.3220   -1.1840   -3.2730 hc        1 BCZ      0.019533
     40 H392        4.4540   -2.4510   -3.7660 hc        1 BCZ      0.019533
     41 H393        2.8130   -2.8780   -3.2610 hc        1 BCZ      0.019533
     42 H111        0.5090   -1.5640   -1.8830 hn        1 BCZ      0.288800
     43 H151        1.5890   -0.7700   -4.9800 hc        1 BCZ      0.065700
     44 H152        0.0650   -1.1590   -4.1690 hc        1 BCZ      0.065700
     45 H153        0.4850    0.5270   -4.5010 hc        1 BCZ      0.065700
     46 H41         2.8040    0.6190    1.6510 h1        1 BCZ      0.120700
     47 HO91        2.1640   -1.3650    2.8770 ho        1 BCZ      0.451000
     48 H51         0.3400   -0.1440    2.9510 hc        1 BCZ      0.074700
     49 H11        -1.3300    0.7050    1.5750 hc        1 BCZ      0.053200
     50 H12        -0.2640    1.9660    0.9010 hc        1 BCZ      0.053200
     51 H252        0.1140    0.2990   -1.9750 hn        1 BCZ      0.239300
     52 H273       -3.3730   -0.7950   -1.4480 hn        1 BCZ      0.215467
     53 H112        1.9070   -2.1690   -2.4590 hn        1 BCZ      0.288800
@<TRIPOS>BOND
     1    1    2 1   
     2    1    6 1   
     3    1   23 1   
     4    1   24 1   
     5    2    3 1   
     6    2   25 1   
     7    2   51 1   
     8    3    4 2   
     9    3    5 1   
    10    4   26 1   
    11    5   27 1   
    12    5   28 1   
    13    5   52 1   
    14    6    7 1   
    15    6   17 1   
    16    6   29 1   
    17    7    8 1   
    18    7   13 1   
    19    7   30 1   
    20    8    9 1   
    21    8   11 1   
    22    8   31 1   
    23    9   10 1   
    24    9   32 1   
    25    9   33 1   
    26   10   34 1   
    27   10   35 1   
    28   10   36 1   
    29   11   12 1   
    30   11   37 1   
    31   11   38 1   
    32   12   39 1   
    33   12   40 1   
    34   12   41 1   
    35   13   14 1   
    36   13   42 1   
    37   13   53 1   
    38   14   15 1   
    39   14   16 2   
    40   15   43 1   
    41   15   44 1   
    42   15   45 1   
    43   17   18 1   
    44   17   19 1   
    45   17   46 1   
    46   18   47 1   
    47   19   20 1   
    48   19   23 1   
    49   19   48 1   
    50   20   21 1   
    51   20   22 1   
    52   23   49 1   
    53   23   50 1   
@<TRIPOS>SUBSTRUCTURE
     1 BCZ         1 TEMP              0 ****  ****    0 ROOT
