@<TRIPOS>MOLECULE
BCZ
   50    49     1     0     0
SMALL
bcc


@<TRIPOS>ATOM
      1 C2          0.1710    1.6550    0.0490 c3        1 BCZ      0.197500
      2 N25         1.2850    1.7390    0.9730 nh        1 BCZ     -0.769000
      3 C26         1.7610    3.0330    1.4160 c2        1 BCZ      0.323000
      4 N30         1.6830    3.3620    2.6800 n1        1 BCZ     -0.380000
      5 N27         2.3140    3.9470    0.4760 nh        1 BCZ     -0.821600
      6 C3         -0.5280    0.5640    0.2830 c3        1 BCZ     -0.117700
      7 C10        -0.0400   -0.6060   -0.6510 c3        1 BCZ      0.108700
      8 C24        -0.3300   -1.9470    0.0170 c3        1 BCZ     -0.079700
      9 C37        -0.9760   -2.8840   -0.9880 c3        1 BCZ     -0.073400
     10 C38        -2.0710   -3.6870   -0.3030 c3        1 BCZ     -0.090100
     11 C36         0.9820   -2.5620    0.5190 c3        1 BCZ     -0.073400
     12 C39         0.6860   -3.5310    1.6680 c3        1 BCZ     -0.090100
     13 N11         1.3170   -0.4850   -0.8730 n         1 BCZ     -0.548900
     14 C13         1.8320   -0.5580   -2.2030 c         1 BCZ      0.652100
     15 C15         3.3110   -0.7670   -2.4310 c3        1 BCZ     -0.177100
     16 O14         1.0730   -0.4830   -3.1560 o         1 BCZ     -0.637100
     17 C4         -2.0310    0.9410   -0.0540 c3        1 BCZ      0.181100
     18 O9         -2.7990    0.5750    0.8950 oh        1 BCZ     -0.631800
     19 C5         -2.0780    2.5710   -0.2220 c3        1 BCZ     -0.223700
     20 C6         -3.2590    3.1270    0.5440 c         1 BCZ      0.912600
     21 O8         -3.1940    3.2560    1.7900 o         1 BCZ     -0.839800
     22 O7         -4.2750    3.5330   -0.0780 o         1 BCZ     -0.839800
     23 C1         -0.8540    2.9380    0.2810 c3        1 BCZ     -0.095400
     24 H21         0.4990    1.6500   -0.8710 h1        1 BCZ      0.049700
     25 H251        1.6580    0.9790    1.3060 hn        1 BCZ      0.451800
     26 H301        1.3300    2.7780    3.2800 DU        1 BCZ      0.147000
     27 H271        2.4510    4.8230    0.7140 hn        1 BCZ      0.383300
     28 H272        2.5330    3.6610   -0.3650 hn        1 BCZ      0.383300
     29 H31        -0.4460    0.3060    1.2190 hc        1 BCZ      0.089700
     30 H101       -0.5150   -0.5590   -1.5040 h1        1 BCZ      0.071700
     31 H241       -0.9350   -1.8110    0.7710 hc        1 BCZ      0.088700
     32 H371       -1.3640   -2.3600   -1.7200 hc        1 BCZ      0.038950
     33 H372       -0.2990   -3.4950   -1.3480 hc        1 BCZ      0.038950
     34 H381       -2.8610   -3.7330   -0.8890 hc        1 BCZ      0.028700
     35 H382       -1.7440   -4.5960   -0.1200 hc        1 BCZ      0.028700
     36 H383       -2.3140   -3.2520    0.5400 hc        1 BCZ      0.028700
     37 H361        1.5770   -1.8500    0.8380 hc        1 BCZ      0.038950
     38 H362        1.4160   -3.0460   -0.2120 hc        1 BCZ      0.038950
     39 H391        0.4050   -4.4040    1.2980 hc        1 BCZ      0.028700
     40 H392       -0.0300   -3.1680    2.2240 hc        1 BCZ      0.028700
     41 H393        1.4940   -3.6510    2.2110 hc        1 BCZ      0.028700
     42 H111        1.8820   -0.3320   -0.1730 hn        1 BCZ      0.314500
     43 H151        3.5390   -0.5100   -3.3460 hc        1 BCZ      0.060367
     44 H152        3.8190   -0.2170   -1.8020 hc        1 BCZ      0.060367
     45 H153        3.5310   -1.7070   -2.2920 hc        1 BCZ      0.060367
     46 H41        -2.3040    0.5110   -0.8910 h1        1 BCZ      0.043700
     47 HO91       -3.6240    0.4490    0.5780 ho        1 BCZ      0.446000
     48 H51        -2.2290    2.9460   -1.1160 hc        1 BCZ      0.060700
     49 H11        -0.5190    3.7240   -0.1970 hc        1 BCZ      0.036700
     50 H12        -0.9310    3.1350    1.2360 hc        1 BCZ      0.036700
@<TRIPOS>BOND
     1    1    2 1   
     2    1    6 1   
     3    1   23 1   
     4    1   24 1   
     5    2    3 1   
     6    2   25 1   
     7    3    4 2   
     8    3    5 1   
     9    5   27 1   
    10    5   28 1   
    11    6    7 1   
    12    6   17 1   
    13    6   29 1   
    14    7    8 1   
    15    7   13 1   
    16    7   30 1   
    17    8    9 1   
    18    8   11 1   
    19    8   31 1   
    20    9   10 1   
    21    9   32 1   
    22    9   33 1   
    23   10   34 1   
    24   10   35 1   
    25   10   36 1   
    26   11   12 1   
    27   11   37 1   
    28   11   38 1   
    29   12   39 1   
    30   12   40 1   
    31   12   41 1   
    32   13   14 1   
    33   13   42 1   
    34   14   15 1   
    35   14   16 2   
    36   15   43 1   
    37   15   44 1   
    38   15   45 1   
    39   17   18 1   
    40   17   19 1   
    41   17   46 1   
    42   18   47 1   
    43   19   20 1   
    44   19   23 1   
    45   19   48 1   
    46   20   21 1   
    47   20   22 1   
    48   23   49 1   
    49   23   50 1   
@<TRIPOS>SUBSTRUCTURE
     1 BCZ         1 TEMP              0 ****  ****    0 ROOT
