@<TRIPOS>MOLECULE
BD0
   54    51     1     0     0
SMALL
bcc


@<TRIPOS>ATOM
      1 C4         -2.5700    1.7570   -0.3450 c1        1 BD0      0.182000
      2 C6         -2.3960    0.6920   -1.2140 c1        1 BD0     -0.232000
      3 C7         -2.7460   -0.5940   -0.8170 c1        1 BD0      0.003000
      4 C8         -3.2690   -0.8110    0.4450 c1        1 BD0     -0.131000
      5 C10        -1.8190    0.9380   -2.6320 c2        1 BD0      0.340000
      6 N12        -1.7120    1.3610   -2.7470 n4        1 BD0     -0.071000
      7 C13        -1.3200    1.6350   -3.8760 c3        1 BD0     -0.129000
      8 C15         0.0400    2.8880   -2.6220 c3        1 BD0     -0.179000
      9 C17        -0.4360    1.4000   -0.6770 c1        1 BD0     -0.098000
     10 C20         1.4100   -0.1940    0.7890 c1        1 BD0     -0.098000
     11 C21         2.7420   -1.0560    1.1820 c2        1 BD0     -0.052000
     12 C24         2.9270   -4.2060    2.8790 c3        1 BD0     -0.230000
     13 C28         3.6000   -2.0630    3.3360 c3        1 BD0     -0.127000
     14 O1         -3.9620    0.0310    2.6020 oh        1 BD0     -0.196000
     15 C2         -3.4430    0.2520    1.3120 c1        1 BD0      0.203000
     16 C3         -3.0930    1.5370    0.9160 c1        1 BD0     -0.313000
     17 O5         -2.4750    3.1230   -0.8550 oh        1 BD0     -0.298000
     18 CL9        -3.5010   -2.4780    1.0330 cl        1 BD0      0.074000
     19 O11        -2.0490    0.1190   -3.5160 o         1 BD0     -0.221000
     20 C14         0.0920    2.2370   -3.6920 c3        1 BD0     -0.179000
     21 C16        -1.0550    2.2200   -1.8270 c2        1 BD0      0.011000
     22 C18        -0.4980   -0.0110   -0.7460 c2        1 BD0     -0.110500
     23 C19         0.4270   -0.8060   -0.0110 c2        1 BD0     -0.110500
     24 N22         2.4100   -2.0380    2.2610 n3        1 BD0     -0.239000
     25 C23         2.3560   -3.2510    1.7480 c3        1 BD0     -0.084000
     26 C25         3.5540   -3.2740    3.9260 c3        1 BD0      0.245000
     27 F26         4.7960   -3.6930    4.2430 f         1 BD0     -0.158000
     28 F27         2.7800   -3.2240    5.0250 f         1 BD0     -0.158000
     29 C29         1.4730    1.2180    0.8590 c1        1 BD0     -0.101500
     30 C30         0.5510    2.0130    0.1270 c1        1 BD0     -0.101500
     31 H7         -2.6200   -1.3650   -1.4460 ha        1 BD0      0.188000
     32 H13        -1.2760    0.8230   -4.4240 hx        1 BD0      0.151000
     33 H13A       -1.9210    2.2990   -4.2970 hx        1 BD0      0.151000
     34 H15         0.8980    2.8300   -2.1420 hc        1 BD0      0.131000
     35 H15A       -0.1880    3.8140   -2.8000 hc        1 BD0      0.131000
     36 H21         3.0610   -1.5380    0.3920 h4        1 BD0      0.098000
     37 H21A        3.4370   -0.4540    1.4960 h4        1 BD0      0.098000
     38 H24         3.6140   -4.8090    2.5020 hc        1 BD0      0.124000
     39 H24A        2.2020   -4.7280    3.2820 hc        1 BD0      0.124000
     40 H28         3.4660   -1.3640    3.9950 h1        1 BD0      0.124000
     41 H28A        4.4560   -1.9410    2.8890 h1        1 BD0      0.124000
     42 HO1        -4.6260    0.5980    2.7540 ho        1 BD0      0.248000
     43 H3         -3.2200    2.3070    1.5470 ha        1 BD0      0.164000
     44 HO5        -3.2290    3.3260   -1.3210 ho        1 BD0      0.266000
     45 H14         0.7570    1.5230   -3.6220 hc        1 BD0      0.127000
     46 H14A        0.3140    2.8460   -4.4580 hc        1 BD0      0.127000
     47 H16        -1.6890    2.8980   -1.4690 hx        1 BD0      0.145000
     48 H18        -1.1740   -0.4400   -1.2920 ha        1 BD0      0.144500
     49 H19         0.3790   -1.8060   -0.0640 ha        1 BD0      0.144500
     50 H23         1.4410   -3.4880    1.5400 h1        1 BD0      0.096000
     51 H23A        2.9180   -3.3040    0.9380 h1        1 BD0      0.096000
     52 H29         2.1780    1.6630    1.4340 ha        1 BD0      0.151500
     53 H30         0.6020    3.0130    0.1800 ha        1 BD0      0.151500
     54 H241       -2.5950    1.5730   -2.7210 hn        1 BD0      0.256000
@<TRIPOS>BOND
     1    1    2 1   
     2    1   17 1   
     3    2    5 1   
     4    3    4 1   
     5    3   31 1   
     6    4   18 1   
     7    5    6 1   
     8    5   19 1   
     9    6    7 1   
    10    6   21 1   
    11    6   54 1   
    12    7   20 1   
    13    7   32 1   
    14    7   33 1   
    15    8   20 1   
    16    8   21 1   
    17    8   34 1   
    18    8   35 1   
    19    9   22 1   
    20    9   30 1   
    21   10   23 1   
    22   10   29 1   
    23   11   24 1   
    24   11   36 1   
    25   11   37 1   
    26   12   25 1   
    27   12   26 1   
    28   12   38 1   
    29   12   39 1   
    30   13   24 1   
    31   13   26 1   
    32   13   40 1   
    33   13   41 1   
    34   14   15 1   
    35   14   42 1   
    36   15   16 1   
    37   16   43 1   
    38   17   44 1   
    39   20   45 1   
    40   20   46 1   
    41   21   47 1   
    42   22   23 1   
    43   22   48 1   
    44   23   49 1   
    45   24   25 1   
    46   25   50 1   
    47   25   51 1   
    48   26   27 1   
    49   26   28 1   
    50   29   52 1   
    51   30   53 1   
@<TRIPOS>SUBSTRUCTURE
     1 BD0         1 TEMP              0 ****  ****    0 ROOT
