@<TRIPOS>MOLECULE
BD0
   54    57     1     0     0
SMALL
bcc


@<TRIPOS>ATOM
      1 C4          0.5820    1.0610   -0.4000 ca        1 BD0      0.254100
      2 C6          1.5480    0.0400   -0.2300 ca        1 BD0     -0.275600
      3 C7          1.9020   -0.3540    1.0710 ca        1 BD0     -0.020000
      4 C8          1.3170    0.2410    2.1790 ca        1 BD0     -0.111600
      5 C10         2.0990   -0.6190   -1.4110 c         1 BD0      0.599700
      6 N12         3.6000   -0.8580   -1.3730 nx        1 BD0     -0.608200
      7 C13         3.9300   -2.3220   -1.3270 c3        1 BD0      0.112800
      8 C15         5.4450   -1.2780   -2.9480 c3        1 BD0     -0.096400
      9 C17         4.8000    1.0990   -2.3490 ca        1 BD0     -0.169300
     10 C20         5.7340    3.7120   -1.9540 ca        1 BD0     -0.004300
     11 C21         6.2840    5.0660   -1.7310 cx        1 BD0      0.081800
     12 C24         6.5830    7.0530   -0.1270 c3        1 BD0     -0.127400
     13 C28         6.3500    7.3780   -2.6010 c3        1 BD0      0.075800
     14 C2          0.3450    1.2630    1.9990 ca        1 BD0      0.248100
     15 C3         -0.0160    1.6720    0.7080 ca        1 BD0     -0.255000
     16 O5          0.2970    1.4260   -1.6820 oh        1 BD0     -0.477100
     17 Cl9         1.7610   -0.2650    3.7330 cl        1 BD0     -0.038400
     18 O11         1.5140   -0.9920   -2.4180 o         1 BD0     -0.414100
     19 C14         5.1950   -2.5530   -2.1570 c3        1 BD0     -0.099400
     20 C16         4.3140   -0.2920   -2.6010 c3        1 BD0      0.201800
     21 C18         4.2740    2.1550   -3.0990 ca        1 BD0     -0.108500
     22 C19         4.7410    3.4550   -2.9050 ca        1 BD0     -0.108000
     23 N22         5.5350    6.2380   -2.2190 n3        1 BD0     -0.616600
     24 C23         5.6640    6.0340   -0.7600 cx        1 BD0      0.076500
     25 C25         7.1130    7.9180   -1.3220 c3        1 BD0      0.382600
     26 F26         8.4790    7.8300   -1.4650 f         1 BD0     -0.225800
     27 F27         6.9180    9.2650   -1.1320 f         1 BD0     -0.225800
     28 C29         6.2590    2.6500   -1.2000 ca        1 BD0     -0.108000
     29 C30         5.7950    1.3540   -1.3960 ca        1 BD0     -0.108500
     30 H7          2.6310   -1.1670    1.2240 ha        1 BD0      0.146000
     31 H13         4.0700   -2.6320   -0.2560 hx        1 BD0      0.102700
     32 H13A        3.0650   -2.8980   -1.7640 hx        1 BD0      0.102700
     33 H15         6.4430   -0.8380   -2.6960 hc        1 BD0      0.093700
     34 H15A        5.4310   -1.4750   -4.0510 hc        1 BD0      0.093700
     35 H21         7.4010    5.0680   -1.8230 h1        1 BD0      0.108700
     36 H21A        9.7210    5.8130   -0.6690 ha        1 BD0      0.000500
     37 H24A        7.4400    6.5660    0.3980 hc        1 BD0      0.093700
     38 H28         7.0920    7.1160   -3.4000 h1        1 BD0      0.101200
     39 H28A        5.6570    8.1770   -2.9800 h1        1 BD0      0.101200
     40 HO1         0.0170    1.5360    3.8710 ho        1 BD0      0.457000
     41 H3         -0.7710    2.4650    0.5840 ha        1 BD0      0.187000
     42 HO5        -0.4200    2.0850   -1.6740 ho        1 BD0      0.459000
     43 H14         5.0460   -3.4300   -2.8370 hc        1 BD0      0.088700
     44 H14A        6.0640   -2.7860   -1.4900 hc        1 BD0      0.088700
     45 H16         3.5530   -0.2930   -3.4400 hx        1 BD0      0.119700
     46 H18         3.4960    1.9680   -3.8570 ha        1 BD0      0.138500
     47 H19         4.3230    4.2770   -3.5110 ha        1 BD0      0.164000
     48 H23         9.2350    5.3590   -0.5420 ha        1 BD0      0.000500
     49 H23A        4.7470    5.7850   -0.1920 h1        1 BD0      0.119700
     50 H29         7.0480    2.8440   -0.4560 ha        1 BD0      0.164000
     51 H30         6.2310    0.5300   -0.8110 ha        1 BD0      0.138500
     52 H241        3.9820   -0.3920   -0.5420 hn        1 BD0      0.450800
     53 O1         -0.2820    1.9040    3.0190 oh        1 BD0     -0.454100
     54 H24         6.0290    7.7020    0.5950 hc        1 BD0      0.093700
@<TRIPOS>BOND
     1    1    2 ar  
     2    1   15 ar  
     3    1   16 1   
     4    2    3 ar  
     5    2    5 1   
     6    3    4 ar  
     7    3   30 1   
     8    4   14 ar  
     9    4   17 1   
    10    5    6 1   
    11    5   18 2   
    12    6    7 1   
    13    6   20 1   
    14    6   52 1   
    15    7   19 1   
    16    7   31 1   
    17    7   32 1   
    18    8   19 1   
    19    8   20 1   
    20    8   33 1   
    21    8   34 1   
    22    9   20 1   
    23    9   21 ar  
    24    9   29 ar  
    25   10   11 1   
    26   10   22 ar  
    27   10   28 ar  
    28   11   23 1   
    29   11   24 1   
    30   11   35 1   
    31   12   24 1   
    32   12   25 1   
    33   12   37 1   
    34   12   54 1   
    35   13   23 1   
    36   13   25 1   
    37   13   38 1   
    38   13   39 1   
    39   14   15 ar  
    40   14   53 1   
    41   15   41 1   
    42   16   42 1   
    43   19   43 1   
    44   19   44 1   
    45   20   45 1   
    46   21   22 ar  
    47   21   46 1   
    48   22   47 1   
    49   23   24 1   
    50   24   49 1   
    51   25   26 1   
    52   25   27 1   
    53   28   29 ar  
    54   28   50 1   
    55   29   51 1   
    56   36   48 1   
    57   40   53 1   
@<TRIPOS>SUBSTRUCTURE
     1 BD0         1 TEMP              0 ****  ****    0 ROOT
