@<TRIPOS>MOLECULE
BD0
   54    57     1     0     0
SMALL
bcc


@<TRIPOS>ATOM
      1 C4          3.1450    0.9990    1.5770 ca        1 BD0      0.276100
      2 C6          3.1420    0.1640    0.4270 ca        1 BD0     -0.326600
      3 C7          3.2950    0.7720   -0.8400 ca        1 BD0     -0.026000
      4 C8          3.3940    2.1420   -0.9780 ca        1 BD0     -0.105600
      5 C10         3.0100   -1.2740    0.5750 c         1 BD0      0.594700
      6 N12         2.4800   -2.0490   -0.6090 n4        1 BD0     -0.599200
      7 C13         3.5810   -2.7840   -1.3220 c3        1 BD0      0.116800
      8 C15         1.6520   -4.2930   -1.1770 c3        1 BD0     -0.096400
      9 C17         0.0580   -2.5410   -0.2700 ca        1 BD0     -0.174300
     10 C20        -2.5650   -1.5560   -0.3310 ca        1 BD0     -0.035300
     11 C21        -3.9930   -1.0900   -0.3890 c3        1 BD0      0.192100
     12 C24        -4.8840    2.2150    0.1510 c3        1 BD0     -0.151400
     13 C28        -5.7590    0.0130    0.8780 c3        1 BD0      0.110800
     14 C2          3.3480    2.9730    0.1800 ca        1 BD0      0.246100
     15 C3          3.2290    2.3980    1.4460 ca        1 BD0     -0.209000
     16 O5          3.0380    0.5720    2.8610 oh        1 BD0     -0.459100
     17 CL9         3.5830    2.8220   -2.5180 cl        1 BD0     -0.038400
     18 O11         3.2680   -1.9410    1.5780 o         1 BD0     -0.489100
     19 C14         3.0150   -4.1130   -1.8280 c3        1 BD0     -0.100400
     20 C16         1.4400   -3.1050   -0.2210 c3        1 BD0      0.201800
     21 C18        -0.6940   -2.4690    0.9080 ca        1 BD0     -0.109000
     22 C19        -2.0000   -1.9840    0.8760 ca        1 BD0     -0.109000
     23 N22        -4.3250   -0.1300    0.6560 n3        1 BD0     -0.713600
     24 C23        -3.7650    1.2080    0.4350 c3        1 BD0      0.153800
     25 C25        -6.2120    1.4500    0.4150 c3        1 BD0      0.387600
     26 F26        -7.0310    1.4040   -0.6920 f         1 BD0     -0.228800
     27 F27        -7.0150    2.0640    1.3480 f         1 BD0     -0.228800
     28 C29        -1.8070   -1.6190   -1.5070 ca        1 BD0     -0.109000
     29 C30        -0.5060   -2.1130   -1.4790 ca        1 BD0     -0.109000
     30 H7          3.3730    0.1550   -1.7510 ha        1 BD0      0.138000
     31 H13         3.9620   -2.1430   -2.1630 hx        1 BD0      0.104200
     32 H13A        4.4200   -2.9670   -0.5920 hx        1 BD0      0.104200
     33 H15         0.8410   -4.3280   -1.9490 hc        1 BD0      0.094700
     34 H15A        1.6020   -5.2460   -0.5920 hc        1 BD0      0.094700
     35 H21        -4.2080   -0.6870   -1.4230 h1        1 BD0      0.059700
     36 H21A       -4.6420   -2.0050   -0.2430 h1        1 BD0      0.059700
     37 H24A       -4.8560    2.5720   -0.9070 hc        1 BD0      0.084200
     38 H28        -6.3700   -0.7610    0.3450 h1        1 BD0      0.086200
     39 H28A       -5.9410   -0.0740    1.9840 h1        1 BD0      0.086200
     40 HO1         3.5320    4.6270   -0.7770 ho        1 BD0      0.456000
     41 H3          3.2100    3.0330    2.3480 ha        1 BD0      0.204000
     42 HO5         3.1220   -0.3950    2.9230 ho        1 BD0      0.459000
     43 H14         2.9280   -4.1020   -2.9440 hc        1 BD0      0.090700
     44 H14A        3.7090   -4.9480   -1.5530 hc        1 BD0      0.090700
     45 H16         1.6910   -3.4320    0.8340 hx        1 BD0      0.123700
     46 H18        -0.2650   -2.8070    1.8650 ha        1 BD0      0.137000
     47 H19        -2.5920   -1.9380    1.8060 ha        1 BD0      0.163500
     48 H23        -3.0150    1.2090   -0.4010 h1        1 BD0      0.056700
     49 H23A       -3.2290    1.4920    1.3840 h1        1 BD0      0.056700
     50 H29        -2.2440   -1.2870   -2.4630 ha        1 BD0      0.163500
     51 H30         0.0650   -2.1810   -2.4170 ha        1 BD0      0.137000
     52 H241        2.0260   -1.3930   -1.2540 hn        1 BD0      0.453800
     53 O1          3.4200    4.3280    0.1440 oh        1 BD0     -0.448100
     54 H24        -4.8130    3.1000    0.8280 hc        1 BD0      0.084200
@<TRIPOS>BOND
     1    1    2 ar  
     2    1   15 ar  
     3    1   16 1   
     4    2    3 ar  
     5    2    5 1   
     6    3    4 ar  
     7    3   30 1   
     8    4   14 ar  
     9    4   17 1   
    10    5    6 1   
    11    5   18 2   
    12    6    7 1   
    13    6   20 1   
    14    6   52 1   
    15    7   19 1   
    16    7   31 1   
    17    7   32 1   
    18    8   19 1   
    19    8   20 1   
    20    8   33 1   
    21    8   34 1   
    22    9   20 1   
    23    9   21 ar  
    24    9   29 ar  
    25   10   11 1   
    26   10   22 ar  
    27   10   28 ar  
    28   11   23 1   
    29   11   35 1   
    30   11   36 1   
    31   12   24 1   
    32   12   25 1   
    33   12   37 1   
    34   12   54 1   
    35   13   23 1   
    36   13   25 1   
    37   13   38 1   
    38   13   39 1   
    39   14   15 ar  
    40   14   53 1   
    41   15   41 1   
    42   16   42 1   
    43   19   43 1   
    44   19   44 1   
    45   20   45 1   
    46   21   22 ar  
    47   21   46 1   
    48   22   47 1   
    49   23   24 1   
    50   24   48 1   
    51   24   49 1   
    52   25   26 1   
    53   25   27 1   
    54   28   29 ar  
    55   28   50 1   
    56   29   51 1   
    57   40   53 1   
@<TRIPOS>SUBSTRUCTURE
     1 BD0         1 TEMP              0 ****  ****    0 ROOT
