@<TRIPOS>MOLECULE
BD1
   20    21     1     0     0
SMALL
bcc


@<TRIPOS>ATOM
      1 C1          0.0380    0.4940    0.1470 c2        1 BD1     -0.171200
      2 C2          1.3920   -0.0210   -0.1650 c3        1 BD1     -0.054200
      3 C3          2.1670   -0.3940    1.0910 c3        1 BD1      0.124100
      4 O3          3.0840   -1.4520    0.7550 os        1 BD1     -0.461600
      5 C4          1.3390   -0.9520    2.2670 c3        1 BD1      0.124100
      6 O4          1.8630   -2.2740    2.4890 os        1 BD1     -0.461600
      7 C5         -0.1620   -1.0670    2.0410 c3        1 BD1     -0.054200
      8 C6         -0.6800    0.0100    1.1660 c2        1 BD1     -0.171200
      9 C7          3.0210   -2.4910    1.7100 c3        1 BD1      0.514700
     10 O1          4.1220   -2.3660    2.5450 oh        1 BD1     -0.609800
     11 H1         -0.3500    1.2780   -0.5200 ha        1 BD1      0.132000
     12 H2C1        1.3000   -0.9280   -0.8240 hc        1 BD1      0.068700
     13 H2C2        1.9820    0.7420   -0.7380 hc        1 BD1      0.068700
     14 H3          2.7890    0.4770    1.4340 h1        1 BD1      0.062700
     15 H4          1.5450   -0.3610    3.2000 h1        1 BD1      0.062700
     16 H5C1       -0.6780   -1.0480    3.0370 hc        1 BD1      0.068700
     17 H5C2       -0.3880   -2.0650    1.5730 hc        1 BD1      0.068700
     18 H6         -1.6940    0.3730    1.3880 ha        1 BD1      0.132000
     19 H7          3.0300   -3.5030    1.2360 h3        1 BD1      0.144700
     20 HA          4.1140   -1.4920    2.9540 ho        1 BD1      0.414000
@<TRIPOS>BOND
     1    1    2 1   
     2    1    8 2   
     3    1   11 1   
     4    2    3 1   
     5    2   12 1   
     6    2   13 1   
     7    3    4 1   
     8    3    5 1   
     9    3   14 1   
    10    4    9 1   
    11    5    6 1   
    12    5    7 1   
    13    5   15 1   
    14    6    9 1   
    15    7    8 1   
    16    7   16 1   
    17    7   17 1   
    18    8   18 1   
    19    9   10 1   
    20    9   19 1   
    21   10   20 1   
@<TRIPOS>SUBSTRUCTURE
     1 BD1         1 TEMP              0 ****  ****    0 ROOT
