@<TRIPOS>MOLECULE
BD1
   20    21     1     0     0
SMALL
bcc


@<TRIPOS>ATOM
      1 C1         -0.8050   -0.0250   -2.4620 c2        1 BD1     -0.171200
      2 C2         -1.4810    0.2300   -1.1690 c3        1 BD1     -0.054200
      3 C3         -0.7380   -0.3990    0.0020 c3        1 BD1      0.124100
      4 O3         -0.9910    0.3960    1.1740 os        1 BD1     -0.461600
      5 C4          0.8000   -0.4510   -0.1130 c3        1 BD1      0.124100
      6 O4          1.2760    0.3200    1.0060 os        1 BD1     -0.461600
      7 C5          1.4030    0.1320   -1.3830 c3        1 BD1     -0.054200
      8 C6          0.5280   -0.0700   -2.5610 c2        1 BD1     -0.171200
      9 C7          0.2110    0.6620    1.8670 c3        1 BD1      0.514700
     10 O1          0.2640   -0.1860    2.9640 oh        1 BD1     -0.609800
     11 H1         -1.4590   -0.1520   -3.3370 ha        1 BD1      0.132000
     12 H2C1       -2.5290   -0.1710   -1.1860 hc        1 BD1      0.068700
     13 H2C2       -1.5570    1.3400   -1.0030 hc        1 BD1      0.068700
     14 H3         -1.1450   -1.4250    0.2120 h1        1 BD1      0.062700
     15 H4          1.1640   -1.5030    0.0400 h1        1 BD1      0.062700
     16 H5C1        2.4070   -0.3380   -1.5530 hc        1 BD1      0.068700
     17 H5C2        1.5770    1.2340   -1.2360 hc        1 BD1      0.068700
     18 H6          1.0360   -0.2360   -3.5220 ha        1 BD1      0.132000
     19 H7          0.2730    1.7220    2.2180 h3        1 BD1      0.144700
     20 HA          0.2100   -1.1010    2.6610 ho        1 BD1      0.414000
@<TRIPOS>BOND
     1    1    2 1   
     2    1    8 2   
     3    1   11 1   
     4    2    3 1   
     5    2   12 1   
     6    2   13 1   
     7    3    4 1   
     8    3    5 1   
     9    3   14 1   
    10    4    9 1   
    11    5    6 1   
    12    5    7 1   
    13    5   15 1   
    14    6    9 1   
    15    7    8 1   
    16    7   16 1   
    17    7   17 1   
    18    8   18 1   
    19    9   10 1   
    20    9   19 1   
    21   10   20 1   
@<TRIPOS>SUBSTRUCTURE
     1 BD1         1 TEMP              0 ****  ****    0 ROOT
