@<TRIPOS>MOLECULE
BD1
   20    20     1     0     0
SMALL
bcc


@<TRIPOS>ATOM
      1 C1         -1.4730    0.8700   -1.4400 c1        1 BD1     -0.163000
      2 C2          0.0160    0.8700   -1.4400 c2        1 BD1     -0.135000
      3 C3          0.6330    0.8700    0.0860 c3        1 BD1      0.016000
      4 O3          1.7870    0.5600   -0.0660 os        1 BD1     -0.318000
      5 C4          0.0580   -0.1760    1.0080 c3        1 BD1      0.016000
      6 O4          0.5020   -1.2310    0.6630 os        1 BD1     -0.318000
      7 C5         -1.6240   -0.1840    1.1580 c3        1 BD1     -0.135000
      8 C6         -2.2790   -0.1800   -0.1360 c2        1 BD1     -0.163000
      9 C7          1.7910   -0.9010    0.0960 c3        1 BD1      0.262000
     10 O1          2.7660   -1.2720    0.9200 oh        1 BD1     -0.338000
     11 H1         -1.9610    1.0970   -2.2550 ha        1 BD1      0.130000
     12 H2C1        0.3270    0.2120   -2.0910 ha        1 BD1      0.106500
     13 H2C2        0.3650    1.6870   -1.8450 ha        1 BD1      0.106500
     14 H3          0.5660    1.7580    0.4860 h1        1 BD1      0.098000
     15 H4          0.4160    0.0040    1.8970 h1        1 BD1      0.098000
     16 H5C1       -1.8800    0.5710    1.7210 hc        1 BD1      0.106500
     17 H5C2       -1.9510   -0.9350    1.6900 hc        1 BD1      0.106500
     18 H6         -3.2270   -0.4010   -0.2040 ha        1 BD1      0.130000
     19 H7          1.8980   -1.3360   -0.7720 h3        1 BD1      0.182000
     20 HA          3.2710   -1.8850    0.5240 ho        1 BD1      0.212000
@<TRIPOS>BOND
     1    1    8 1   
     2    1   11 1   
     3    2    3 1   
     4    2   12 1   
     5    2   13 1   
     6    3    4 1   
     7    3    5 1   
     8    3   14 1   
     9    4    9 1   
    10    5    6 1   
    11    5    7 1   
    12    5   15 1   
    13    6    9 1   
    14    7    8 1   
    15    7   16 1   
    16    7   17 1   
    17    8   18 1   
    18    9   10 1   
    19    9   19 1   
    20   10   20 1   
@<TRIPOS>SUBSTRUCTURE
     1 BD1         1 TEMP              0 ****  ****    0 ROOT
