@<TRIPOS>MOLECULE
BD1
   20    21     1     0     0
SMALL
bcc


@<TRIPOS>ATOM
      1 C1          0.0790    0.5190    0.1300 c2        1 BD1     -0.171200
      2 C2          1.4410    0.0060   -0.1480 c3        1 BD1     -0.054200
      3 C3          2.1760   -0.3930    1.1240 c3        1 BD1      0.124100
      4 O3          3.1000   -1.4470    0.7970 os        1 BD1     -0.461600
      5 C4          1.3090   -0.9700    2.2620 c3        1 BD1      0.124100
      6 O4          1.8220   -2.2980    2.4760 os        1 BD1     -0.461600
      7 C5         -0.1850   -1.0760    1.9870 c3        1 BD1     -0.054200
      8 C6         -0.6720    0.0190    1.1170 c2        1 BD1     -0.171200
      9 C7          3.0030   -2.5030    1.7300 c3        1 BD1      0.514700
     10 O1          4.0780   -2.3980    2.6010 oh        1 BD1     -0.609800
     11 H1         -0.2850    1.3170   -0.5330 ha        1 BD1      0.132000
     12 H2C1        1.3680   -0.8880   -0.8270 hc        1 BD1      0.068700
     13 H2C2        2.0510    0.7780   -0.6880 hc        1 BD1      0.068700
     14 H3          2.7890    0.4690    1.5030 h1        1 BD1      0.062700
     15 H4          1.4870   -0.3980    3.2130 h1        1 BD1      0.062700
     16 H5C1       -0.3990   -2.0650    1.4930 hc        1 BD1      0.068700
     17 H5C2       -0.7320   -1.0750    2.9660 hc        1 BD1      0.068700
     18 H6         -1.6920    0.3810    1.3130 ha        1 BD1      0.132000
     19 H7          3.0250   -3.5070    1.2370 h3        1 BD1      0.144700
     20 HA          4.0590   -1.5320    3.0260 ho        1 BD1      0.414000
@<TRIPOS>BOND
     1    1    2 1   
     2    1    8 2   
     3    1   11 1   
     4    2    3 1   
     5    2   12 1   
     6    2   13 1   
     7    3    4 1   
     8    3    5 1   
     9    3   14 1   
    10    4    9 1   
    11    5    6 1   
    12    5    7 1   
    13    5   15 1   
    14    6    9 1   
    15    7    8 1   
    16    7   16 1   
    17    7   17 1   
    18    8   18 1   
    19    9   10 1   
    20    9   19 1   
    21   10   20 1   
@<TRIPOS>SUBSTRUCTURE
     1 BD1         1 TEMP              0 ****  ****    0 ROOT
