@<TRIPOS>MOLECULE
BD2
   61    64     1     0     0
SMALL
bcc


@<TRIPOS>ATOM
      1 O1          6.1010   -0.9110    1.3620 oh        1 BD2     -0.491100
      2 C1          4.8540   -0.6110    1.8530 ca        1 BD2      0.147100
      3 C2          4.8120    0.1550    3.0310 ca        1 BD2     -0.195500
      4 C3          3.5790    0.4870    3.5760 ca        1 BD2     -0.055000
      5 C4          2.3900    0.0560    2.9660 ca        1 BD2     -0.178600
      6 C5          2.4440   -0.6970    1.7900 ca        1 BD2     -0.055000
      7 C6          3.6720   -1.0340    1.2270 ca        1 BD2     -0.195500
      8 C7          1.1010    0.4560    3.5980 c         1 BD2      0.677700
      9 O7          0.9700    1.5620    4.1590 o         1 BD2     -0.598100
     10 N8          0.0820   -0.4850    3.6080 n         1 BD2     -0.547900
     11 C8         -1.2530   -0.1590    4.0500 c3        1 BD2      0.095700
     12 C9         -2.3350   -0.1670    2.9320 c3        1 BD2      0.129100
     13 C10        -3.4170    0.8830    3.1530 c3        1 BD2     -0.101400
     14 C11        -3.9460    0.9730    4.5640 c3        1 BD2     -0.076400
     15 C12        -4.0220   -0.3710    5.2860 c3        1 BD2      0.164800
     16 N13        -2.7940   -0.7300    5.9620 n3        1 BD2     -0.831200
     17 C14        -1.7030   -1.1860    5.1360 c3        1 BD2      0.160800
     18 O9         -1.6940    0.1440    1.6730 os        1 BD2     -0.440900
     19 C15        -2.2810   -0.3260    0.5310 c         1 BD2      0.644700
     20 O15        -3.2700   -1.0590    0.6240 o         1 BD2     -0.537000
     21 C16        -1.6110    0.1170   -0.7050 ca        1 BD2     -0.109600
     22 C17        -0.6610    1.1450   -0.6900 ca        1 BD2     -0.087500
     23 C18        -0.0600    1.5480   -1.8800 ca        1 BD2     -0.101000
     24 C19        -0.3930    0.9200   -3.0880 ca        1 BD2     -0.163600
     25 C20        -1.3470   -0.1060   -3.0970 ca        1 BD2     -0.101000
     26 C21        -1.9580   -0.5040   -1.9110 ca        1 BD2     -0.087500
     27 C22         0.2400    1.3930   -4.3440 c         1 BD2      0.582300
     28 O22         0.7360    2.5240   -4.4140 o         1 BD2     -0.507100
     29 C23         0.2220    0.4920   -5.5170 ca        1 BD2     -0.247600
     30 C24        -0.2500    1.0160   -6.7320 ca        1 BD2     -0.051000
     31 C25        -0.2920    0.2320   -7.8780 ca        1 BD2     -0.172000
     32 C26         0.1580   -1.0910   -7.8370 ca        1 BD2     -0.076000
     33 C27         0.6500   -1.6300   -6.6560 ca        1 BD2     -0.168000
     34 C28         0.6850   -0.8350   -5.4930 ca        1 BD2      0.162100
     35 O28         1.2210   -1.4490   -4.3880 oh        1 BD2     -0.495100
     36 HO1         5.9900   -1.4270    0.5500 ho        1 BD2      0.423000
     37 H2          5.7510    0.4830    3.5000 ha        1 BD2      0.148000
     38 H3          3.5200    1.1020    4.4890 ha        1 BD2      0.147500
     39 H5          1.5210   -1.0180    1.2830 ha        1 BD2      0.147500
     40 H6          3.7150   -1.6230    0.3010 ha        1 BD2      0.148000
     41 HN8         0.1690   -1.2790    3.0190 hn        1 BD2      0.303500
     42 H8         -1.2230    0.8770    4.5050 h1        1 BD2      0.117700
     43 H9         -2.7950   -1.1930    2.8560 h1        1 BD2      0.072700
     44 H101       -4.2570    0.6400    2.4460 hc        1 BD2      0.058200
     45 H102       -3.0100    1.8860    2.8520 hc        1 BD2      0.058200
     46 H111       -4.9840    1.3980    4.5230 hc        1 BD2      0.055700
     47 H112       -3.3210    1.6920    5.1590 hc        1 BD2      0.055700
     48 H121       -4.3570   -1.1610    4.5500 h1        1 BD2      0.031200
     49 H122       -4.8220   -0.2920    6.0790 h1        1 BD2      0.031200
     50 H13        -2.9810   -1.4150    6.6700 hn        1 BD2      0.370800
     51 H141       -1.9340   -2.1650    4.6190 h1        1 BD2      0.035700
     52 H142       -0.8360   -1.3680    5.8360 h1        1 BD2      0.035700
     53 H17        -0.3980    1.6360    0.2620 ha        1 BD2      0.166000
     54 H18         0.6750    2.3700   -1.8840 ha        1 BD2      0.160000
     55 H20        -1.6150   -0.5970   -4.0470 ha        1 BD2      0.160000
     56 H21        -2.7190   -1.3030   -1.9120 ha        1 BD2      0.166000
     57 H24        -0.5820    2.0660   -6.7620 ha        1 BD2      0.149000
     58 H25        -0.6720    0.6540   -8.8190 ha        1 BD2      0.142000
     59 H26         0.1270   -1.7100   -8.7470 ha        1 BD2      0.140000
     60 H27         1.0210   -2.6640   -6.6070 ha        1 BD2      0.155000
     61 H28         1.1340   -0.8530   -3.6280 ho        1 BD2      0.427000
@<TRIPOS>BOND
     1    1    2 1   
     2    1   36 1   
     3    2    3 ar  
     4    2    7 ar  
     5    3    4 ar  
     6    3   37 1   
     7    4    5 ar  
     8    4   38 1   
     9    5    6 ar  
    10    5    8 1   
    11    6    7 ar  
    12    6   39 1   
    13    7   40 1   
    14    8    9 2   
    15    8   10 1   
    16   10   11 1   
    17   10   41 1   
    18   11   12 1   
    19   11   17 1   
    20   11   42 1   
    21   12   13 1   
    22   12   18 1   
    23   12   43 1   
    24   13   14 1   
    25   13   44 1   
    26   13   45 1   
    27   14   15 1   
    28   14   46 1   
    29   14   47 1   
    30   15   16 1   
    31   15   48 1   
    32   15   49 1   
    33   16   17 1   
    34   16   50 1   
    35   17   51 1   
    36   17   52 1   
    37   18   19 1   
    38   19   20 2   
    39   19   21 1   
    40   21   22 ar  
    41   21   26 ar  
    42   22   23 ar  
    43   22   53 1   
    44   23   24 ar  
    45   23   54 1   
    46   24   25 ar  
    47   24   27 1   
    48   25   26 ar  
    49   25   55 1   
    50   26   56 1   
    51   27   28 2   
    52   27   29 1   
    53   29   30 ar  
    54   29   34 ar  
    55   30   31 ar  
    56   30   57 1   
    57   31   32 ar  
    58   31   58 1   
    59   32   33 ar  
    60   32   59 1   
    61   33   34 ar  
    62   33   60 1   
    63   34   35 1   
    64   35   61 1   
@<TRIPOS>SUBSTRUCTURE
     1 BD2         1 TEMP              0 ****  ****    0 ROOT
