@<TRIPOS>MOLECULE
BD2
   62    65     1     0     0
SMALL
bcc


@<TRIPOS>ATOM
      1 O1          1.2580    2.9040    2.1570 oh        1 BD2     -0.457100
      2 C1          2.1920    2.0510    1.6550 ca        1 BD2      0.212100
      3 C2          3.1800    1.6030    2.5590 ca        1 BD2     -0.191000
      4 C3          4.1600    0.7340    2.1130 ca        1 BD2     -0.026000
      5 C4          4.1860    0.3140    0.7650 ca        1 BD2     -0.256600
      6 C5          3.1900    0.7540   -0.1220 ca        1 BD2     -0.026000
      7 C6          2.1980    1.6180    0.3140 ca        1 BD2     -0.191000
      8 C7          5.2410   -0.6200    0.3900 c         1 BD2      0.580700
      9 O7          5.8170   -1.4350    1.0980 o         1 BD2     -0.426100
     10 N8          5.6980   -0.5780   -1.0580 ny        1 BD2     -0.672800
     11 C8          7.1910   -0.4460   -1.1890 c3        1 BD2      0.110500
     12 C9          7.7060   -0.8070   -2.6070 c3        1 BD2      0.139100
     13 C10         9.0780   -1.4700   -2.5640 c3        1 BD2     -0.103400
     14 C11        10.0670   -0.8680   -1.5950 c3        1 BD2     -0.088400
     15 C12         9.9800    0.6510   -1.4610 c3        1 BD2      0.157800
     16 N13         9.0110    1.0850   -0.4760 n7        1 BD2     -0.835200
     17 C14         7.6270    1.0120   -0.8610 c3        1 BD2      0.166800
     18 O9          6.7790   -1.7440   -3.1830 os        1 BD2     -0.504900
     19 C15         6.6370   -1.7490   -4.5640 c         1 BD2      0.663700
     20 O15         7.2440   -0.8790   -5.1860 o         1 BD2     -0.507000
     21 C16         5.7380   -2.7960   -5.0540 ca        1 BD2     -0.142600
     22 C17         5.3480   -3.8680   -4.2410 ca        1 BD2     -0.084000
     23 C18         4.4850   -4.8370   -4.7420 ca        1 BD2     -0.097000
     24 C19         4.0160   -4.7490   -6.0600 ca        1 BD2     -0.107600
     25 C20         4.4160   -3.6860   -6.8740 ca        1 BD2     -0.097000
     26 C21         5.2760   -2.7080   -6.3750 ca        1 BD2     -0.084000
     27 C22         3.0790   -5.7940   -6.5590 c         1 BD2      0.603300
     28 O22         2.2040   -6.2560   -5.8230 o         1 BD2     -0.489100
     29 C23         3.2920   -6.2710   -7.9440 ca        1 BD2     -0.193600
     30 C24         4.0390   -7.4350   -8.1600 ca        1 BD2     -0.064000
     31 C25         4.2220   -7.9310   -9.4480 ca        1 BD2     -0.157000
     32 C26         3.6490   -7.2760  -10.5400 ca        1 BD2     -0.069000
     33 C27         2.9000   -6.1190  -10.3500 ca        1 BD2     -0.206000
     34 C28         2.7240   -5.6160   -9.0510 ca        1 BD2      0.148100
     35 O28         2.0210   -4.4570   -8.8090 oh        1 BD2     -0.510100
     36 HO1         0.6200    3.1280    1.4580 ho        1 BD2      0.447000
     37 H2          3.1500    1.9450    3.6060 ha        1 BD2      0.175500
     38 H3          4.9280    0.3610    2.8130 ha        1 BD2      0.151500
     39 H5          3.1510    0.4030   -1.1650 ha        1 BD2      0.151500
     40 H6          1.4120    1.9560   -0.3790 ha        1 BD2      0.175500
     41 HN8         5.4240   -1.4590   -1.5190 hn        1 BD2      0.461300
     42 H8          7.6410   -1.1700   -0.4410 hx        1 BD2      0.145700
     43 H9          7.7420    0.1230   -3.2440 h1        1 BD2      0.095700
     44 H101        9.4880   -1.4150   -3.6100 hc        1 BD2      0.075700
     45 H102        8.9450   -2.5590   -2.3200 hc        1 BD2      0.075700
     46 H111       11.1010   -1.1160   -1.9600 hc        1 BD2      0.069200
     47 H112        9.9590   -1.3500   -0.5870 hc        1 BD2      0.069200
     48 H121       10.9860    1.0250   -1.1120 h1        1 BD2      0.052700
     49 H122        9.7840    1.0990   -2.4790 h1        1 BD2      0.052700
     50 H13         9.2250    2.0050   -0.1380 hn        1 BD2      0.400800
     51 H141        7.0260    1.3930    0.0170 h1        1 BD2      0.044200
     52 H142        7.3750    1.6580   -1.7560 h1        1 BD2      0.044200
     53 H17         5.7310   -3.9460   -3.2120 ha        1 BD2      0.153000
     54 H18         4.1570   -5.6760   -4.1060 ha        1 BD2      0.167500
     55 H20         4.0390   -3.6160   -7.9090 ha        1 BD2      0.167500
     56 H21         5.6000   -1.8700   -7.0140 ha        1 BD2      0.153000
     57 H24         4.4760   -7.9650   -7.3000 ha        1 BD2      0.143000
     58 H25         4.8110   -8.8480   -9.6040 ha        1 BD2      0.148000
     59 H26         3.7880   -7.6760  -11.5570 ha        1 BD2      0.147000
     60 H27         2.4410   -5.6040  -11.2060 ha        1 BD2      0.145000
     61 H28         1.5330   -4.2280   -9.6140 ho        1 BD2      0.433000
     62 H82         5.2490    0.2000   -1.5470 hn        1 BD2      0.461300
@<TRIPOS>BOND
     1    1    2 1   
     2    1   36 1   
     3    2    3 ar  
     4    2    7 ar  
     5    3    4 ar  
     6    3   37 1   
     7    4    5 ar  
     8    4   38 1   
     9    5    6 ar  
    10    5    8 1   
    11    6    7 ar  
    12    6   39 1   
    13    7   40 1   
    14    8    9 2   
    15    8   10 1   
    16   10   11 1   
    17   10   41 1   
    18   10   62 1   
    19   11   12 1   
    20   11   17 1   
    21   11   42 1   
    22   12   13 1   
    23   12   18 1   
    24   12   43 1   
    25   13   14 1   
    26   13   44 1   
    27   13   45 1   
    28   14   15 1   
    29   14   46 1   
    30   14   47 1   
    31   15   16 1   
    32   15   48 1   
    33   15   49 1   
    34   16   17 1   
    35   16   50 1   
    36   17   51 1   
    37   17   52 1   
    38   18   19 1   
    39   19   20 2   
    40   19   21 1   
    41   21   22 ar  
    42   21   26 ar  
    43   22   23 ar  
    44   22   53 1   
    45   23   24 ar  
    46   23   54 1   
    47   24   25 ar  
    48   24   27 1   
    49   25   26 ar  
    50   25   55 1   
    51   26   56 1   
    52   27   28 2   
    53   27   29 1   
    54   29   30 ar  
    55   29   34 ar  
    56   30   31 ar  
    57   30   57 1   
    58   31   32 ar  
    59   31   58 1   
    60   32   33 ar  
    61   32   59 1   
    62   33   34 ar  
    63   33   60 1   
    64   34   35 1   
    65   35   61 1   
@<TRIPOS>SUBSTRUCTURE
     1 BD2         1 TEMP              0 ****  ****    0 ROOT
