@<TRIPOS>MOLECULE
BD2
   62    65     1     0     0
SMALL
bcc


@<TRIPOS>ATOM
      1 O1          1.0650    2.9300    1.8090 oh        1 BD2     -0.459100
      2 C1          2.0830    2.0830    1.4970 ca        1 BD2      0.213100
      3 C2          3.0220    1.6230    2.4370 ca        1 BD2     -0.192000
      4 C3          4.0300    0.7620    2.0290 ca        1 BD2     -0.025000
      5 C4          4.1240    0.3630    0.6810 ca        1 BD2     -0.257600
      6 C5          3.1690    0.8160   -0.2490 ca        1 BD2     -0.025000
      7 C6          2.1560    1.6700    0.1460 ca        1 BD2     -0.192000
      8 C7          5.2020   -0.5580    0.3440 c         1 BD2      0.580700
      9 O7          5.7720   -1.3540    1.0790 o         1 BD2     -0.430100
     10 N8          5.6920   -0.5340   -1.0940 n4        1 BD2     -0.671800
     11 C8          7.1890   -0.4300   -1.1960 c3        1 BD2      0.110500
     12 C9          7.7260   -0.8260   -2.5980 c3        1 BD2      0.139100
     13 C10         9.0850   -1.5110   -2.5150 c3        1 BD2     -0.102400
     14 C11        10.0650   -0.9080   -1.5370 c3        1 BD2     -0.088400
     15 C12        10.0010    0.6140   -1.4320 c3        1 BD2      0.157800
     16 N13         9.0210    1.0820   -0.4740 n3        1 BD2     -0.834200
     17 C14         7.6440    1.0260   -0.8840 c3        1 BD2      0.166800
     18 O9          6.7950   -1.7580   -3.1760 os        1 BD2     -0.504900
     19 C15         6.6660   -1.7720   -4.5580 c         1 BD2      0.662700
     20 O15         7.2830   -0.9100   -5.1810 o         1 BD2     -0.508000
     21 C16         5.7640   -2.8170   -5.0480 ca        1 BD2     -0.142600
     22 C17         5.3660   -3.8840   -4.2320 ca        1 BD2     -0.084500
     23 C18         4.5020   -4.8520   -4.7330 ca        1 BD2     -0.096500
     24 C19         4.0400   -4.7680   -6.0540 ca        1 BD2     -0.107600
     25 C20         4.4470   -3.7090   -6.8700 ca        1 BD2     -0.096500
     26 C21         5.3090   -2.7330   -6.3720 ca        1 BD2     -0.084500
     27 C22         3.1020   -5.8110   -6.5530 c         1 BD2      0.603300
     28 O22         2.2320   -6.2790   -5.8140 o         1 BD2     -0.489100
     29 C23         3.3070   -6.2830   -7.9410 ca        1 BD2     -0.193600
     30 C24         4.0510   -7.4460   -8.1670 ca        1 BD2     -0.064000
     31 C25         4.2270   -7.9370   -9.4580 ca        1 BD2     -0.157000
     32 C26         3.6500   -7.2760  -10.5440 ca        1 BD2     -0.069000
     33 C27         2.9030   -6.1190  -10.3440 ca        1 BD2     -0.206000
     34 C28         2.7350   -5.6210   -9.0430 ca        1 BD2      0.148100
     35 O28         2.0350   -4.4630   -8.7910 oh        1 BD2     -0.510100
     36 HO1         1.0960    3.1310    2.7600 ho        1 BD2      0.449000
     37 H2          2.9540    1.9370    3.4900 ha        1 BD2      0.175500
     38 H3          4.7630    0.3820    2.7620 ha        1 BD2      0.151500
     39 H5          3.1810    0.4790   -1.2980 ha        1 BD2      0.151500
     40 H6          1.3960    2.0290   -0.5670 ha        1 BD2      0.175500
     41 HN8         5.4090   -1.4130   -1.5540 hn        1 BD2      0.462300
     42 H8          7.6110   -1.1490   -0.4270 hx        1 BD2      0.145700
     43 H9          7.7900    0.0930   -3.2490 h1        1 BD2      0.096700
     44 H101        8.9280   -2.5930   -2.2550 hc        1 BD2      0.075700
     45 H102        9.5170   -1.4810   -3.5540 hc        1 BD2      0.075700
     46 H111       11.1010   -1.1810   -1.8770 hc        1 BD2      0.069200
     47 H112        9.9280   -1.3700   -0.5230 hc        1 BD2      0.069200
     48 H121        9.8330    1.0470   -2.4620 h1        1 BD2      0.052700
     49 H122       11.0070    0.9770   -1.0700 h1        1 BD2      0.052700
     50 H13         9.2440    2.0050   -0.1500 hn        1 BD2      0.399800
     51 H141        7.0320    1.4300   -0.0250 h1        1 BD2      0.044200
     52 H142        7.4200    1.6600   -1.7940 h1        1 BD2      0.044200
     53 H17         5.7440   -3.9590   -3.2010 ha        1 BD2      0.153000
     54 H18         4.1690   -5.6880   -4.0960 ha        1 BD2      0.167500
     55 H20         4.0750   -3.6420   -7.9070 ha        1 BD2      0.167500
     56 H21         5.6390   -1.8980   -7.0120 ha        1 BD2      0.153000
     57 H24         4.4920   -7.9810   -7.3110 ha        1 BD2      0.143000
     58 H25         4.8140   -8.8530   -9.6210 ha        1 BD2      0.148000
     59 H26         3.7830   -7.6710  -11.5630 ha        1 BD2      0.147000
     60 H27         2.4400   -5.5980  -11.1950 ha        1 BD2      0.145000
     61 H28         1.5430   -4.2290   -9.5930 ho        1 BD2      0.433000
     62 H82         5.2670    0.2490   -1.5970 hn        1 BD2      0.462300
@<TRIPOS>BOND
     1    1    2 1   
     2    1   36 1   
     3    2    3 ar  
     4    2    7 ar  
     5    3    4 ar  
     6    3   37 1   
     7    4    5 ar  
     8    4   38 1   
     9    5    6 ar  
    10    5    8 1   
    11    6    7 ar  
    12    6   39 1   
    13    7   40 1   
    14    8    9 2   
    15    8   10 1   
    16   10   11 1   
    17   10   41 1   
    18   10   62 1   
    19   11   12 1   
    20   11   17 1   
    21   11   42 1   
    22   12   13 1   
    23   12   18 1   
    24   12   43 1   
    25   13   14 1   
    26   13   44 1   
    27   13   45 1   
    28   14   15 1   
    29   14   46 1   
    30   14   47 1   
    31   15   16 1   
    32   15   48 1   
    33   15   49 1   
    34   16   17 1   
    35   16   50 1   
    36   17   51 1   
    37   17   52 1   
    38   18   19 1   
    39   19   20 2   
    40   19   21 1   
    41   21   22 ar  
    42   21   26 ar  
    43   22   23 ar  
    44   22   53 1   
    45   23   24 ar  
    46   23   54 1   
    47   24   25 ar  
    48   24   27 1   
    49   25   26 ar  
    50   25   55 1   
    51   26   56 1   
    52   27   28 2   
    53   27   29 1   
    54   29   30 ar  
    55   29   34 ar  
    56   30   31 ar  
    57   30   57 1   
    58   31   32 ar  
    59   31   58 1   
    60   32   33 ar  
    61   32   59 1   
    62   33   34 ar  
    63   33   60 1   
    64   34   35 1   
    65   35   61 1   
@<TRIPOS>SUBSTRUCTURE
     1 BD2         1 TEMP              0 ****  ****    0 ROOT
