@<TRIPOS>MOLECULE
BD2
   62    65     1     0     0
SMALL
bcc


@<TRIPOS>ATOM
      1 O1          1.4740    3.9580    0.8140 oh        1 BD2     -0.460100
      2 C1          2.3650    2.9320    0.7560 ca        1 BD2      0.212100
      3 C2          3.1670    2.5430    1.8450 ca        1 BD2     -0.194500
      4 C3          4.0510    1.4860    1.6960 ca        1 BD2     -0.023500
      5 C4          4.1600    0.8130    0.4620 ca        1 BD2     -0.254600
      6 C5          3.3420    1.2000   -0.6170 ca        1 BD2     -0.023500
      7 C6          2.4520    2.2500   -0.4790 ca        1 BD2     -0.194500
      8 C7          5.1040   -0.2960    0.4080 c         1 BD2      0.581700
      9 O7          5.5420   -0.9550    1.3450 o         1 BD2     -0.440100
     10 N8          5.6280   -0.6970   -0.9550 n4        1 BD2     -0.673800
     11 C8          7.1260   -0.6200   -1.0440 c3        1 BD2      0.101500
     12 C9          7.6620   -1.2680   -2.3470 c3        1 BD2      0.144100
     13 C10         9.0440   -1.8920   -2.1590 c3        1 BD2     -0.086400
     14 C11         9.9800   -1.1570   -1.2310 c3        1 BD2     -0.090400
     15 C12         9.9520    0.3630   -1.3820 c3        1 BD2      0.158800
     16 N13         8.9460    1.0000   -0.5580 n3        1 BD2     -0.834200
     17 C14         7.5830    0.8680   -1.0000 c3        1 BD2      0.165800
     18 O9          6.8370   -2.3700   -2.7710 os        1 BD2     -0.461900
     19 C15         5.8410   -2.1160   -3.6950 c         1 BD2      0.669700
     20 O15         5.4100   -0.9540   -3.7100 o         1 BD2     -0.594000
     21 C16         5.3930   -3.2770   -4.4570 ca        1 BD2     -0.157600
     22 C17         5.9710   -4.5400   -4.2690 ca        1 BD2     -0.070500
     23 C18         5.5100   -5.6260   -5.0080 ca        1 BD2     -0.102000
     24 C19         4.4840   -5.4550   -5.9460 ca        1 BD2     -0.095600
     25 C20         3.9120   -4.1930   -6.1360 ca        1 BD2     -0.102000
     26 C21         4.3600   -3.1040   -5.3920 ca        1 BD2     -0.070500
     27 C22         4.0070   -6.6390   -6.7150 c         1 BD2      0.600300
     28 O22         3.8710   -7.7340   -6.1660 o         1 BD2     -0.481100
     29 C23         3.7640   -6.4340   -8.1610 ca        1 BD2     -0.193600
     30 C24         4.7720   -6.7550   -9.0780 ca        1 BD2     -0.065000
     31 C25         4.5560   -6.6150  -10.4470 ca        1 BD2     -0.157000
     32 C26         3.3230   -6.1630  -10.9200 ca        1 BD2     -0.070000
     33 C27         2.3050   -5.8410  -10.0280 ca        1 BD2     -0.205000
     34 C28         2.5280   -5.9730   -8.6480 ca        1 BD2      0.148100
     35 O28         1.5690   -5.6330   -7.7200 oh        1 BD2     -0.511100
     36 HO1         1.4820    4.3400    1.7080 ho        1 BD2      0.448000
     37 H2          3.0880    3.0690    2.8090 ha        1 BD2      0.174500
     38 H3          4.6750    1.1630    2.5490 ha        1 BD2      0.155500
     39 H5          3.3620    0.6690   -1.5820 ha        1 BD2      0.155500
     40 H6          1.8010    2.5630   -1.3120 ha        1 BD2      0.174500
     41 HN8         5.2270   -0.1080   -1.6990 hn        1 BD2      0.467300
     42 H8          7.5280   -1.1850   -0.1470 hx        1 BD2      0.140700
     43 H9          7.6820   -0.4870   -3.1610 h1        1 BD2      0.089700
     44 H101        8.9130   -2.9440   -1.7840 hc        1 BD2      0.075200
     45 H102        9.5070   -1.9650   -3.1810 hc        1 BD2      0.075200
     46 H111        9.7740   -1.4450   -0.1650 hc        1 BD2      0.071200
     47 H112       11.0260   -1.5010   -1.4590 hc        1 BD2      0.071200
     48 H121        9.8350    0.6190   -2.4760 h1        1 BD2      0.050700
     49 H122       10.9510    0.7640   -1.0430 h1        1 BD2      0.050700
     50 H13         9.1650    1.9660   -0.4040 hn        1 BD2      0.399800
     51 H141        6.9460    1.4320   -0.2570 h1        1 BD2      0.048700
     52 H142        7.3970    1.3170   -2.0220 h1        1 BD2      0.048700
     53 H17         6.7830   -4.6720   -3.5360 ha        1 BD2      0.157000
     54 H18         5.9410   -6.6290   -4.8510 ha        1 BD2      0.170000
     55 H20         3.0950   -4.0670   -6.8680 ha        1 BD2      0.170000
     56 H21         3.9140   -2.1070   -5.5360 ha        1 BD2      0.157000
     57 H24         5.7390   -7.1310   -8.7100 ha        1 BD2      0.143000
     58 H25         5.3570   -6.8720  -11.1560 ha        1 BD2      0.148000
     59 H26         3.1520   -6.0640  -12.0030 ha        1 BD2      0.147000
     60 H27         1.3290   -5.4920  -10.3960 ha        1 BD2      0.145000
     61 H28         0.7210   -5.5500   -8.1820 ho        1 BD2      0.434000
     62 H82         5.3590   -1.6730   -1.1420 hn        1 BD2      0.467300
@<TRIPOS>BOND
     1    1    2 1   
     2    1   36 1   
     3    2    3 ar  
     4    2    7 ar  
     5    3    4 ar  
     6    3   37 1   
     7    4    5 ar  
     8    4   38 1   
     9    5    6 ar  
    10    5    8 1   
    11    6    7 ar  
    12    6   39 1   
    13    7   40 1   
    14    8    9 2   
    15    8   10 1   
    16   10   11 1   
    17   10   41 1   
    18   10   62 1   
    19   11   12 1   
    20   11   17 1   
    21   11   42 1   
    22   12   13 1   
    23   12   18 1   
    24   12   43 1   
    25   13   14 1   
    26   13   44 1   
    27   13   45 1   
    28   14   15 1   
    29   14   46 1   
    30   14   47 1   
    31   15   16 1   
    32   15   48 1   
    33   15   49 1   
    34   16   17 1   
    35   16   50 1   
    36   17   51 1   
    37   17   52 1   
    38   18   19 1   
    39   19   20 2   
    40   19   21 1   
    41   21   22 ar  
    42   21   26 ar  
    43   22   23 ar  
    44   22   53 1   
    45   23   24 ar  
    46   23   54 1   
    47   24   25 ar  
    48   24   27 1   
    49   25   26 ar  
    50   25   55 1   
    51   26   56 1   
    52   27   28 2   
    53   27   29 1   
    54   29   30 ar  
    55   29   34 ar  
    56   30   31 ar  
    57   30   57 1   
    58   31   32 ar  
    59   31   58 1   
    60   32   33 ar  
    61   32   59 1   
    62   33   34 ar  
    63   33   60 1   
    64   34   35 1   
    65   35   61 1   
@<TRIPOS>SUBSTRUCTURE
     1 BD2         1 TEMP              0 ****  ****    0 ROOT
