@<TRIPOS>MOLECULE
BD2
   61    58     1     0     0
SMALL
bcc


@<TRIPOS>ATOM
      1 O1         -6.4950    3.3360    1.7430 oh        1 BD2     -0.248000
      2 C1         -5.0850    3.3570    1.7290 c2        1 BD2      0.100000
      3 C2         -4.3840    3.6050    2.8990 c2        1 BD2     -0.226000
      4 C3         -2.9970    3.6180    2.8870 c1        1 BD2     -0.037000
      5 C4         -2.3110    3.3830    1.7040 c1        1 BD2     -0.159000
      6 C5         -3.0120    3.1350    0.5340 c1        1 BD2     -0.069000
      7 C6         -4.4000    3.1220    0.5460 c1        1 BD2     -0.168000
      8 C7         -0.7890    3.3180    1.7070 c2        1 BD2      0.356000
      9 O7         -0.1780    3.4710    2.7460 o         1 BD2     -0.371000
     10 N8         -0.0780    3.1900    0.4750 n         1 BD2     -0.380000
     11 C8          1.3480    3.2420    0.4660 c3        1 BD2      0.015000
     12 C9          1.8770    2.2600   -0.5640 c3        1 BD2      0.026000
     13 C10         3.1980    1.6690   -0.1160 c3        1 BD2     -0.159000
     14 C11         3.9620    2.6490    0.7500 c3        1 BD2     -0.157000
     15 C12         4.0430    4.0050    0.0850 c3        1 BD2     -0.071000
     16 N13         3.0980    4.9030    0.6500 n3        1 BD2     -0.307000
     17 C14         1.7930    4.6550    0.1430 c3        1 BD2     -0.083000
     18 O9          0.9380    1.2190   -0.7410 os        1 BD2     -0.265000
     19 C15         1.1530    0.4440   -1.9080 c2        1 BD2      0.353000
     20 O15         1.5800    0.9710   -2.9170 o         1 BD2     -0.378000
     21 C16         0.8710   -1.0540   -1.8910 c2        1 BD2     -0.098000
     22 C17        -0.3070   -1.5430   -2.4370 c2        1 BD2     -0.091000
     23 C18        -0.5300   -2.9120   -2.4940 c1        1 BD2     -0.100000
     24 C19         0.4260   -3.7920   -2.0060 c1        1 BD2     -0.109000
     25 C20         1.6040   -3.3030   -1.4610 c1        1 BD2     -0.097000
     26 C21         1.8260   -1.9330   -1.4030 c1        1 BD2     -0.081000
     27 C22         0.1960   -5.2900   -2.0990 c2        1 BD2      0.324000
     28 O22         0.6170   -5.9110   -3.0540 o         1 BD2     -0.264000
     29 C23        -0.5470   -6.0130   -0.9920 c2        1 BD2     -0.163000
     30 C24        -1.9330   -6.0300   -0.9830 c2        1 BD2     -0.065000
     31 C25        -2.6120   -6.6910    0.0290 c1        1 BD2     -0.163000
     32 C26        -1.9050   -7.3340    1.0330 c1        1 BD2     -0.145000
     33 C27        -0.5190   -7.3160    1.0250 c1        1 BD2     -0.145000
     34 C28         0.1610   -6.6560    0.0130 c1        1 BD2      0.104000
     35 O28         1.5680   -6.6780   -0.0210 oh        1 BD2     -0.252000
     36 HO1        -6.8030    4.1700    1.7830 ho        1 BD2      0.222000
     37 H2         -4.8670    3.7700    3.7320 ha        1 BD2      0.139000
     38 H3         -2.5030    3.7930    3.7110 ha        1 BD2      0.159000
     39 H5         -2.5300    2.9700   -0.2980 ha        1 BD2      0.144000
     40 H6         -4.8930    2.9480   -0.2770 ha        1 BD2      0.155000
     41 HN8        -0.5360    3.1310   -0.3100 hn        1 BD2      0.238000
     42 H8          1.6840    2.9930    1.3480 h1        1 BD2      0.153000
     43 H9          2.0060    2.7250   -1.4150 h1        1 BD2      0.108000
     44 H101        3.7350    1.4490   -0.9020 hc        1 BD2      0.095000
     45 H102        3.0280    0.8530    0.3950 hc        1 BD2      0.095000
     46 H111        4.8670    2.3090    0.8990 hc        1 BD2      0.095500
     47 H112        3.5060    2.7390    1.6110 hc        1 BD2      0.095500
     48 H121        3.8600    3.9050   -0.8730 h1        1 BD2      0.068000
     49 H122        4.9450    4.3680    0.2050 h1        1 BD2      0.068000
     50 H13         3.3420    5.7640    0.4570 hn        1 BD2      0.165000
     51 H141        1.7960    4.7770   -0.8290 h1        1 BD2      0.077000
     52 H142        1.1650    5.2890    0.5460 h1        1 BD2      0.077000
     53 H17        -0.9800   -0.9250   -2.7800 ha        1 BD2      0.159000
     54 H18        -1.3580   -3.2560   -2.8780 ha        1 BD2      0.157000
     55 H20         2.2760   -3.9220   -1.1170 ha        1 BD2      0.154000
     56 H21         2.6550   -1.5900   -1.0200 ha        1 BD2      0.162000
     57 H24        -2.4310   -5.5780   -1.6900 ha        1 BD2      0.144000
     58 H25        -3.5900   -6.7030    0.0350 ha        1 BD2      0.141000
     59 H26        -2.3830   -7.7980    1.7460 ha        1 BD2      0.138500
     60 H27        -0.0200   -7.7690    1.7330 ha        1 BD2      0.138500
     61 H28         1.8550   -7.5100    0.1120 ho        1 BD2      0.225000
@<TRIPOS>BOND
     1    1    2 1   
     2    1   36 1   
     3    2    3 1   
     4    2    7 1   
     5    3    4 1   
     6    3   37 1   
     7    4   38 1   
     8    5    6 1   
     9    5    8 1   
    10    6   39 1   
    11    7   40 1   
    12    8    9 1   
    13    8   10 1   
    14   10   11 1   
    15   10   41 1   
    16   11   12 1   
    17   11   17 1   
    18   11   42 1   
    19   12   13 1   
    20   12   18 1   
    21   12   43 1   
    22   13   14 1   
    23   13   44 1   
    24   13   45 1   
    25   14   15 1   
    26   14   46 1   
    27   14   47 1   
    28   15   16 1   
    29   15   48 1   
    30   15   49 1   
    31   16   17 1   
    32   16   50 1   
    33   17   51 1   
    34   17   52 1   
    35   18   19 1   
    36   19   20 1   
    37   19   21 1   
    38   21   22 1   
    39   21   26 1   
    40   22   23 1   
    41   22   53 1   
    42   23   54 1   
    43   24   25 1   
    44   24   27 1   
    45   25   55 1   
    46   26   56 1   
    47   27   28 1   
    48   27   29 1   
    49   29   30 1   
    50   29   34 1   
    51   30   31 1   
    52   30   57 1   
    53   31   58 1   
    54   32   33 1   
    55   32   59 1   
    56   33   60 1   
    57   34   35 1   
    58   35   61 1   
@<TRIPOS>SUBSTRUCTURE
     1 BD2         1 TEMP              0 ****  ****    0 ROOT
