@<TRIPOS>MOLECULE
BD3
   64    63     1     0     0
SMALL
bcc


@<TRIPOS>ATOM
      1 C1         -0.2940   -0.8140   -0.1870 c2        1 BD3     -0.118000
      2 C2          0.6140   -1.8060   -0.1800 c2        1 BD3     -0.150000
      3 C3         -0.8400   -0.2480    1.0370 c2        1 BD3     -0.132000
      4 C4          2.1290   -0.5400    1.2180 c1        1 BD3      0.238000
      5 C5         -0.0680    0.2470    2.0330 c2        1 BD3      0.063000
      6 C6          1.3760    0.1920    2.0290 c2        1 BD3     -0.457000
      7 C7         -0.7000    0.9460    3.1430 c2        1 BD3      0.006000
      8 N13        -0.3390    1.6120    9.2800 n2        1 BD3     -0.306000
      9 C15        -0.7960    1.2610   -1.5680 c3        1 BD3      0.014000
     10 C18        -2.5550    3.5120    0.9100 c2        1 BD3     -0.153000
     11 C23        -2.2200   -0.4860   -6.5550 c3        1 BD3     -0.144000
     12 C24        -0.7420   -0.7230   -6.7210 c2        1 BD3     -0.149000
     13 C32        -5.6400    5.5030    1.2750 c3        1 BD3     -0.225000
     14 C33        -5.8640    5.2260    3.7410 c3        1 BD3     -0.225000
     15 C34        -6.6800    3.4440    2.2160 c3        1 BD3     -0.225000
     16 N25         0.3030   -0.5180   -6.1150 n1        1 BD3      0.375000
     17 C20        -0.9050    1.6750   -3.0610 c2        1 BD3      0.319000
     18 O21        -1.0730    0.8200   -3.9680 o         1 BD3     -0.486000
     19 N16        -1.8240    1.9000   -0.7700 ns        1 BD3     -0.344000
     20 C29        -3.8180    3.0750    1.2140 c2        1 BD3     -0.033000
     21 C28        -4.2420    3.7870    2.4890 c3        1 BD3     -0.127000
     22 N27        -3.0850    4.6650    2.7990 n2        1 BD3      0.118000
     23 N26        -2.1830    4.4950    1.9360 n3        1 BD3      0.092000
     24 C14        -0.8300   -0.2730   -1.4710 c3        1 BD3     -0.126000
     25 O11        -0.2280    0.7820    4.4530 os        1 BD3     -0.102000
     26 C10        -1.0320    1.6320    5.2150 c2        1 BD3     -0.043000
     27 N9         -1.9040    2.2540    4.4040 n2        1 BD3     -0.168000
     28 N8         -1.7090    1.8410    3.1580 n2        1 BD3     -0.188000
     29 H2          0.9180   -2.3370    0.7390 ha        1 BD3      0.148500
     30 H3         -1.9400   -0.2300    1.1160 ha        1 BD3      0.143000
     31 H4          1.0540   -2.2070   -1.1030 ha        1 BD3      0.148500
     32 H6          1.9010    0.8030    2.7970 ha        1 BD3      0.209000
     33 H12        -0.8430    1.6600    6.3280 h5        1 BD3      0.324000
     34 HN13       -0.1770    1.5760   10.2380 hn        1 BD3      0.305000
     35 H15         0.2210    1.6220   -1.2110 h1        1 BD3      0.146000
     36 HN22       -0.5800    3.6670   -2.6630 hn        1 BD3      0.248500
     37 H23        -0.8100    3.2910   -4.3100 hn        1 BD3      0.248500
     38 H23A       -2.5860    0.1130   -7.4280 hc        1 BD3      0.173000
     39 H24        -0.5430   -1.2680   -7.7390 h4        1 BD3      0.396000
     40 H30        -0.7660    5.8380    2.8130 h1        1 BD3      0.159333
     41 H30A       -0.0850    4.3730    1.9160 h1        1 BD3      0.159333
     42 H30B       -0.8170    5.7610    0.9630 h1        1 BD3      0.159333
     43 H32        -6.6650    5.9420    1.1910 hc        1 BD3      0.097778
     44 H32A       -5.3940    5.0000    0.3080 hc        1 BD3      0.097778
     45 H32B       -4.9210    6.3400    1.4450 hc        1 BD3      0.097778
     46 H33        -5.7570    4.5220    4.6010 hc        1 BD3      0.097778
     47 H33A       -6.9050    5.6340    3.7450 hc        1 BD3      0.097778
     48 H33B       -5.1580    6.0790    3.8810 hc        1 BD3      0.097778
     49 H34        -7.6880    3.9280    2.2160 hc        1 BD3      0.097778
     50 H34A       -6.5430    2.9240    1.2380 hc        1 BD3      0.097778
     51 H34B       -6.6540    2.6900    3.0390 hc        1 BD3      0.097778
     52 HN25       -2.7340   -1.4820   -6.5250 hc        1 BD3      0.173000
     53 HN16       -4.4530    2.3570    0.6930 ha        1 BD3      0.209000
     54 H29        -4.2920    3.0360    3.3500 h1        1 BD3      0.244000
     55 H14        -1.8800   -0.6470   -1.6180 hc        1 BD3      0.117000
     56 H14A       -0.2210   -0.6710   -2.3290 hc        1 BD3      0.117000
     57 C12        -0.5330    1.6540    8.1250 c1        1 BD3      0.044000
     58 C17        -1.6020    3.1160   -0.1580 c2        1 BD3      0.378000
     59 N22        -0.7800    2.9920   -3.3650 nt        1 BD3     -0.393000
     60 C30        -0.8800    5.1680    1.9180 c3        1 BD3     -0.109000
     61 C31        -5.6120    4.5100    2.4230 c3        1 BD3     -0.007000
     62 O19        -0.6650    3.8670   -0.4980 o         1 BD3     -0.359000
     63 H162       -2.5370    1.3040   -0.4110 hn        1 BD3      0.241000
     64 H222       -2.3940    0.0730   -5.5940 hc        1 BD3      0.173000
@<TRIPOS>BOND
     1    1    2 1   
     2    1    3 1   
     3    1   24 1   
     4    2   29 1   
     5    2   31 1   
     6    3    5 1   
     7    3   30 1   
     8    4    6 1   
     9    5    6 1   
    10    5    7 1   
    11    6   32 1   
    12    7   25 1   
    13    7   28 1   
    14    8   34 1   
    15    8   57 1   
    16    9   17 1   
    17    9   19 1   
    18    9   24 1   
    19    9   35 1   
    20   10   20 1   
    21   10   23 1   
    22   10   58 1   
    23   11   12 1   
    24   11   38 1   
    25   11   52 1   
    26   11   64 1   
    27   12   16 1   
    28   12   39 1   
    29   13   43 1   
    30   13   44 1   
    31   13   45 1   
    32   13   61 1   
    33   14   46 1   
    34   14   47 1   
    35   14   48 1   
    36   14   61 1   
    37   15   49 1   
    38   15   50 1   
    39   15   51 1   
    40   15   61 1   
    41   17   18 1   
    42   17   59 1   
    43   19   58 1   
    44   19   63 1   
    45   20   21 1   
    46   20   53 1   
    47   21   22 1   
    48   21   54 1   
    49   21   61 1   
    50   22   23 1   
    51   23   60 1   
    52   24   55 1   
    53   24   56 1   
    54   25   26 1   
    55   26   27 1   
    56   26   33 1   
    57   27   28 1   
    58   36   59 1   
    59   37   59 1   
    60   40   60 1   
    61   41   60 1   
    62   42   60 1   
    63   58   62 1   
@<TRIPOS>SUBSTRUCTURE
     1 BD3         1 TEMP              0 ****  ****    0 ROOT
