@<TRIPOS>MOLECULE
BD3
   64    62     1     0     0
SMALL
bcc


@<TRIPOS>ATOM
      1 C1         20.5230   -6.5790  111.1350 c2        1 BD3     -0.139000
      2 C2         20.5750   -7.1640  112.3430 c2        1 BD3     -0.126000
      3 C3         19.7390   -5.3780  110.8730 c2        1 BD3     -0.200000
      4 C4         18.2010   -7.5700  112.0470 c1        1 BD3      0.239000
      5 C5         18.3840   -5.3950  110.9240 c2        1 BD3      0.090000
      6 C6         17.6490   -6.5330  111.4290 c2        1 BD3     -0.462000
      7 C7         17.6470   -4.2730  110.3730 c2        1 BD3     -0.037000
      8 N13        12.4360   -0.7250  111.0500 n2        1 BD3     -0.329000
      9 C15        21.6400   -6.1640  108.8840 c3        1 BD3     -0.099000
     10 C18        20.3730   -3.9930  106.2320 c2        1 BD3     -0.234000
     11 C23      -179.2440   59.2050 -868.5730 c3        1 BD3     -0.143000
     12 C24      -178.8900   57.8460 -869.1110 c2        1 BD3     -0.157000
     13 C32        18.8660   -4.3870  101.8490 c1        1 BD3     -0.009000
     14 C33        20.5370   -6.0510  102.4820 c3        1 BD3     -0.188500
     15 C34        21.1690   -3.7510  101.7540 c3        1 BD3     -0.188500
     16 N25      -178.8760   57.2210 -870.1630 n1        1 BD3      0.370000
     17 C20        22.6570   -6.8520  107.9300 c2        1 BD3      0.291000
     18 O21        22.2640   -7.2690  106.8190 o         1 BD3     -0.372000
     19 N16        20.4800   -5.6530  108.0750 n4        1 BD3     -0.104000
     20 C29        20.5250   -4.8870  105.1380 c2        1 BD3     -0.135000
     21 C28        20.1610   -4.1200  103.9850 c2        1 BD3     -0.132000
     22 N27        19.8100   -2.8420  104.3790 n2        1 BD3     -0.005000
     23 N26        19.9470   -2.7570  105.6860 na        1 BD3     -0.020000
     24 C14        21.2200   -7.1780  109.9560 c3        1 BD3     -0.140000
     25 O11        16.4410   -3.8370  110.9360 os        1 BD3     -0.100000
     26 C10        16.0440   -2.7890  110.1030 c2        1 BD3     -0.045000
     27 N9         16.9510   -2.6350  109.1200 n2        1 BD3     -0.113000
     28 N8         17.9160   -3.5260  109.2770 n2        1 BD3     -0.131000
     29 H2         20.0950   -6.7280  113.2350 ha        1 BD3      0.152000
     30 H3         20.2930   -4.4580  110.6150 ha        1 BD3      0.171000
     31 H4         21.1380   -8.0910  112.5250 ha        1 BD3      0.152000
     32 H6         16.5440   -6.5080  111.3170 ha        1 BD3      0.216000
     33 H12        15.0950   -2.2640  110.3570 h5        1 BD3      0.305000
     34 HN13       11.6240   -0.2350  111.2550 hn        1 BD3      0.296000
     35 H15        22.1170   -5.2670  109.3870 hx        1 BD3      0.175000
     36 HN22       24.2360   -6.6330  109.2310 hn        1 BD3      0.256000
     37 H23      -180.0440   59.0860 -867.7950 hc        1 BD3      0.174000
     38 H23A     -178.3260   59.6590 -868.1130 hc        1 BD3      0.174000
     39 H24      -179.6150   59.8520 -869.4110 hc        1 BD3      0.174000
     40 H30        19.5280   -0.6840  105.8140 h1        1 BD3      0.133000
     41 H30A       18.6250   -1.7620  106.9930 h1        1 BD3      0.133000
     42 H30B       20.4170   -1.4280  107.2390 h1        1 BD3      0.133000
     43 H32        17.7030   -6.2500  102.0300 ha        1 BD3      0.013500
     44 H32A       18.1140   -3.7560  102.3470 ha        1 BD3      0.049000
     45 H32B       17.6150   -6.0820  102.6850 ha        1 BD3      0.013500
     46 H33        21.5880   -6.1870  102.8340 hc        1 BD3      0.094333
     47 H33A       19.8570   -6.6700  103.1140 hc        1 BD3      0.094333
     48 H33B       20.4590   -6.3990  101.4230 hc        1 BD3      0.094333
     49 H34        21.2080   -4.1270  100.7030 hc        1 BD3      0.094333
     50 H34A       20.8870   -2.6720  101.7460 hc        1 BD3      0.094333
     51 H34B       22.1770   -3.8620  102.2200 hc        1 BD3      0.094333
     52 HN25     -178.5010   57.1660 -868.2310 h4        1 BD3      0.408000
     53 HN16       19.6220   -5.7010  108.6470 hn        1 BD3      0.275500
     54 H29        20.8920   -5.9130  105.1500 ha        1 BD3      0.193000
     55 H14        22.1540   -7.7000  110.3100 hc        1 BD3      0.131000
     56 H14A       20.5620   -7.9700  109.5000 hc        1 BD3      0.131000
     57 C12        13.4180   -1.3170  110.8030 c1        1 BD3      0.057000
     58 C17        20.6480   -4.2070  107.6290 c2        1 BD3      0.364000
     59 N22        23.9400   -6.9730  108.3510 n         1 BD3     -0.386000
     60 C30        19.6080   -1.5870  106.4770 c3        1 BD3     -0.094000
     61 C31        20.1460   -4.5750  102.5570 c3        1 BD3     -0.070000
     62 O19        20.9870   -3.4090  108.4940 o         1 BD3     -0.208000
     63 H162       20.3620   -6.2590  107.2450 hn        1 BD3      0.275500
     64 H222       24.6030   -7.4240  107.7610 hn        1 BD3      0.256000
@<TRIPOS>BOND
     1    1    2 1   
     2    1    3 1   
     3    1   24 1   
     4    2   29 1   
     5    2   31 1   
     6    3    5 1   
     7    3   30 1   
     8    4    6 1   
     9    5    6 1   
    10    5    7 1   
    11    6   32 1   
    12    7   25 1   
    13    7   28 1   
    14    8   34 1   
    15    8   57 1   
    16    9   17 1   
    17    9   19 1   
    18    9   24 1   
    19    9   35 1   
    20   10   20 1   
    21   10   23 1   
    22   10   58 1   
    23   11   12 1   
    24   11   37 1   
    25   11   38 1   
    26   11   39 1   
    27   12   16 1   
    28   12   52 1   
    29   13   44 1   
    30   13   61 1   
    31   14   46 1   
    32   14   47 1   
    33   14   48 1   
    34   14   61 1   
    35   15   49 1   
    36   15   50 1   
    37   15   51 1   
    38   15   61 1   
    39   17   18 1   
    40   17   59 1   
    41   19   53 1   
    42   19   58 1   
    43   19   63 1   
    44   20   21 1   
    45   20   54 1   
    46   21   22 1   
    47   21   61 1   
    48   22   23 1   
    49   23   60 1   
    50   24   55 1   
    51   24   56 1   
    52   25   26 1   
    53   26   27 1   
    54   26   33 1   
    55   27   28 1   
    56   36   59 1   
    57   40   60 1   
    58   41   60 1   
    59   42   60 1   
    60   43   45 1   
    61   58   62 1   
    62   59   64 1   
@<TRIPOS>SUBSTRUCTURE
     1 BD3         1 TEMP              0 ****  ****    0 ROOT
