@<TRIPOS>MOLECULE
BD3
   62    55     1     0     0
SMALL
bcc


@<TRIPOS>ATOM
      1 C1          2.5090   -1.7820    0.5700 c1        1 BD3     -0.095000
      2 C2          3.4390   -1.0680   -0.1700 c1        1 BD3     -0.113000
      3 C3          2.9320   -2.6520    1.5500 c1        1 BD3     -0.075000
      4 C4          4.8080   -1.2310    0.0790 c1        1 BD3     -0.113000
      5 C5          4.2970   -2.8150    1.7980 c1        1 BD3     -0.044000
      6 C6          5.2280   -2.1010    1.0580 c1        1 BD3     -0.086000
      7 C7          4.7300   -3.7070    2.8070 c1        1 BD3     -0.023500
      8 C12         5.7770   -6.9910    4.2950 c1        1 BD3      0.019000
      9 N13         4.8390   -7.8730    4.7330 n1        1 BD3     -0.187000
     10 C15         0.6700   -0.4160   -0.4360 c3        1 BD3      0.018000
     11 C17        -0.4490    1.7440    0.2100 c1        1 BD3      0.386000
     12 C18        -1.8250    2.4520    0.3960 c1        1 BD3     -0.143000
     13 N22         1.0730   -0.4370   -2.9930 n         1 BD3     -0.367000
     14 C23         0.5990   -0.5650   -4.3490 c3        1 BD3     -0.058000
     15 C24         1.7420   -0.2490   -5.3140 c2        1 BD3     -0.086000
     16 C30        -1.4770    4.3270    2.2270 c3        1 BD3     -0.064000
     17 C31        -5.3800    3.2190   -0.4600 c3        1 BD3      0.020000
     18 C32        -5.3800    2.9410   -1.9750 c3        1 BD3     -0.202667
     19 C33        -5.9260    4.6660   -0.1940 c3        1 BD3     -0.202667
     20 C34        -6.2710    2.2190    0.2540 c3        1 BD3     -0.202667
     21 N25         1.5130   -0.2070   -6.6360 n1        1 BD3     -0.220000
     22 C20         0.1800   -0.6650   -1.8930 c2        1 BD3      0.283000
     23 O21        -0.9970   -0.9600   -2.1050 o         1 BD3     -0.381000
     24 N16        -0.3580    0.2950    0.3060 n3        1 BD3     -0.368000
     25 O19         0.5410    2.3990   -0.0950 o         1 BD3     -0.397000
     26 C29        -2.9700    2.2190   -0.3340 c1        1 BD3     -0.183000
     27 C28        -3.9210    3.1070    0.0840 c2        1 BD3     -0.115000
     28 N27        -3.3680    3.8870    1.0670 n2        1 BD3     -0.048000
     29 N26        -2.0770    3.4810    1.2570 n3        1 BD3     -0.071000
     30 C14         0.9470   -1.6930    0.2030 c3        1 BD3     -0.128000
     31 O11         5.0280   -5.0220    2.6990 os        1 BD3     -0.118000
     32 C10         5.3510   -5.4820    3.9310 c1        1 BD3     -0.023500
     33 N9          5.2540   -4.4560    4.7960 n2        1 BD3     -0.075000
     34 N8          4.8680   -3.3540    4.0970 n2        1 BD3     -0.075000
     35 H2          3.1400   -0.4510   -0.8650 ha        1 BD3      0.155500
     36 H3          2.2470   -3.1810    2.0950 ha        1 BD3      0.158000
     37 H4          5.4610   -0.7300   -0.4380 ha        1 BD3      0.155500
     38 H6          6.1950   -2.2160    1.2360 ha        1 BD3      0.150000
     39 H12         6.7440   -7.2840    4.1970 ha        1 BD3      0.172000
     40 HN13        3.9560   -7.6030    4.8210 DU        1 BD3      0.155667
     41 H15         1.4700    0.1100   -0.4530 h1        1 BD3      0.138000
     42 HN22        1.9350   -0.2530   -2.8370 hn        1 BD3      0.255000
     43 H23         0.2850   -1.4860   -4.5030 h1        1 BD3      0.112500
     44 H23A       -0.1440    0.0690   -4.4990 h1        1 BD3      0.112500
     45 H24         2.6670   -0.0750   -4.9580 h4        1 BD3      0.151000
     46 H30        -2.1830    4.8500    2.6970 h1        1 BD3      0.111333
     47 H30A       -0.8750    4.9240    1.7950 h1        1 BD3      0.111333
     48 H30B       -0.9820    3.7770    2.8850 h1        1 BD3      0.111333
     49 H32        -6.2610    3.1430   -2.3450 hc        1 BD3      0.078889
     50 H32A       -4.7310    3.4900   -2.3910 hc        1 BD3      0.078889
     51 H32B       -5.1610    1.9890   -2.1390 hc        1 BD3      0.078889
     52 H33        -5.3190    5.3530   -0.6600 hc        1 BD3      0.078889
     53 H33A       -6.8070    4.7400   -0.5360 hc        1 BD3      0.078889
     54 H33B       -5.9370    4.8420    0.7910 hc        1 BD3      0.078889
     55 H34        -7.2080    2.3880    0.0160 hc        1 BD3      0.078889
     56 H34A       -6.0200    1.2880   -0.0170 hc        1 BD3      0.078889
     57 H34B       -6.1560    2.3200    1.2420 hc        1 BD3      0.078889
     58 HN25        0.6510   -0.3690   -6.9690 DU        1 BD3      0.155667
     59 HN16       -0.9300   -0.1650    0.8570 hn        1 BD3      0.240000
     60 H29        -3.0800    1.5200   -1.0840 DU        1 BD3      0.155667
     61 H14         0.7050   -2.4480   -0.4340 hc        1 BD3      0.113500
     62 H14A        0.4090   -1.7730    1.0310 hc        1 BD3      0.113500
@<TRIPOS>BOND
     1    1    3 1   
     2    1   30 1   
     3    2    4 1   
     4    2   35 1   
     5    3   36 1   
     6    4   37 1   
     7    5    6 1   
     8    6   38 1   
     9    7   31 1   
    10    7   34 1   
    11    8    9 1   
    12    8   39 1   
    13   10   22 1   
    14   10   24 1   
    15   10   30 1   
    16   10   41 1   
    17   11   24 1   
    18   11   25 1   
    19   12   26 1   
    20   12   29 1   
    21   13   14 1   
    22   13   22 1   
    23   13   42 1   
    24   14   15 1   
    25   14   43 1   
    26   14   44 1   
    27   15   21 1   
    28   15   45 1   
    29   16   29 1   
    30   16   46 1   
    31   16   47 1   
    32   16   48 1   
    33   17   18 1   
    34   17   19 1   
    35   17   20 1   
    36   17   27 1   
    37   18   49 1   
    38   18   50 1   
    39   18   51 1   
    40   19   52 1   
    41   19   53 1   
    42   19   54 1   
    43   20   55 1   
    44   20   56 1   
    45   20   57 1   
    46   22   23 1   
    47   24   59 1   
    48   26   27 1   
    49   27   28 1   
    50   28   29 1   
    51   30   61 1   
    52   30   62 1   
    53   31   32 1   
    54   32   33 1   
    55   33   34 1   
@<TRIPOS>SUBSTRUCTURE
     1 BD3         1 TEMP              0 ****  ****    0 ROOT
