@<TRIPOS>MOLECULE
BD3
   62    64     1     0     0
SMALL
bcc


@<TRIPOS>ATOM
      1 C1         -0.8900   -2.7910   -0.0840 ca        1 BD3     -0.092300
      2 C2         -1.0310   -3.4440   -1.3150 ca        1 BD3     -0.095000
      3 C3          0.3890   -2.5780    0.4410 ca        1 BD3     -0.081000
      4 C4          0.0930   -3.8790   -2.0150 ca        1 BD3     -0.132000
      5 C5          1.5180   -3.0120   -0.2670 ca        1 BD3     -0.143500
      6 C6          1.3690   -3.6670   -1.4980 ca        1 BD3     -0.087000
      7 C7          2.8360   -2.7760    0.2820 cc        1 BD3      0.534900
      8 N13         7.4860   -3.0190    0.5660 n2        1 BD3     -0.717100
      9 C15        -2.6320   -1.0000    0.1400 c3        1 BD3      0.045700
     10 C18        -0.5780    2.1030   -0.5330 cc        1 BD3     -0.188900
     11 C23        -5.8920    0.8030    1.1140 c3        1 BD3      0.031700
     12 C24        -7.1040    0.2420    0.3830 c2        1 BD3      0.401200
     13 C32         2.2120    4.0060    2.1600 c3        1 BD3     -0.085100
     14 C33         3.0240    5.0870    0.0780 c3        1 BD3     -0.085100
     15 C34         3.5680    2.7060    0.5250 c3        1 BD3     -0.085100
     16 N25        -7.9850    1.0010   -0.1430 n2        1 BD3     -0.759100
     17 C20        -3.9360   -0.6780    0.9210 c         1 BD3      0.635100
     18 O21        -4.3050   -1.3950    1.8720 o         1 BD3     -0.614100
     19 N16        -1.6690    0.0670    0.2270 n         1 BD3     -0.554900
     20 C29         0.5170    2.1290    0.3510 cd        1 BD3     -0.244300
     21 C28         1.2480    3.3250    0.0060 cd        1 BD3      0.308600
     22 N27         0.6150    3.9660   -1.0270 nc        1 BD3     -0.482800
     23 N26        -0.4610    3.2490   -1.3460 na        1 BD3      0.140400
     24 C14        -2.0890   -2.3390    0.6690 c3        1 BD3     -0.046100
     25 O11         3.9520   -3.3150   -0.3810 os        1 BD3     -0.374800
     26 C10         5.0360   -2.8960    0.4050 cc        1 BD3      0.341100
     27 N9          4.5760   -2.1690    1.4450 nd        1 BD3     -0.326000
     28 N8          3.2620   -2.0950    1.3750 nd        1 BD3     -0.353000
     29 H2         -2.0370   -3.6160   -1.7280 ha        1 BD3      0.141000
     30 H3          0.5060   -2.0740    1.4150 ha        1 BD3      0.154000
     31 H4         -0.0260   -4.3930   -2.9810 ha        1 BD3      0.144000
     32 H6          2.2590   -4.0080   -2.0490 ha        1 BD3      0.151000
     33 H12         6.4050   -3.9040   -0.9390 h4        1 BD3      0.043800
     34 HN13        7.4620   -2.4710    1.4000 hn        1 BD3      0.413400
     35 H15        -2.9210   -1.1310   -0.9490 h1        1 BD3      0.089700
     36 HN22       -4.3680    0.9060   -0.3160 hn        1 BD3      0.341500
     37 H23        -5.9340    0.4030    2.1700 h1        1 BD3      0.080200
     38 H23A       -5.9330    1.9300    1.1540 h1        1 BD3      0.080200
     39 H24        -7.1320   -0.8710    0.3850 h4        1 BD3     -0.030200
     40 H30        -2.4140    3.7240   -1.9440 h1        1 BD3      0.071367
     41 H30A       -1.0780    4.5490   -2.9010 h1        1 BD3      0.071367
     42 H30B       -1.4310    2.7590   -3.1390 h1        1 BD3      0.071367
     43 H32         3.1470    4.3140    2.6860 hc        1 BD3      0.039922
     44 H32A        1.4460    4.8060    2.2920 hc        1 BD3      0.039922
     45 H32B        1.8330    3.0650    2.6250 hc        1 BD3      0.039922
     46 H33         3.2560    4.9540   -1.0050 hc        1 BD3      0.039922
     47 H33A        2.2680    5.9000    0.1870 hc        1 BD3      0.039922
     48 H33B        3.9580    5.3950    0.6070 hc        1 BD3      0.039922
     49 H34         3.2130    1.7440    0.9640 hc        1 BD3      0.039922
     50 H34A        3.8040    2.5450   -0.5540 hc        1 BD3      0.039922
     51 H34B        4.5010    3.0180    1.0530 hc        1 BD3      0.039922
     52 HN25       -8.7580    0.5340   -0.5700 hn        1 BD3      0.387400
     53 HN16       -0.9470   -0.0150    0.9030 hn        1 BD3      0.328500
     54 H29         0.7800    1.4200    1.1280 ha        1 BD3      0.167000
     55 H14        -2.9160   -3.0950    0.5730 hc        1 BD3      0.081700
     56 H14A       -1.8610   -2.2480    1.7650 hc        1 BD3      0.081700
     57 C12         6.3860   -3.2940   -0.0110 ce        1 BD3      0.405200
     58 C17        -1.6730    1.1250   -0.6580 c         1 BD3      0.712700
     59 N22        -4.6440    0.4280    0.5150 n         1 BD3     -0.556900
     60 C30        -1.3930    3.5990   -2.3950 c3        1 BD3      0.035600
     61 C31         2.5020    3.7870    0.6780 c3        1 BD3     -0.074300
     62 O19        -2.5800    1.2380   -1.5150 o         1 BD3     -0.641100
@<TRIPOS>BOND
     1    1    2 ar  
     2    1    3 ar  
     3    1   24 1   
     4    2    4 ar  
     5    2   29 1   
     6    3    5 ar  
     7    3   30 1   
     8    4    6 ar  
     9    4   31 1   
    10    5    6 ar  
    11    5    7 1   
    12    6   32 1   
    13    7   25 1   
    14    7   28 2   
    15    8   34 1   
    16    8   57 2   
    17    9   17 1   
    18    9   19 1   
    19    9   24 1   
    20    9   35 1   
    21   10   20 2   
    22   10   23 1   
    23   10   58 1   
    24   11   12 1   
    25   11   37 1   
    26   11   38 1   
    27   11   59 1   
    28   12   16 2   
    29   12   39 1   
    30   13   43 1   
    31   13   44 1   
    32   13   45 1   
    33   13   61 1   
    34   14   46 1   
    35   14   47 1   
    36   14   48 1   
    37   14   61 1   
    38   15   49 1   
    39   15   50 1   
    40   15   51 1   
    41   15   61 1   
    42   16   52 1   
    43   17   18 2   
    44   17   59 1   
    45   19   53 1   
    46   19   58 1   
    47   20   21 1   
    48   20   54 1   
    49   21   22 2   
    50   21   61 1   
    51   22   23 1   
    52   23   60 1   
    53   24   55 1   
    54   24   56 1   
    55   25   26 1   
    56   26   27 2   
    57   26   57 1   
    58   27   28 1   
    59   33   57 1   
    60   36   59 1   
    61   40   60 1   
    62   41   60 1   
    63   42   60 1   
    64   58   62 2   
@<TRIPOS>SUBSTRUCTURE
     1 BD3         1 TEMP              0 ****  ****    0 ROOT
