@<TRIPOS>MOLECULE
BD4
   43    46     1     0     0
SMALL
bcc


@<TRIPOS>ATOM
      1 O23        -4.6890   -2.0010    0.3700 o         1 BD4     -0.584500
      2 C20        -3.8340   -1.1110    0.3240 c         1 BD4      0.731100
      3 N21        -4.1060    0.2510    0.6110 n         1 BD4     -0.623500
      4 C22        -2.9460    1.0470    0.4790 c         1 BD4      0.729100
      5 O24        -2.9180    2.2650    0.6760 o         1 BD4     -0.584500
      6 C13        -1.8380    0.1220    0.0740 ca        1 BD4     -0.091600
      7 C12        -2.3800   -1.1980   -0.0210 ca        1 BD4     -0.179600
      8 C11        -1.6070   -2.2910   -0.3770 ca        1 BD4      0.027700
      9 C15        -2.1570   -3.6630   -0.4680 c3        1 BD4     -0.076800
     10 C10        -0.2380   -2.0870   -0.6600 ca        1 BD4     -0.164000
     11 C8          0.3020   -0.8090   -0.5770 ca        1 BD4      0.014800
     12 C9         -0.5140    0.3440   -0.1910 cp        1 BD4     -0.003000
     13 C5          0.3710    1.4950   -0.1960 cp        1 BD4     -0.086000
     14 C6          0.1730    2.8390    0.0820 ca        1 BD4     -0.059000
     15 C1          1.2600    3.7180   -0.0130 ca        1 BD4     -0.106300
     16 C14         1.0740    5.1600    0.2680 c3        1 BD4     -0.051800
     17 C2          2.5250    3.2400   -0.3850 ca        1 BD4     -0.094000
     18 C3          2.7520    1.8960   -0.6740 ca        1 BD4     -0.156000
     19 C4          1.6750    1.0120   -0.5830 ca        1 BD4     -0.006200
     20 N7          1.6100   -0.3720   -0.8840 na        1 BD4     -0.070300
     21 C16         2.7540   -1.2400   -0.8950 c3        1 BD4      0.038300
     22 C17         3.2210   -1.7460    0.4710 c3        1 BD4     -0.118400
     23 C18         4.4600   -2.6180    0.2800 c3        1 BD4      0.164800
     24 N19         4.9040   -3.2460    1.5010 n3        1 BD4     -0.915800
     25 H21        -4.9940    0.5980    0.8700 hn        1 BD4      0.346500
     26 H151       -1.6840   -4.3140    0.3100 hc        1 BD4      0.063367
     27 H152       -3.2650   -3.6690   -0.3110 hc        1 BD4      0.063367
     28 H153       -1.9350   -4.1010   -1.4740 hc        1 BD4      0.063367
     29 H10         0.3850   -2.9490   -0.9420 ha        1 BD4      0.148000
     30 H6         -0.8270    3.2030    0.3720 ha        1 BD4      0.170000
     31 H141        1.0250    5.7340   -0.6920 hc        1 BD4      0.046033
     32 H142        0.1280    5.3430    0.8340 hc        1 BD4      0.046033
     33 H143        1.9280    5.5590    0.8690 hc        1 BD4      0.046033
     34 H2          3.3650    3.9490   -0.4520 ha        1 BD4      0.134000
     35 H3          3.7530    1.5500   -0.9670 ha        1 BD4      0.137000
     36 H161        2.4950   -2.1280   -1.5420 h1        1 BD4      0.062200
     37 H162        3.5970   -0.6780   -1.3900 h1        1 BD4      0.062200
     38 H171        3.4590   -0.8800    1.1430 hc        1 BD4      0.062200
     39 H172        2.4030   -2.3370    0.9600 hc        1 BD4      0.062200
     40 H181        4.2180   -3.4440   -0.4500 h1        1 BD4      0.024700
     41 H182        5.2640   -1.9820   -0.1990 h1        1 BD4      0.024700
     42 H191        5.7780   -3.7100    1.3570 hn        1 BD4      0.353300
     43 H192        4.9980   -2.5790    2.2400 hn        1 BD4      0.353300
@<TRIPOS>BOND
     1    1    2 2   
     2    2    3 1   
     3    2    7 1   
     4    3    4 1   
     5    3   25 1   
     6    4    5 2   
     7    4    6 1   
     8    6    7 ar  
     9    6   12 ar  
    10    7    8 ar  
    11    8    9 1   
    12    8   10 ar  
    13    9   26 1   
    14    9   27 1   
    15    9   28 1   
    16   10   11 ar  
    17   10   29 1   
    18   11   12 ar  
    19   11   20 1   
    20   12   13 1   
    21   13   14 ar  
    22   13   19 ar  
    23   14   15 ar  
    24   14   30 1   
    25   15   16 1   
    26   15   17 ar  
    27   16   31 1   
    28   16   32 1   
    29   16   33 1   
    30   17   18 ar  
    31   17   34 1   
    32   18   19 ar  
    33   18   35 1   
    34   19   20 1   
    35   20   21 1   
    36   21   22 1   
    37   21   36 1   
    38   21   37 1   
    39   22   23 1   
    40   22   38 1   
    41   22   39 1   
    42   23   24 1   
    43   23   40 1   
    44   23   41 1   
    45   24   42 1   
    46   24   43 1   
@<TRIPOS>SUBSTRUCTURE
     1 BD4         1 TEMP              0 ****  ****    0 ROOT
