@<TRIPOS>MOLECULE
BD4
   43    37     1     0     0
SMALL
bcc


@<TRIPOS>ATOM
      1 O23        -4.9950    0.2660    2.8740 o         1 BD4     -0.310000
      2 C20        -3.7800    0.2660    2.8740 c1        1 BD4      0.368000
      3 N21        -2.9390    0.2660    4.0330 n2        1 BD4     -0.403000
      4 C22        -1.5760    0.2660    3.5910 c2        1 BD4      0.366000
      5 O24        -0.5940    0.2460    4.3060 o         1 BD4     -0.308000
      6 C13        -1.5740    0.2660    2.0660 c2        1 BD4     -0.070000
      7 C12        -2.8830    0.2660    1.6390 c2        1 BD4     -0.159000
      8 C11        -3.1750    0.2660    0.2640 c2        1 BD4      0.034000
      9 C15        -4.5860    0.3390   -0.2930 c3        1 BD4     -0.201000
     10 C10        -2.1410    0.2660   -0.6670 c1        1 BD4     -0.167000
     11 C8         -0.8030    0.2660   -0.2320 c1        1 BD4      0.061000
     12 C9         -0.5170    0.2660    1.1140 c1        1 BD4     -0.002000
     13 C5          0.8760    0.2660    1.2600 c1        1 BD4     -0.024500
     14 C6          1.7060    0.2660    2.3990 c1        1 BD4     -0.059000
     15 C1          3.0880    0.2660    2.2530 c1        1 BD4     -0.098000
     16 C14         4.0880    0.2590    3.3990 c2        1 BD4     -0.177000
     17 C2          3.6540    0.2660    0.9810 c2        1 BD4     -0.093000
     18 C3          2.8350    0.2660   -0.1460 c1        1 BD4     -0.153000
     19 C4          1.4350    0.2660    0.0020 c1        1 BD4     -0.024500
     20 N7          0.4000    0.2660   -0.9280 DU        1 BD4     -0.179000
     21 C16         0.5870    0.4580   -2.3490 c2        1 BD4     -0.021000
     22 C17         0.7350   -0.9040   -3.0330 c3        1 BD4     -0.197000
     23 C18         0.8310   -0.7080   -4.5460 c3        1 BD4     -0.072000
     24 N19         1.0370   -1.9770   -5.1810 n3        1 BD4     -0.348000
     25 H21        -3.2210    0.2640    4.9000 hn        1 BD4      0.260000
     26 H151       -4.5550    0.2840   -1.2670 hc        1 BD4      0.102000
     27 H152       -5.1140   -0.4030    0.0580 hc        1 BD4      0.102000
     28 H153       -4.9970    1.1840   -0.0290 hc        1 BD4      0.102000
     29 H10        -2.3440    0.2860   -1.6220 ha        1 BD4      0.145000
     30 H6          1.3100    0.2630    3.2910 ha        1 BD4      0.170000
     31 H141        4.5990   -0.5720    3.3800 ha        1 BD4      0.084667
     32 H142        4.6970    1.0170    3.3050 ha        1 BD4      0.084667
     33 H143        3.6110    0.3290    4.2480 ha        1 BD4      0.084667
     34 H2          4.6240    0.2660    0.8780 ha        1 BD4      0.135000
     35 H3          3.2310    0.2660   -1.0380 ha        1 BD4      0.139000
     36 H161        1.3920    0.9880   -2.5030 ha        1 BD4      0.101500
     37 H162       -0.1860    0.9250   -2.7190 ha        1 BD4      0.101500
     38 H171        1.5440   -1.3450   -2.7100 hc        1 BD4      0.101500
     39 H172       -0.0420   -1.4580   -2.8260 hc        1 BD4      0.101500
     40 H181        1.5800   -0.1160   -4.7500 h1        1 BD4      0.063500
     41 H182        0.0030   -0.3100   -4.8760 h1        1 BD4      0.063500
     42 H191        1.8170   -1.9580   -5.6530 hn        1 BD4      0.148500
     43 H192        0.3430   -2.1500   -5.7470 hn        1 BD4      0.148500
@<TRIPOS>BOND
     1    1    2 1   
     2    2    7 1   
     3    3    4 1   
     4    3   25 1   
     5    4    5 1   
     6    4    6 1   
     7    6    7 1   
     8    6   12 1   
     9    7    8 1   
    10    8    9 1   
    11    8   10 1   
    12    9   26 1   
    13    9   27 1   
    14    9   28 1   
    15   10   29 1   
    16   11   12 1   
    17   13   19 1   
    18   14   15 1   
    19   14   30 1   
    20   15   17 1   
    21   16   31 1   
    22   16   32 1   
    23   16   33 1   
    24   17   18 1   
    25   17   34 1   
    26   18   35 1   
    27   21   22 1   
    28   21   36 1   
    29   21   37 1   
    30   22   23 1   
    31   22   38 1   
    32   22   39 1   
    33   23   24 1   
    34   23   40 1   
    35   23   41 1   
    36   24   42 1   
    37   24   43 1   
@<TRIPOS>SUBSTRUCTURE
     1 BD4         1 TEMP              0 ****  ****    0 ROOT
