@<TRIPOS>MOLECULE
BD4
   44    47     1     0     0
SMALL
bcc


@<TRIPOS>ATOM
      1 O23        -0.0650   -0.3590   -0.0850 o         1 BD4     -0.560500
      2 C20         1.1660   -0.3240   -0.1200 c         1 BD4      0.726100
      3 N21         2.0020   -0.5350    1.0040 n         1 BD4     -0.613500
      4 C22         3.3680   -0.4450    0.6590 c         1 BD4      0.727100
      5 O24         4.3030   -0.5930    1.4490 o         1 BD4     -0.570500
      6 C13         3.4180   -0.1570   -0.8150 ca        1 BD4     -0.090600
      7 C12         2.0720   -0.0800   -1.2920 ca        1 BD4     -0.161600
      8 C11         1.7700    0.1880   -2.6160 ca        1 BD4      0.024700
      9 C15         0.3790    0.3050   -3.1070 c3        1 BD4     -0.078800
     10 C10         2.8390    0.3740   -3.5260 ca        1 BD4     -0.156000
     11 C8          4.1490    0.2950   -3.0770 ca        1 BD4     -0.027200
     12 C9          4.4640    0.0260   -1.6770 cp        1 BD4      0.004000
     13 C5          5.9140    0.0400   -1.5650 cp        1 BD4     -0.070000
     14 C6          6.7750   -0.1280   -0.4940 ca        1 BD4     -0.061000
     15 C1          8.1590   -0.0350   -0.7150 ca        1 BD4     -0.078300
     16 C14         9.0940   -0.1930    0.4240 c3        1 BD4     -0.061800
     17 C2          8.6520    0.2310   -1.9980 ca        1 BD4     -0.100000
     18 C3          7.8030    0.4090   -3.0930 ca        1 BD4     -0.151000
     19 C4          6.4300    0.3150   -2.8820 ca        1 BD4     -0.054200
     20 N7          5.3550    0.5430   -3.8000 na        1 BD4     -0.045300
     21 C16         5.4820    0.1450   -5.1700 c3        1 BD4      0.039300
     22 C17         5.5920   -1.3740   -5.4090 c3        1 BD4     -0.163400
     23 C18         5.7710   -1.6270   -6.8960 c3        1 BD4      0.107800
     24 N19         5.9070   -3.0810   -7.2120 n4        1 BD4     -0.839600
     25 H21         1.6690   -0.6950    1.9220 hn        1 BD4      0.358500
     26 H151       -0.3470   -0.1300   -2.3740 hc        1 BD4      0.068367
     27 H152        0.1220    1.3850   -3.2520 hc        1 BD4      0.068367
     28 H153        0.2600   -0.2190   -4.0870 hc        1 BD4      0.068367
     29 H10         2.6060    0.6060   -4.5760 ha        1 BD4      0.140000
     30 H6          6.3780   -0.3250    0.5180 ha        1 BD4      0.182000
     31 H141        9.2540    0.7970    0.9230 hc        1 BD4      0.056033
     32 H142       10.0870   -0.5750    0.0800 hc        1 BD4      0.056033
     33 H143        8.6830   -0.9030    1.1830 hc        1 BD4      0.056033
     34 H2          9.7410    0.3120   -2.1500 ha        1 BD4      0.144000
     35 H3          8.2190    0.6440   -4.0820 ha        1 BD4      0.130000
     36 H161        6.4090    0.6410   -5.5800 h1        1 BD4      0.073700
     37 H162        4.5850    0.5360   -5.7290 h1        1 BD4      0.073700
     38 H171        6.4660   -1.7740   -4.8280 hc        1 BD4      0.081700
     39 H172        4.6630   -1.8770   -5.0290 hc        1 BD4      0.081700
     40 H181        4.8820   -1.2340   -7.4700 hx        1 BD4      0.113200
     41 H182        6.7020   -1.1090   -7.2710 hx        1 BD4      0.113200
     42 H191        6.0270   -3.2140   -8.2210 hn        1 BD4      0.463133
     43 H192        6.7190   -3.4730   -6.7230 hn        1 BD4      0.463133
     44 H193        5.0690   -3.5870   -6.9050 hn        1 BD4      0.463133
@<TRIPOS>BOND
     1    1    2 2   
     2    2    3 1   
     3    2    7 1   
     4    3    4 1   
     5    3   25 1   
     6    4    5 2   
     7    4    6 1   
     8    6    7 ar  
     9    6   12 ar  
    10    7    8 ar  
    11    8    9 1   
    12    8   10 ar  
    13    9   26 1   
    14    9   27 1   
    15    9   28 1   
    16   10   11 ar  
    17   10   29 1   
    18   11   12 ar  
    19   11   20 1   
    20   12   13 1   
    21   13   14 ar  
    22   13   19 ar  
    23   14   15 ar  
    24   14   30 1   
    25   15   16 1   
    26   15   17 ar  
    27   16   31 1   
    28   16   32 1   
    29   16   33 1   
    30   17   18 ar  
    31   17   34 1   
    32   18   19 ar  
    33   18   35 1   
    34   19   20 1   
    35   20   21 1   
    36   21   22 1   
    37   21   36 1   
    38   21   37 1   
    39   22   23 1   
    40   22   38 1   
    41   22   39 1   
    42   23   24 1   
    43   23   40 1   
    44   23   41 1   
    45   24   42 1   
    46   24   43 1   
    47   24   44 1   
@<TRIPOS>SUBSTRUCTURE
     1 BD4         1 TEMP              0 ****  ****    0 ROOT
