@<TRIPOS>MOLECULE
BD4
   44    47     1     0     0
SMALL
bcc


@<TRIPOS>ATOM
      1 O23        -0.0660   -0.3310   -0.0890 o         1 BD4     -0.560500
      2 C20         1.1650   -0.2980   -0.1240 c         1 BD4      0.726100
      3 N21         2.0000   -0.5040    1.0020 n         1 BD4     -0.613500
      4 C22         3.3660   -0.4180    0.6570 c         1 BD4      0.727100
      5 O24         4.3010   -0.5640    1.4480 o         1 BD4     -0.570500
      6 C13         3.4180   -0.1390   -0.8180 ca        1 BD4     -0.090600
      7 C12         2.0730   -0.0620   -1.2970 ca        1 BD4     -0.161600
      8 C11         1.7720    0.2000   -2.6220 ca        1 BD4      0.024700
      9 C15         0.3810    0.3170   -3.1140 c3        1 BD4     -0.078800
     10 C10         2.8420    0.3790   -3.5320 ca        1 BD4     -0.156000
     11 C8          4.1510    0.3000   -3.0820 ca        1 BD4     -0.027200
     12 C9          4.4650    0.0380   -1.6810 cp        1 BD4      0.004000
     13 C5          5.9150    0.0510   -1.5670 cp        1 BD4     -0.070000
     14 C6          6.7750   -0.1130   -0.4950 ca        1 BD4     -0.061000
     15 C1          8.1590   -0.0230   -0.7150 ca        1 BD4     -0.078300
     16 C14         9.0930   -0.1770    0.4250 c3        1 BD4     -0.061800
     17 C2          8.6530    0.2340   -1.9990 ca        1 BD4     -0.100000
     18 C3          7.8060    0.4080   -3.0960 ca        1 BD4     -0.151000
     19 C4          6.4320    0.3170   -2.8850 ca        1 BD4     -0.054200
     20 N7          5.3590    0.5420   -3.8050 na        1 BD4     -0.045300
     21 C16         5.4860    0.1360   -5.1730 c3        1 BD4      0.039300
     22 C17         5.5920   -1.3840   -5.4040 c3        1 BD4     -0.163400
     23 C18         5.7720   -1.6450   -6.8890 c3        1 BD4      0.107800
     24 N19         5.9050   -3.1020   -7.1970 n4        1 BD4     -0.839600
     25 H21         1.6660   -0.6590    1.9210 hn        1 BD4      0.358500
     26 H151        0.2620   -0.2110   -4.0920 hc        1 BD4      0.068367
     27 H152        0.1260    1.3970   -3.2640 hc        1 BD4      0.068367
     28 H153       -0.3460   -0.1140   -2.3800 hc        1 BD4      0.068367
     29 H10         2.6100    0.6060   -4.5830 ha        1 BD4      0.140000
     30 H6          6.3760   -0.3040    0.5180 ha        1 BD4      0.182000
     31 H141       10.0840   -0.5660    0.0850 hc        1 BD4      0.056033
     32 H142        8.6780   -0.8790    1.1900 hc        1 BD4      0.056033
     33 H143        9.2570    0.8160    0.9170 hc        1 BD4      0.056033
     34 H2          9.7420    0.3130   -2.1510 ha        1 BD4      0.144000
     35 H3          8.2220    0.6370   -4.0860 ha        1 BD4      0.130000
     36 H161        6.4130    0.6290   -5.5850 h1        1 BD4      0.073700
     37 H162        4.5890    0.5260   -5.7350 h1        1 BD4      0.073700
     38 H171        6.4650   -1.7830   -4.8200 hc        1 BD4      0.081700
     39 H172        4.6620   -1.8830   -5.0220 hc        1 BD4      0.081700
     40 H181        4.8850   -1.2540   -7.4660 hx        1 BD4      0.113200
     41 H182        6.7050   -1.1310   -7.2660 hx        1 BD4      0.113200
     42 H191        6.7160   -3.4920   -6.7050 hn        1 BD4      0.463133
     43 H192        6.0260   -3.2400   -8.2050 hn        1 BD4      0.463133
     44 H193        5.0660   -3.6040   -6.8880 hn        1 BD4      0.463133
@<TRIPOS>BOND
     1    1    2 2   
     2    2    3 1   
     3    2    7 1   
     4    3    4 1   
     5    3   25 1   
     6    4    5 2   
     7    4    6 1   
     8    6    7 ar  
     9    6   12 ar  
    10    7    8 ar  
    11    8    9 1   
    12    8   10 ar  
    13    9   26 1   
    14    9   27 1   
    15    9   28 1   
    16   10   11 ar  
    17   10   29 1   
    18   11   12 ar  
    19   11   20 1   
    20   12   13 1   
    21   13   14 ar  
    22   13   19 ar  
    23   14   15 ar  
    24   14   30 1   
    25   15   16 1   
    26   15   17 ar  
    27   16   31 1   
    28   16   32 1   
    29   16   33 1   
    30   17   18 ar  
    31   17   34 1   
    32   18   19 ar  
    33   18   35 1   
    34   19   20 1   
    35   20   21 1   
    36   21   22 1   
    37   21   36 1   
    38   21   37 1   
    39   22   23 1   
    40   22   38 1   
    41   22   39 1   
    42   23   24 1   
    43   23   40 1   
    44   23   41 1   
    45   24   42 1   
    46   24   43 1   
    47   24   44 1   
@<TRIPOS>SUBSTRUCTURE
     1 BD4         1 TEMP              0 ****  ****    0 ROOT
