@<TRIPOS>MOLECULE
BD5
   83    86     1     0     0
SMALL
bcc


@<TRIPOS>ATOM
      1 C43        -1.2970   -1.1870    1.0500 ca        1 BD5     -0.085500
      2 C42        -0.7980    0.1040    0.9490 ca        1 BD5     -0.179000
      3 C41         0.5050    0.3740    1.4140 ca        1 BD5      0.164100
      4 O44         0.9410    1.6620    1.2720 oh        1 BD5     -0.474100
      5 C40         1.2890   -0.6460    1.9760 ca        1 BD5     -0.179000
      6 C39         0.7690   -1.9340    2.0670 ca        1 BD5     -0.085500
      7 C38        -0.5190   -2.2170    1.6010 ca        1 BD5     -0.179300
      8 C37        -1.0820   -3.5850    1.7260 c3        1 BD5     -0.031100
      9 C35        -0.6300   -4.5130    0.5810 c3        1 BD5      0.019700
     10 C36        -1.4920   -5.7860    0.5830 c         1 BD5      0.649100
     11 O45        -2.0830   -6.2530   -0.4080 o         1 BD5     -0.629000
     12 O46        -1.6310   -6.5370    1.6920 oh        1 BD5     -0.533100
     13 N33        -0.6980   -3.8830   -0.7220 ns        1 BD5     -0.524900
     14 C32        -0.4220   -4.6300   -1.8310 c         1 BD5      0.659100
     15 O34         0.3310   -5.6280   -1.8210 o         1 BD5     -0.615100
     16 C24        -1.1680   -4.3510   -3.1590 c3        1 BD5      0.062500
     17 C25        -1.9160   -3.0180   -3.2320 c3        1 BD5     -0.054100
     18 C26        -2.6150   -2.8730   -4.5370 ca        1 BD5     -0.174300
     19 C31        -3.9850   -3.1590   -4.6340 ca        1 BD5     -0.134000
     20 C30        -4.6510   -2.9850   -5.8450 ca        1 BD5     -0.107000
     21 C29        -3.9570   -2.5230   -6.9660 ca        1 BD5     -0.087000
     22 C28        -2.5960   -2.2320   -6.8720 ca        1 BD5     -0.107000
     23 C27        -1.9250   -2.4050   -5.6610 ca        1 BD5     -0.134000
     24 N22        -2.1250   -5.5180   -3.3480 ny        1 BD5     -0.666800
     25 C21        -1.4220   -6.7500   -3.8180 c         1 BD5      0.538100
     26 O23        -1.0020   -6.7660   -4.9670 o         1 BD5     -0.405100
     27 C12        -1.3190   -7.9010   -2.8160 c3        1 BD5      0.054500
     28 C13        -2.7280   -8.5080   -2.6030 c3        1 BD5     -0.029100
     29 C14        -2.6610   -9.7520   -1.8000 ca        1 BD5     -0.244300
     30 C19        -2.5540   -9.6770   -0.4040 ca        1 BD5     -0.076000
     31 C18        -2.5510  -10.8340    0.3650 ca        1 BD5     -0.181000
     32 C17        -2.6680  -12.0840   -0.2680 ca        1 BD5      0.186100
     33 O20        -2.6680  -13.2680    0.4060 oh        1 BD5     -0.462100
     34 C16        -2.7860  -12.1700   -1.6730 ca        1 BD5     -0.181000
     35 C15        -2.7880  -11.0050   -2.4230 ca        1 BD5     -0.076000
     36 N10        -0.3280   -8.9270   -3.2750 ny        1 BD5     -0.651800
     37 C9          1.0560   -8.7070   -2.7000 c         1 BD5      0.633100
     38 O11         1.2340   -8.5850   -1.5000 o         1 BD5     -0.409000
     39 O8          1.9510   -8.6580   -3.6920 os        1 BD5     -0.405900
     40 C7          3.3800   -8.7480   -3.3170 c3        1 BD5      0.220700
     41 C3          3.7690  -10.1550   -3.0890 ca        1 BD5     -0.198300
     42 C2          4.1000  -10.9760   -4.1760 ca        1 BD5     -0.092500
     43 C1          4.5260  -12.2850   -3.9560 ca        1 BD5     -0.128500
     44 C6          4.6260  -12.7790   -2.6540 ca        1 BD5     -0.075000
     45 C5          4.2950  -11.9640   -1.5690 ca        1 BD5     -0.128500
     46 C4          3.8670  -10.6560   -1.7840 ca        1 BD5     -0.092500
     47 H43        -2.3280   -1.3910    0.7240 ha        1 BD5      0.132000
     48 H42        -1.4030    0.9240    0.5340 ha        1 BD5      0.163500
     49 HO44        1.8080    1.7480    1.7010 ho        1 BD5      0.440000
     50 H40         2.2990   -0.4260    2.3540 ha        1 BD5      0.163500
     51 H39         1.3790   -2.7310    2.5220 ha        1 BD5      0.132000
     52 H37        -0.7380   -4.0490    2.6900 hc        1 BD5      0.074200
     53 H37A       -2.2040   -3.5400    1.7500 hc        1 BD5      0.074200
     54 H35         0.4400   -4.8450    0.7640 h1        1 BD5      0.119700
     55 HN33       -1.1780   -6.1280    2.4500 ho        1 BD5      0.464000
     56 H24        -0.4140   -4.3920   -4.0060 hx        1 BD5      0.145700
     57 H25        -1.1470   -2.2030   -3.1130 hc        1 BD5      0.096200
     58 H25A       -2.6550   -2.9200   -2.3920 hc        1 BD5      0.096200
     59 H31        -4.5520   -3.4680   -3.7430 ha        1 BD5      0.135500
     60 H30        -5.7310   -3.1930   -5.9140 ha        1 BD5      0.163500
     61 H29        -4.4890   -2.3740   -7.9210 ha        1 BD5      0.168000
     62 H28        -2.0500   -1.8510   -7.7510 ha        1 BD5      0.163500
     63 H27        -0.8560   -2.1510   -5.5880 ha        1 BD5      0.135500
     64 HN22       -2.8220   -5.2250   -4.0610 hn        1 BD5      0.493300
     65 H12        -0.9460   -7.4990   -1.8080 hx        1 BD5      0.198700
     66 H13        -3.3320   -7.7400   -2.0420 hc        1 BD5      0.089200
     67 H13A       -3.2160   -8.7010   -3.5950 hc        1 BD5      0.089200
     68 H19        -2.4780   -8.6900    0.0890 ha        1 BD5      0.147500
     69 H18        -2.4750  -10.7730    1.4620 ha        1 BD5      0.172500
     70 HO20       -2.6540  -13.0920    1.3620 ho        1 BD5      0.446000
     71 H16        -2.8950  -13.1600   -2.1440 ha        1 BD5      0.172500
     72 H15        -2.9290  -11.0690   -3.5140 ha        1 BD5      0.147500
     73 HN10       -0.6570   -9.8550   -2.9370 hn        1 BD5      0.491800
     74 H7          3.5470   -8.0950   -2.4220 h1        1 BD5      0.103700
     75 H7A         3.8430   -8.3100   -4.2460 h1        1 BD5      0.103700
     76 H2          4.0380  -10.5840   -5.2020 ha        1 BD5      0.141000
     77 H1          4.7960  -12.9250   -4.8110 ha        1 BD5      0.158000
     78 H6          4.9740  -13.8110   -2.4820 ha        1 BD5      0.161000
     79 H5          4.3850  -12.3520   -0.5420 ha        1 BD5      0.158000
     80 H4          3.6180  -10.0100   -0.9270 ha        1 BD5      0.141000
     81 H332       -1.1000   -2.9710   -0.7790 hn        1 BD5      0.361500
     82 H222       -2.6040   -5.7070   -2.4500 hn        1 BD5      0.493300
     83 H102       -0.2650   -8.9480   -4.3040 hn        1 BD5      0.491800
@<TRIPOS>BOND
     1    1    2 ar  
     2    1    7 ar  
     3    1   47 1   
     4    2    3 ar  
     5    2   48 1   
     6    3    4 1   
     7    3    5 ar  
     8    4   49 1   
     9    5    6 ar  
    10    5   50 1   
    11    6    7 ar  
    12    6   51 1   
    13    7    8 1   
    14    8    9 1   
    15    8   52 1   
    16    8   53 1   
    17    9   10 1   
    18    9   13 1   
    19    9   54 1   
    20   10   11 2   
    21   10   12 1   
    22   12   55 1   
    23   13   14 1   
    24   13   81 1   
    25   14   15 2   
    26   14   16 1   
    27   16   17 1   
    28   16   24 1   
    29   16   56 1   
    30   17   18 1   
    31   17   57 1   
    32   17   58 1   
    33   18   19 ar  
    34   18   23 ar  
    35   19   20 ar  
    36   19   59 1   
    37   20   21 ar  
    38   20   60 1   
    39   21   22 ar  
    40   21   61 1   
    41   22   23 ar  
    42   22   62 1   
    43   23   63 1   
    44   24   25 1   
    45   24   64 1   
    46   24   82 1   
    47   25   26 2   
    48   25   27 1   
    49   27   28 1   
    50   27   36 1   
    51   27   65 1   
    52   28   29 1   
    53   28   66 1   
    54   28   67 1   
    55   29   30 ar  
    56   29   35 ar  
    57   30   31 ar  
    58   30   68 1   
    59   31   32 ar  
    60   31   69 1   
    61   32   33 1   
    62   32   34 ar  
    63   33   70 1   
    64   34   35 ar  
    65   34   71 1   
    66   35   72 1   
    67   36   37 1   
    68   36   73 1   
    69   36   83 1   
    70   37   38 2   
    71   37   39 1   
    72   39   40 1   
    73   40   41 1   
    74   40   74 1   
    75   40   75 1   
    76   41   42 ar  
    77   41   46 ar  
    78   42   43 ar  
    79   42   76 1   
    80   43   44 ar  
    81   43   77 1   
    82   44   45 ar  
    83   44   78 1   
    84   45   46 ar  
    85   45   79 1   
    86   46   80 1   
@<TRIPOS>SUBSTRUCTURE
     1 BD5         1 TEMP              0 ****  ****    0 ROOT
