@<TRIPOS>MOLECULE
BD5
   83    86     1     0     0
SMALL
bcc


@<TRIPOS>ATOM
      1 C43        -1.3110   -1.1770    1.0340 ca        1 BD5     -0.085500
      2 C42        -0.8120    0.1140    0.9350 ca        1 BD5     -0.179000
      3 C41         0.4860    0.3860    1.4100 ca        1 BD5      0.164100
      4 O44         0.9230    1.6740    1.2700 oh        1 BD5     -0.474100
      5 C40         1.2650   -0.6320    1.9820 ca        1 BD5     -0.179000
      6 C39         0.7460   -1.9200    2.0720 ca        1 BD5     -0.085500
      7 C38        -0.5380   -2.2050    1.5950 ca        1 BD5     -0.179300
      8 C37        -1.1020   -3.5720    1.7180 c3        1 BD5     -0.031100
      9 C35        -0.6390   -4.5040    0.5790 c3        1 BD5      0.019700
     10 C36        -1.5020   -5.7760    0.5760 c         1 BD5      0.649100
     11 O45        -2.0840   -6.2460   -0.4200 o         1 BD5     -0.629000
     12 O46        -1.6510   -6.5250    1.6860 oh        1 BD5     -0.533100
     13 N33        -0.6960   -3.8760   -0.7250 n         1 BD5     -0.524900
     14 C32        -0.4090   -4.6250   -1.8310 c         1 BD5      0.659100
     15 O34         0.3430   -5.6240   -1.8120 o         1 BD5     -0.615100
     16 C24        -1.1430   -4.3500   -3.1660 c3        1 BD5      0.062500
     17 C25        -1.8890   -3.0170   -3.2490 c3        1 BD5     -0.054100
     18 C26        -2.5770   -2.8740   -4.5610 ca        1 BD5     -0.174300
     19 C31        -3.9460   -3.1600   -4.6700 ca        1 BD5     -0.134000
     20 C30        -4.6010   -2.9890   -5.8870 ca        1 BD5     -0.107000
     21 C29        -3.8960   -2.5300   -7.0030 ca        1 BD5     -0.087000
     22 C28        -2.5360   -2.2390   -6.8970 ca        1 BD5     -0.107000
     23 C27        -1.8760   -2.4090   -5.6790 ca        1 BD5     -0.134000
     24 N22        -2.0990   -5.5160   -3.3610 n4        1 BD5     -0.666800
     25 C21        -1.3920   -6.7500   -3.8220 c         1 BD5      0.537100
     26 O23        -0.9620   -6.7690   -4.9670 o         1 BD5     -0.405100
     27 C12        -1.2990   -7.8990   -2.8160 c3        1 BD5      0.054500
     28 C13        -2.7100   -8.5050   -2.6150 c3        1 BD5     -0.029100
     29 C14        -2.6500   -9.7470   -1.8080 ca        1 BD5     -0.244300
     30 C19        -2.5560   -9.6690   -0.4120 ca        1 BD5     -0.076000
     31 C18        -2.5610  -10.8250    0.3590 ca        1 BD5     -0.181000
     32 C17        -2.6730  -12.0760   -0.2720 ca        1 BD5      0.186100
     33 O20        -2.6800  -13.2590    0.4050 oh        1 BD5     -0.462100
     34 C16        -2.7780  -12.1650   -1.6780 ca        1 BD5     -0.181000
     35 C15        -2.7720  -11.0010   -2.4300 ca        1 BD5     -0.076000
     36 N10        -0.3040   -8.9270   -3.2640 n4        1 BD5     -0.651800
     37 C9          1.0760   -8.7050   -2.6780 c         1 BD5      0.633100
     38 O11         1.2430   -8.5810   -1.4760 o         1 BD5     -0.409000
     39 O8          1.9780   -8.6570   -3.6630 os        1 BD5     -0.405900
     40 C7          3.4040   -8.7450   -3.2760 c3        1 BD5      0.220700
     41 C3          3.7920  -10.1530   -3.0430 ca        1 BD5     -0.198300
     42 C2          4.1320  -10.9750   -4.1250 ca        1 BD5     -0.092500
     43 C1          4.5580  -12.2830   -3.9000 ca        1 BD5     -0.128500
     44 C6          4.6470  -12.7750   -2.5970 ca        1 BD5     -0.075000
     45 C5          4.3080  -11.9590   -1.5160 ca        1 BD5     -0.128500
     46 C4          3.8810  -10.6520   -1.7350 ca        1 BD5     -0.092500
     47 H43        -2.3400   -1.3820    0.6990 ha        1 BD5      0.132000
     48 H42        -1.4140    0.9330    0.5120 ha        1 BD5      0.163500
     49 HO44        1.7860    1.7610    1.7060 ho        1 BD5      0.440000
     50 H40         2.2720   -0.4110    2.3680 ha        1 BD5      0.163500
     51 H39         1.3510   -2.7150    2.5340 ha        1 BD5      0.132000
     52 H37        -2.2240   -3.5280    1.7320 hc        1 BD5      0.074200
     53 H37A       -0.7660   -4.0340    2.6860 hc        1 BD5      0.074200
     54 H35         0.4290   -4.8350    0.7730 h1        1 BD5      0.119700
     55 HN33       -1.0970   -2.9650   -0.7880 hn        1 BD5      0.361500
     56 H24        -0.3810   -4.3930   -4.0050 hx        1 BD5      0.145700
     57 H25        -1.1210   -2.2020   -3.1250 hc        1 BD5      0.096200
     58 H25A       -2.6360   -2.9160   -2.4160 hc        1 BD5      0.096200
     59 H31        -4.5210   -3.4660   -3.7830 ha        1 BD5      0.135500
     60 H30        -5.6800   -3.1960   -5.9660 ha        1 BD5      0.163500
     61 H29        -4.4190   -2.3830   -7.9630 ha        1 BD5      0.168000
     62 H28        -1.9820   -1.8610   -7.7720 ha        1 BD5      0.163500
     63 H27        -0.8070   -2.1560   -5.5970 ha        1 BD5      0.135500
     64 HN22       -2.5860   -5.7030   -2.4660 hn        1 BD5      0.493300
     65 H12        -0.9340   -7.4950   -1.8060 hx        1 BD5      0.198700
     66 H13        -3.3180   -7.7350   -2.0610 hc        1 BD5      0.089200
     67 H13A       -3.1890   -8.7000   -3.6110 hc        1 BD5      0.089200
     68 H19        -2.4840   -8.6810    0.0800 ha        1 BD5      0.147500
     69 H18        -2.4950  -10.7610    1.4560 ha        1 BD5      0.172500
     70 HO20       -2.6740  -13.0800    1.3600 ho        1 BD5      0.446000
     71 H16        -2.8840  -13.1550   -2.1480 ha        1 BD5      0.172500
     72 H15        -2.9040  -11.0680   -3.5220 ha        1 BD5      0.147500
     73 HN10       -0.2320   -8.9500   -4.2920 hn        1 BD5      0.491800
     74 H7          3.5630   -8.0910   -2.3800 h1        1 BD5      0.103700
     75 H7A         3.8750   -8.3090   -4.2010 h1        1 BD5      0.103700
     76 H2          4.0780  -10.5840   -5.1530 ha        1 BD5      0.141000
     77 H1          4.8350  -12.9250   -4.7520 ha        1 BD5      0.158000
     78 H6          4.9950  -13.8060   -2.4200 ha        1 BD5      0.161000
     79 H5          4.3890  -12.3450   -0.4870 ha        1 BD5      0.158000
     80 H4          3.6240  -10.0040   -0.8820 ha        1 BD5      0.141000
     81 H332       -1.2050   -6.1140    2.4470 ho        1 BD5      0.464000
     82 H222       -2.7890   -5.2250   -4.0810 hn        1 BD5      0.493300
     83 H102       -0.6360   -9.8530   -2.9260 hn        1 BD5      0.491800
@<TRIPOS>BOND
     1    1    2 ar  
     2    1    7 ar  
     3    1   47 1   
     4    2    3 ar  
     5    2   48 1   
     6    3    4 1   
     7    3    5 ar  
     8    4   49 1   
     9    5    6 ar  
    10    5   50 1   
    11    6    7 ar  
    12    6   51 1   
    13    7    8 1   
    14    8    9 1   
    15    8   52 1   
    16    8   53 1   
    17    9   10 1   
    18    9   13 1   
    19    9   54 1   
    20   10   11 2   
    21   10   12 1   
    22   12   81 1   
    23   13   14 1   
    24   13   55 1   
    25   14   15 2   
    26   14   16 1   
    27   16   17 1   
    28   16   24 1   
    29   16   56 1   
    30   17   18 1   
    31   17   57 1   
    32   17   58 1   
    33   18   19 ar  
    34   18   23 ar  
    35   19   20 ar  
    36   19   59 1   
    37   20   21 ar  
    38   20   60 1   
    39   21   22 ar  
    40   21   61 1   
    41   22   23 ar  
    42   22   62 1   
    43   23   63 1   
    44   24   25 1   
    45   24   64 1   
    46   24   82 1   
    47   25   26 2   
    48   25   27 1   
    49   27   28 1   
    50   27   36 1   
    51   27   65 1   
    52   28   29 1   
    53   28   66 1   
    54   28   67 1   
    55   29   30 ar  
    56   29   35 ar  
    57   30   31 ar  
    58   30   68 1   
    59   31   32 ar  
    60   31   69 1   
    61   32   33 1   
    62   32   34 ar  
    63   33   70 1   
    64   34   35 ar  
    65   34   71 1   
    66   35   72 1   
    67   36   37 1   
    68   36   73 1   
    69   36   83 1   
    70   37   38 2   
    71   37   39 1   
    72   39   40 1   
    73   40   41 1   
    74   40   74 1   
    75   40   75 1   
    76   41   42 ar  
    77   41   46 ar  
    78   42   43 ar  
    79   42   76 1   
    80   43   44 ar  
    81   43   77 1   
    82   44   45 ar  
    83   44   78 1   
    84   45   46 ar  
    85   45   79 1   
    86   46   80 1   
@<TRIPOS>SUBSTRUCTURE
     1 BD5         1 TEMP              0 ****  ****    0 ROOT
