@<TRIPOS>MOLECULE
BD5
   83    86     1     0     0
SMALL
bcc


@<TRIPOS>ATOM
      1 C43        -1.2610   -1.1560    1.0040 ca        1 BD5     -0.085500
      2 C42        -0.7420    0.1260    0.9000 ca        1 BD5     -0.179000
      3 C41         0.5590    0.3800    1.3810 ca        1 BD5      0.164100
      4 O44         1.0160    1.6600    1.2370 oh        1 BD5     -0.474100
      5 C40         1.3190   -0.6480    1.9620 ca        1 BD5     -0.179000
      6 C39         0.7790   -1.9260    2.0550 ca        1 BD5     -0.085500
      7 C38        -0.5070   -2.1940    1.5730 ca        1 BD5     -0.179300
      8 C37        -1.0920   -3.5520    1.6990 c3        1 BD5     -0.031100
      9 C35        -0.6380   -4.4960    0.5670 c3        1 BD5      0.019700
     10 C36        -1.5200   -5.7550    0.5660 c         1 BD5      0.649100
     11 O45        -2.1040   -6.2200   -0.4300 o         1 BD5     -0.629000
     12 O46        -1.6860   -6.4960    1.6790 oh        1 BD5     -0.533100
     13 N33        -0.6780   -3.8730   -0.7400 n         1 BD5     -0.524900
     14 C32        -0.3970   -4.6330   -1.8400 c         1 BD5      0.659100
     15 O34         0.3400   -5.6420   -1.8120 o         1 BD5     -0.615100
     16 C24        -1.1190   -4.3520   -3.1800 c3        1 BD5      0.062500
     17 C25        -1.8450   -3.0080   -3.2750 c3        1 BD5     -0.054100
     18 C26        -2.5230   -2.8620   -4.5910 ca        1 BD5     -0.174300
     19 C31        -3.8950   -3.1280   -4.7060 ca        1 BD5     -0.134000
     20 C30        -4.5410   -2.9520   -5.9280 ca        1 BD5     -0.107000
     21 C29        -3.8240   -2.5090   -7.0410 ca        1 BD5     -0.087000
     22 C28        -2.4600   -2.2390   -6.9290 ca        1 BD5     -0.107000
     23 C27        -1.8090   -2.4130   -5.7070 ca        1 BD5     -0.134000
     24 N22        -2.0910   -5.5050   -3.3750 n4        1 BD5     -0.666800
     25 C21        -1.4010   -6.7520   -3.8260 c         1 BD5      0.538100
     26 O23        -0.9650   -6.7830   -4.9690 o         1 BD5     -0.405100
     27 C12        -1.3310   -7.8970   -2.8150 c3        1 BD5      0.054500
     28 C13        -2.7520   -8.4800   -2.6190 c3        1 BD5     -0.029100
     29 C14        -2.7160   -9.7190   -1.8050 ca        1 BD5     -0.244300
     30 C19        -2.6270   -9.6360   -0.4090 ca        1 BD5     -0.076000
     31 C18        -2.6540  -10.7870    0.3680 ca        1 BD5     -0.181000
     32 C17        -2.7810  -12.0400   -0.2570 ca        1 BD5      0.186100
     33 O20        -2.8100  -13.2190    0.4250 oh        1 BD5     -0.462100
     34 C16        -2.8800  -12.1340   -1.6630 ca        1 BD5     -0.181000
     35 C15        -2.8530  -10.9750   -2.4210 ca        1 BD5     -0.076000
     36 N10        -0.3490   -8.9420   -3.2520 n4        1 BD5     -0.651800
     37 C9          1.0300   -8.7380   -2.6590 c         1 BD5      0.633100
     38 O11         1.1920   -8.6100   -1.4570 o         1 BD5     -0.409000
     39 O8          1.9390   -8.7100   -3.6380 os        1 BD5     -0.405900
     40 C7          3.3610   -8.8190   -3.2410 c3        1 BD5      0.220700
     41 C3          3.7250  -10.2310   -2.9980 ca        1 BD5     -0.198300
     42 C2          4.0590  -11.0650   -4.0730 ca        1 BD5     -0.092500
     43 C1          4.4620  -12.3780   -3.8380 ca        1 BD5     -0.128500
     44 C6          4.5350  -12.8640   -2.5310 ca        1 BD5     -0.075000
     45 C5          4.2020  -12.0360   -1.4570 ca        1 BD5     -0.128500
     46 C4          3.7970  -10.7240   -1.6870 ca        1 BD5     -0.092500
     47 H43        -2.2910   -1.3480    0.6640 ha        1 BD5      0.132000
     48 H42        -1.3280    0.9520    0.4700 ha        1 BD5      0.163500
     49 HO44        1.8780    1.7360    1.6770 ho        1 BD5      0.440000
     50 H40         2.3270   -0.4400    2.3520 ha        1 BD5      0.163500
     51 H39         1.3700   -2.7290    2.5240 ha        1 BD5      0.132000
     52 H37        -0.7680   -4.0140    2.6720 hc        1 BD5      0.074200
     53 H37A       -2.2130   -3.4900    1.7070 hc        1 BD5      0.074200
     54 H35         0.4240   -4.8430    0.7680 h1        1 BD5      0.119700
     55 HN33       -1.0650   -2.9570   -0.8090 hn        1 BD5      0.361500
     56 H24        -0.3540   -4.4110   -4.0160 hx        1 BD5      0.145700
     57 H25        -2.5950   -2.8930   -2.4460 hc        1 BD5      0.096200
     58 H25A       -1.0650   -2.2050   -3.1500 hc        1 BD5      0.096200
     59 H31        -4.4810   -3.4210   -3.8210 ha        1 BD5      0.135500
     60 H30        -5.6230   -3.1440   -6.0110 ha        1 BD5      0.163500
     61 H29        -4.3400   -2.3590   -8.0050 ha        1 BD5      0.168000
     62 H28        -1.8960   -1.8730   -7.8030 ha        1 BD5      0.163500
     63 H27        -0.7380   -2.1750   -5.6200 ha        1 BD5      0.135500
     64 HN22       -2.5860   -5.6800   -2.4830 hn        1 BD5      0.493300
     65 H12        -0.9660   -7.4940   -1.8040 hx        1 BD5      0.198700
     66 H13        -3.2280   -8.6740   -3.6160 hc        1 BD5      0.089200
     67 H13A       -3.3520   -7.6990   -2.0720 hc        1 BD5      0.089200
     68 H19        -2.5440   -8.6470    0.0780 ha        1 BD5      0.147500
     69 H18        -2.5940  -10.7190    1.4650 ha        1 BD5      0.172500
     70 HO20       -2.8070  -13.0360    1.3800 ho        1 BD5      0.446000
     71 H16        -2.9980  -13.1260   -2.1290 ha        1 BD5      0.172500
     72 H15        -2.9800  -11.0450   -3.5140 ha        1 BD5      0.147500
     73 HN10       -0.6970   -9.8620   -2.9120 hn        1 BD5      0.491800
     74 H7          3.8450   -8.3950   -4.1670 h1        1 BD5      0.103700
     75 H7A         3.5250   -8.1630   -2.3490 h1        1 BD5      0.103700
     76 H2          4.0180  -10.6790   -5.1040 ha        1 BD5      0.141000
     77 H1          4.7340  -13.0300   -4.6840 ha        1 BD5      0.158000
     78 H6          4.8650  -13.9000   -2.3470 ha        1 BD5      0.161000
     79 H5          4.2710  -12.4180   -0.4260 ha        1 BD5      0.158000
     80 H4          3.5450  -10.0670   -0.8390 ha        1 BD5      0.141000
     81 H332       -1.2380   -6.0880    2.4400 ho        1 BD5      0.464000
     82 H222       -2.7740   -5.2070   -4.1000 hn        1 BD5      0.493300
     83 H102       -0.2710   -8.9710   -4.2800 hn        1 BD5      0.491800
@<TRIPOS>BOND
     1    1    2 ar  
     2    1    7 ar  
     3    1   47 1   
     4    2    3 ar  
     5    2   48 1   
     6    3    4 1   
     7    3    5 ar  
     8    4   49 1   
     9    5    6 ar  
    10    5   50 1   
    11    6    7 ar  
    12    6   51 1   
    13    7    8 1   
    14    8    9 1   
    15    8   52 1   
    16    8   53 1   
    17    9   10 1   
    18    9   13 1   
    19    9   54 1   
    20   10   11 2   
    21   10   12 1   
    22   12   81 1   
    23   13   14 1   
    24   13   55 1   
    25   14   15 2   
    26   14   16 1   
    27   16   17 1   
    28   16   24 1   
    29   16   56 1   
    30   17   18 1   
    31   17   57 1   
    32   17   58 1   
    33   18   19 ar  
    34   18   23 ar  
    35   19   20 ar  
    36   19   59 1   
    37   20   21 ar  
    38   20   60 1   
    39   21   22 ar  
    40   21   61 1   
    41   22   23 ar  
    42   22   62 1   
    43   23   63 1   
    44   24   25 1   
    45   24   64 1   
    46   24   82 1   
    47   25   26 2   
    48   25   27 1   
    49   27   28 1   
    50   27   36 1   
    51   27   65 1   
    52   28   29 1   
    53   28   66 1   
    54   28   67 1   
    55   29   30 ar  
    56   29   35 ar  
    57   30   31 ar  
    58   30   68 1   
    59   31   32 ar  
    60   31   69 1   
    61   32   33 1   
    62   32   34 ar  
    63   33   70 1   
    64   34   35 ar  
    65   34   71 1   
    66   35   72 1   
    67   36   37 1   
    68   36   73 1   
    69   36   83 1   
    70   37   38 2   
    71   37   39 1   
    72   39   40 1   
    73   40   41 1   
    74   40   74 1   
    75   40   75 1   
    76   41   42 ar  
    77   41   46 ar  
    78   42   43 ar  
    79   42   76 1   
    80   43   44 ar  
    81   43   77 1   
    82   44   45 ar  
    83   44   78 1   
    84   45   46 ar  
    85   45   79 1   
    86   46   80 1   
@<TRIPOS>SUBSTRUCTURE
     1 BD5         1 TEMP              0 ****  ****    0 ROOT
