@<TRIPOS>MOLECULE
BD5
   80    83     1     0     0
SMALL
bcc


@<TRIPOS>ATOM
      1 C43        -5.7290   -2.6820    0.0560 ca        1 BD5     -0.094500
      2 C42        -5.4930   -3.8430   -0.6770 ca        1 BD5     -0.185500
      3 C41        -5.5540   -3.7940   -2.0750 ca        1 BD5      0.095100
      4 O44        -5.3460   -4.9080   -2.8660 oh        1 BD5     -0.513100
      5 C40        -5.8450   -2.5930   -2.7400 ca        1 BD5     -0.185500
      6 C39        -6.0770   -1.4460   -1.9900 ca        1 BD5     -0.094500
      7 C38        -6.0260   -1.4760   -0.5880 ca        1 BD5     -0.074300
      8 C37        -6.3020   -0.2430    0.1950 c3        1 BD5     -0.034100
      9 C35        -5.1920    0.8110    0.0840 c3        1 BD5     -0.064300
     10 C36        -5.7670    2.1700    0.6320 c         1 BD5      0.906600
     11 O45        -6.8220    2.5910    0.0920 o         1 BD5     -0.832300
     12 O46        -5.1400    2.7570    1.5600 o         1 BD5     -0.832300
     13 N33        -3.9770    0.3980    0.7720 n         1 BD5     -0.479900
     14 C32        -2.7460    0.7010    0.2240 c         1 BD5      0.637100
     15 O34        -2.5410    0.8120   -1.0040 o         1 BD5     -0.636100
     16 C24        -1.5620    0.8020    1.2310 c3        1 BD5      0.018700
     17 C25        -1.8790    1.9220    2.2500 c3        1 BD5     -0.061100
     18 C26        -2.2900    1.3590    3.5660 ca        1 BD5     -0.094300
     19 C31        -1.3880    0.6000    4.3230 ca        1 BD5     -0.126500
     20 C30        -1.7630    0.1080    5.5720 ca        1 BD5     -0.144500
     21 C29        -3.0390    0.3680    6.0720 ca        1 BD5     -0.143000
     22 C28        -3.9410    1.1170    5.3180 ca        1 BD5     -0.144500
     23 C27        -3.5730    1.6120    4.0660 ca        1 BD5     -0.126500
     24 N22        -0.3110    1.0100    0.5320 n         1 BD5     -0.533900
     25 C21         0.8780    0.4990    0.9760 c         1 BD5      0.627100
     26 O23         1.0050   -0.0790    2.0780 o         1 BD5     -0.635100
     27 C12         2.1200    0.7330    0.0680 c3        1 BD5      0.023700
     28 C13         2.6260    2.1560    0.3760 c3        1 BD5     -0.033100
     29 C14         3.6990    2.5910   -0.5560 ca        1 BD5     -0.106300
     30 C19         3.3980    2.8700   -1.8950 ca        1 BD5     -0.082500
     31 C18         4.3900    3.2980   -2.7710 ca        1 BD5     -0.182500
     32 C17         5.7010    3.4510   -2.2990 ca        1 BD5      0.118100
     33 O20         6.7340    3.8770   -3.1060 oh        1 BD5     -0.504100
     34 C16         6.0200    3.1760   -0.9610 ca        1 BD5     -0.182500
     35 C15         5.0140    2.7470   -0.1010 ca        1 BD5     -0.082500
     36 N10         3.1410   -0.2690    0.2980 n         1 BD5     -0.491900
     37 C9          3.3090   -1.2760   -0.6410 c         1 BD5      0.730100
     38 O11         2.9990   -1.2730   -1.8420 o         1 BD5     -0.577000
     39 O8          3.9620   -2.3780   -0.1150 os        1 BD5     -0.442900
     40 C7          4.4100   -3.3690   -1.0460 c3        1 BD5      0.188700
     41 C3          5.8510   -3.1830   -1.3900 ca        1 BD5     -0.112300
     42 C2          6.2970   -3.4710   -2.6850 ca        1 BD5     -0.109000
     43 C1          7.6480   -3.3420   -3.0040 ca        1 BD5     -0.135000
     44 C6          8.5590   -2.9190   -2.0360 ca        1 BD5     -0.128000
     45 C5          8.1170   -2.6240   -0.7470 ca        1 BD5     -0.135000
     46 C4          6.7680   -2.7570   -0.4230 ca        1 BD5     -0.109000
     47 H43        -5.6730   -2.7130    1.1540 ha        1 BD5      0.137500
     48 H42        -5.2560   -4.7850   -0.1650 ha        1 BD5      0.128000
     49 HO44       -5.0800   -5.6310   -2.2820 ho        1 BD5      0.407000
     50 H40        -5.8800   -2.5740   -3.8370 ha        1 BD5      0.128000
     51 H39        -6.2970   -0.4930   -2.4970 ha        1 BD5      0.137500
     52 H37        -7.2380    0.2500   -0.1930 hc        1 BD5      0.064200
     53 H37A       -6.4790   -0.5000    1.2720 hc        1 BD5      0.064200
     54 H35        -4.9540    0.9690   -1.0080 h1        1 BD5      0.079700
     55 HN33       -4.0410    0.5590    1.7610 hn        1 BD5      0.302500
     56 H24        -1.4860   -0.1840    1.7860 h1        1 BD5      0.090700
     57 H25        -0.9750    2.5690    2.4110 hc        1 BD5      0.082700
     58 H25A       -2.6960    2.5870    1.8460 hc        1 BD5      0.082700
     59 H31        -0.3850    0.3860    3.9190 ha        1 BD5      0.178000
     60 H30        -1.0520   -0.4880    6.1610 ha        1 BD5      0.122000
     61 H29        -3.3330   -0.0190    7.0580 ha        1 BD5      0.114000
     62 H28        -4.9500    1.3190    5.7050 ha        1 BD5      0.122000
     63 H27        -4.2940    2.1980    3.4590 ha        1 BD5      0.178000
     64 HN22       -0.3890    1.3330   -0.4090 hn        1 BD5      0.335500
     65 H12         1.8190    0.6860   -1.0230 h1        1 BD5      0.103700
     66 H13         1.7500    2.8550    0.2820 hc        1 BD5      0.066700
     67 H13A        2.9840    2.2050    1.4390 hc        1 BD5      0.066700
     68 H19         2.3670    2.7450   -2.2600 ha        1 BD5      0.136500
     69 H18         4.1490    3.5100   -3.8220 ha        1 BD5      0.138500
     70 HO20        6.3830    3.9860   -4.0010 ho        1 BD5      0.416000
     71 H16         7.0540    3.2990   -0.6120 ha        1 BD5      0.138500
     72 H15         5.2590    2.5240    0.9490 ha        1 BD5      0.136500
     73 HN10        3.2600   -0.5370    1.2550 hn        1 BD5      0.328500
     74 H7          4.2720   -4.3310   -0.4760 h1        1 BD5      0.076700
     75 H7A         3.7670   -3.3720   -1.9670 h1        1 BD5      0.076700
     76 H2          5.5780   -3.7900   -3.4540 ha        1 BD5      0.139500
     77 H1          7.9930   -3.5680   -4.0230 ha        1 BD5      0.128500
     78 H6          9.6230   -2.8140   -2.2910 ha        1 BD5      0.126000
     79 H5          8.8320   -2.2830    0.0160 ha        1 BD5      0.128500
     80 H4          6.4090   -2.5180    0.5900 ha        1 BD5      0.139500
@<TRIPOS>BOND
     1    1    2 ar  
     2    1    7 ar  
     3    1   47 1   
     4    2    3 ar  
     5    2   48 1   
     6    3    4 1   
     7    3    5 ar  
     8    4   49 1   
     9    5    6 ar  
    10    5   50 1   
    11    6    7 ar  
    12    6   51 1   
    13    7    8 1   
    14    8    9 1   
    15    8   52 1   
    16    8   53 1   
    17    9   10 1   
    18    9   13 1   
    19    9   54 1   
    20   10   11 1   
    21   10   12 1   
    22   13   14 1   
    23   13   55 1   
    24   14   15 2   
    25   14   16 1   
    26   16   17 1   
    27   16   24 1   
    28   16   56 1   
    29   17   18 1   
    30   17   57 1   
    31   17   58 1   
    32   18   19 ar  
    33   18   23 ar  
    34   19   20 ar  
    35   19   59 1   
    36   20   21 ar  
    37   20   60 1   
    38   21   22 ar  
    39   21   61 1   
    40   22   23 ar  
    41   22   62 1   
    42   23   63 1   
    43   24   25 1   
    44   24   64 1   
    45   25   26 2   
    46   25   27 1   
    47   27   28 1   
    48   27   36 1   
    49   27   65 1   
    50   28   29 1   
    51   28   66 1   
    52   28   67 1   
    53   29   30 ar  
    54   29   35 ar  
    55   30   31 ar  
    56   30   68 1   
    57   31   32 ar  
    58   31   69 1   
    59   32   33 1   
    60   32   34 ar  
    61   33   70 1   
    62   34   35 ar  
    63   34   71 1   
    64   35   72 1   
    65   36   37 1   
    66   36   73 1   
    67   37   38 2   
    68   37   39 1   
    69   39   40 1   
    70   40   41 1   
    71   40   74 1   
    72   40   75 1   
    73   41   42 ar  
    74   41   46 ar  
    75   42   43 ar  
    76   42   76 1   
    77   43   44 ar  
    78   43   77 1   
    79   44   45 ar  
    80   44   78 1   
    81   45   46 ar  
    82   45   79 1   
    83   46   80 1   
@<TRIPOS>SUBSTRUCTURE
     1 BD5         1 TEMP              0 ****  ****    0 ROOT
