@<TRIPOS>MOLECULE
BD5
   80    74     1     0     0
SMALL
bcc


@<TRIPOS>ATOM
      1 C43         0.2350    6.1340    2.5010 c1        1 BD5     -0.103000
      2 C42        -0.4030    6.8040    3.5430 c1        1 BD5     -0.226000
      3 C41        -1.7610    6.7130    3.6860 c1        1 BD5      0.052000
      4 O44        -2.4060    7.3340    4.8090 o         1 BD5     -0.266000
      5 C40        -2.5050    5.9510    2.7900 c2        1 BD5     -0.159000
      6 C39        -1.8740    5.2880    1.7600 c1        1 BD5     -0.091000
      7 C38        -0.5010    5.3800    1.6160 c1        1 BD5     -0.085000
      8 C37         0.2350    4.5700    0.4580 c3        1 BD5     -0.111000
      9 C35         0.3020    3.0950    0.8320 c3        1 BD5     -0.081000
     10 C36        -1.0840    2.5670    1.0300 c2        1 BD5      0.324000
     11 O45        -1.3500    1.8670    2.0360 o         1 BD5     -0.566000
     12 O46        -1.9760    2.8080    0.1770 o         1 BD5     -0.566000
     13 N33         0.9500    2.3630   -0.2230 n         1 BD5     -0.306000
     14 C32         0.9010    0.8660   -0.2360 c2        1 BD5      0.265000
     15 O34         0.6190    0.2470    0.7990 o         1 BD5     -0.435000
     16 C24         1.2910    0.1000   -1.5010 c3        1 BD5     -0.020000
     17 C25         0.2940    0.3990   -2.5990 c3        1 BD5     -0.131000
     18 C26         1.0600    0.7830   -3.9120 c2        1 BD5     -0.092000
     19 C31         0.8160    0.0700   -5.0990 c2        1 BD5     -0.129000
     20 C30         1.3800    0.5030   -6.3030 c1        1 BD5     -0.145000
     21 C29         2.1810    1.6380   -6.3280 c1        1 BD5     -0.135250
     22 C28         2.4270    2.3560   -5.1360 c1        1 BD5     -0.135250
     23 C27         1.8680    1.9260   -3.9370 c1        1 BD5     -0.120000
     24 N22         1.2950   -1.3040   -1.2280 n         1 BD5     -0.322000
     25 C21         2.0370   -1.8160   -0.1120 c2        1 BD5      0.268000
     26 O23         3.0120   -1.2170    0.2960 o         1 BD5     -0.351000
     27 C12         1.6260   -3.1570    0.5390 c3        1 BD5     -0.006000
     28 C13         2.7710   -3.6780    1.3920 c3        1 BD5     -0.114000
     29 C14         2.8400   -5.2480    1.2800 c2        1 BD5     -0.098000
     30 C19         3.2630   -5.8440    0.0950 c2        1 BD5     -0.094000
     31 C18         3.3750   -7.2260    0.0150 c1        1 BD5     -0.160000
     32 C17         3.0680   -8.0100    1.1100 c1        1 BD5      0.070000
     33 O20         3.0360   -9.4720    0.9760 oh        1 BD5     -0.259000
     34 C16         2.6470   -7.4180    2.2900 c1        1 BD5     -0.213000
     35 C15         2.5340   -6.0310    2.3730 c1        1 BD5     -0.071000
     36 N10         0.4930   -2.9590    1.3430 n         1 BD5     -0.318000
     37 C9         -0.8220   -3.0530    0.7680 c2        1 BD5      0.384000
     38 O11        -1.1330   -4.0250    0.1540 o         1 BD5     -0.416000
     39 O8         -1.8020   -2.0690    1.0800 os        1 BD5     -0.257000
     40 C7         -2.9940   -2.1730    0.3060 c3        1 BD5      0.036000
     41 C3         -3.8080   -0.8210    0.4060 c2        1 BD5     -0.122000
     42 C2         -3.4430    0.2740   -0.3730 c2        1 BD5     -0.113000
     43 C1         -4.1690    1.4670   -0.2890 c1        1 BD5     -0.119000
     44 C6         -5.2510    1.5570    0.5690 c1        1 BD5     -0.135250
     45 C5         -5.6190    0.4570    1.3520 c1        1 BD5     -0.135250
     46 C4         -4.8950   -0.7290    1.2680 c1        1 BD5     -0.142000
     47 H43         1.2160    6.2520    2.3590 ha        1 BD5      0.123000
     48 H42         0.1330    7.3670    4.1810 ha        1 BD5      0.116000
     49 HO44       -2.5610    8.1600    4.6290 ho        1 BD5      0.203000
     50 H40        -3.5210    5.9460    2.8500 ha        1 BD5      0.142000
     51 H39        -2.3850    4.6980    1.1770 ha        1 BD5      0.203000
     52 H37        -0.2690    4.6720   -0.3900 hc        1 BD5      0.090500
     53 H37A        1.1500    4.9210    0.3400 hc        1 BD5      0.090500
     54 H35         0.8160    2.9910    1.6680 h1        1 BD5      0.123000
     55 HN33        1.3650    2.8160   -0.9090 hn        1 BD5      0.235000
     56 H24         2.1780    0.3770   -1.7860 h1        1 BD5      0.145000
     57 H25        -0.2660   -0.4040   -2.7640 hc        1 BD5      0.111500
     58 H25A       -0.2970    1.1710   -2.3160 hc        1 BD5      0.111500
     59 H31         0.2400   -0.7460   -5.0810 ha        1 BD5      0.131000
     60 H30         1.2100    0.0010   -7.1360 ha        1 BD5      0.119000
     61 H29         2.5700    1.9380   -7.1620 ha        1 BD5      0.126500
     62 H28         2.9980    3.1650   -5.1540 ha        1 BD5      0.126500
     63 H27         2.0390    2.4210   -3.1160 ha        1 BD5      0.204000
     64 HN22        0.8870   -1.8850   -1.8100 hn        1 BD5      0.218000
     65 H12         1.4190   -3.8060   -0.1560 h1        1 BD5      0.143000
     66 H13         2.6230   -3.4210    2.3300 hc        1 BD5      0.111000
     67 H13A        3.6080   -3.2930    1.0780 hc        1 BD5      0.111000
     68 H19         3.4110   -5.2960   -0.7000 ha        1 BD5      0.134000
     69 H18         3.6740   -7.6490   -0.8250 ha        1 BD5      0.144000
     70 HO20        3.8460   -9.8200    1.2240 ho        1 BD5      0.214000
     71 H16         2.4910   -7.9720    3.0870 ha        1 BD5      0.130000
     72 H15         2.3180   -5.6100    3.2300 ha        1 BD5      0.144000
     73 HN10        0.5890   -2.8280    2.2340 hn        1 BD5      0.258000
     74 H7         -2.7570   -2.3510   -0.6570 h1        1 BD5      0.107000
     75 H7A        -3.5580   -2.9280    0.6580 h1        1 BD5      0.107000
     76 H2         -2.6780    0.2080   -0.9830 ha        1 BD5      0.164000
     77 H1         -3.9070    2.2530   -0.8480 ha        1 BD5      0.201000
     78 H6         -5.7880    2.3910    0.6020 ha        1 BD5      0.126500
     79 H5         -6.4010    0.5130    1.9440 ha        1 BD5      0.126500
     80 H4         -5.1570   -1.5160    1.8270 ha        1 BD5      0.114000
@<TRIPOS>BOND
     1    1    7 1   
     2    1   47 1   
     3    2    3 1   
     4    2   48 1   
     5    3    5 1   
     6    4   49 1   
     7    5    6 1   
     8    5   50 1   
     9    6   51 1   
    10    7    8 1   
    11    8    9 1   
    12    8   52 1   
    13    8   53 1   
    14    9   10 1   
    15    9   13 1   
    16    9   54 1   
    17   10   11 1   
    18   10   12 1   
    19   13   14 1   
    20   13   55 1   
    21   14   15 1   
    22   14   16 1   
    23   16   17 1   
    24   16   24 1   
    25   16   56 1   
    26   17   18 1   
    27   17   57 1   
    28   17   58 1   
    29   18   19 1   
    30   18   23 1   
    31   19   20 1   
    32   19   59 1   
    33   20   60 1   
    34   21   22 1   
    35   21   61 1   
    36   22   62 1   
    37   23   63 1   
    38   24   25 1   
    39   24   64 1   
    40   25   26 1   
    41   25   27 1   
    42   27   28 1   
    43   27   36 1   
    44   27   65 1   
    45   28   29 1   
    46   28   66 1   
    47   28   67 1   
    48   29   30 1   
    49   29   35 1   
    50   30   31 1   
    51   30   68 1   
    52   31   69 1   
    53   32   33 1   
    54   32   34 1   
    55   33   70 1   
    56   34   71 1   
    57   35   72 1   
    58   36   37 1   
    59   36   73 1   
    60   37   38 1   
    61   37   39 1   
    62   39   40 1   
    63   40   41 1   
    64   40   74 1   
    65   40   75 1   
    66   41   42 1   
    67   41   46 1   
    68   42   43 1   
    69   42   76 1   
    70   43   77 1   
    71   44   45 1   
    72   44   78 1   
    73   45   79 1   
    74   46   80 1   
@<TRIPOS>SUBSTRUCTURE
     1 BD5         1 TEMP              0 ****  ****    0 ROOT
