@<TRIPOS>MOLECULE
BD6
   85    89     1     0     0
SMALL
bcc


@<TRIPOS>ATOM
      1 CD2        -1.9770    3.3450   -1.7480 ca        1 BD6     -0.090800
      2 CE3        -2.8020    3.5230   -2.8600 ca        1 BD6     -0.088000
      3 CZ3        -2.2270    3.8770   -4.0710 ca        1 BD6     -0.152000
      4 CH2        -0.8380    4.0640   -4.1940 ca        1 BD6     -0.113000
      5 CZ2         0.0160    3.9040   -3.1140 ca        1 BD6     -0.145000
      6 CE2        -0.5500    3.5420   -1.8820 ca        1 BD6     -0.057200
      7 NE1         0.0380    3.3480   -0.6260 na        1 BD6     -0.172400
      8 CD1        -0.9660    2.9800    0.2700 cc        1 BD6     -0.094100
      9 CG         -2.2110    2.9830   -0.3640 cd        1 BD6     -0.172400
     10 CB         -3.5210    2.7100    0.2360 c3        1 BD6     -0.011200
     11 CA         -3.4930    1.5320    1.2240 c3        1 BD6      0.040700
     12 C          -4.9470    1.2580    1.6820 c         1 BD6      0.577100
     13 O          -5.9190    1.4740    0.9440 o         1 BD6     -0.561100
     14 NBC        -5.1140    0.8760    3.0390 n         1 BD6     -0.359400
     15 OAF        -6.2770    0.2860    3.3220 oh        1 BD6     -0.433100
     16 N          -2.9100    0.3360    0.6630 n         1 BD6     -0.559900
     17 CBK        -2.4100   -0.6730    1.4540 c         1 BD6      0.635100
     18 OAD        -2.5280   -0.6250    2.6960 o         1 BD6     -0.618100
     19 CBU        -1.7550   -1.8770    0.7200 c3        1 BD6      0.058700
     20 CAZ        -2.9170   -2.8220    0.3330 c3        1 BD6     -0.049100
     21 CBN        -2.4920   -3.8730   -0.6300 ca        1 BD6     -0.095300
     22 CAQ        -2.4120   -5.2120   -0.2320 ca        1 BD6     -0.126000
     23 CAK        -2.0430   -6.1960   -1.1480 ca        1 BD6     -0.123500
     24 CAH        -1.7530   -5.8520   -2.4680 ca        1 BD6     -0.124000
     25 CAL        -1.8360   -4.5190   -2.8720 ca        1 BD6     -0.123500
     26 CAR        -2.2040   -3.5340   -1.9590 ca        1 BD6     -0.126000
     27 NBV        -0.7220   -2.5020    1.5090 n         1 BD6     -0.448800
     28 CAA        -1.1390   -3.3000    2.6400 c3        1 BD6      0.066300
     29 CBL         0.6320   -2.4030    1.2380 c         1 BD6      0.639100
     30 OAE         1.4490   -3.0590    1.9160 o         1 BD6     -0.597100
     31 CBT         1.1610   -1.4960    0.0920 c3        1 BD6      0.047700
     32 CAY         1.1500   -2.3560   -1.1850 c3        1 BD6     -0.016100
     33 CBO         1.5780   -1.6490   -2.4020 cc        1 BD6     -0.229900
     34 CAV         1.9840   -2.2200   -3.6320 cd        1 BD6      0.298200
     35 NBF         2.2780   -1.2200   -4.5500 nd        1 BD6     -0.669000
     36 CAS         2.0630   -0.0520   -3.9020 cc        1 BD6      0.388400
     37 NBB         1.6290   -0.2640   -2.5910 na        1 BD6     -0.307900
     38 NBD         2.4860   -1.0060    0.4100 n         1 BD6     -0.518900
     39 CBI         2.7460    0.3420    0.4630 c         1 BD6      0.756100
     40 OAB         2.0600    1.2700   -0.0180 o         1 BD6     -0.658000
     41 OBH         3.9410    0.6390    1.0710 os        1 BD6     -0.421900
     42 CAX         4.3170    2.0340    1.0290 c3        1 BD6      0.200700
     43 CBM         5.6210    2.1580    1.7390 ca        1 BD6     -0.105300
     44 CAO         6.6370    1.2160    1.5470 ca        1 BD6     -0.107500
     45 CAI         7.8630    1.3710    2.1910 ca        1 BD6     -0.130500
     46 CAG         8.0820    2.4680    3.0250 ca        1 BD6     -0.118000
     47 CAJ         7.0690    3.4090    3.2190 ca        1 BD6     -0.130500
     48 CAP         5.8390    3.2530    2.5830 ca        1 BD6     -0.107500
     49 HE3        -3.8890    3.3870   -2.7680 ha        1 BD6      0.136000
     50 HZ3        -2.8630    4.0190   -4.9570 ha        1 BD6      0.132000
     51 HH2        -0.4230    4.3460   -5.1740 ha        1 BD6      0.132000
     52 HZ2         1.0980    4.0610   -3.2150 ha        1 BD6      0.133000
     53 HNE1        1.0040    3.1910   -0.4760 hn        1 BD6      0.315700
     54 HD1        -0.7220    2.7570    1.3110 h4        1 BD6      0.168000
     55 HB         -3.8840    3.6090    0.8060 hc        1 BD6      0.075700
     56 HBA        -4.2770    2.5050   -0.5710 hc        1 BD6      0.075700
     57 HA         -2.8760    1.8330    2.1270 h1        1 BD6      0.084700
     58 HNBC       -4.3620    0.2840    3.3900 hn        1 BD6      0.332500
     59 HOAF       -6.9450    0.9990    3.3230 ho        1 BD6      0.430000
     60 HN         -2.8060    0.3060   -0.3240 hn        1 BD6      0.330500
     61 HBU        -1.3000   -1.5090   -0.2480 h1        1 BD6      0.073700
     62 HAZ        -3.3540   -3.2860    1.2570 hc        1 BD6      0.072200
     63 HAZA       -3.7220   -2.1980   -0.1420 hc        1 BD6      0.072200
     64 HAQ        -2.6450   -5.4920    0.8070 ha        1 BD6      0.132500
     65 HAK        -1.9820   -7.2470   -0.8270 ha        1 BD6      0.139000
     66 HAH        -1.4630   -6.6300   -3.1900 ha        1 BD6      0.137000
     67 HAL        -1.6130   -4.2440   -3.9140 ha        1 BD6      0.139000
     68 HAR        -2.2810   -2.4860   -2.2860 ha        1 BD6      0.132500
     69 HAA        -1.4410   -4.3250    2.2920 h1        1 BD6      0.060367
     70 HAAA       -0.2930   -3.4020    3.3710 h1        1 BD6      0.060367
     71 HAAB       -2.0060   -2.8040    3.1520 h1        1 BD6      0.060367
     72 HBT         0.4840   -0.6000   -0.0400 h1        1 BD6      0.086700
     73 HAY         1.8150   -3.2510   -1.0380 hc        1 BD6      0.080200
     74 HAYA        0.1000   -2.7400   -1.3350 hc        1 BD6      0.080200
     75 HAV         2.0740   -3.2760   -3.8820 h4        1 BD6      0.041100
     76 HAS         2.1930    0.9490   -4.3250 h5        1 BD6      0.062100
     77 HNBB        1.4560    0.4290   -1.9050 hn        1 BD6      0.319700
     78 HNBD        3.0910   -1.6290    0.9050 hn        1 BD6      0.355500
     79 HAX         4.4100    2.3420   -0.0470 h1        1 BD6      0.060700
     80 HAXA        3.5080    2.6360    1.5220 h1        1 BD6      0.060700
     81 HAO         6.4560    0.3490    0.8930 ha        1 BD6      0.138500
     82 HAI         8.6590    0.6270    2.0410 ha        1 BD6      0.136000
     83 HAG         9.0510    2.5910    3.5300 ha        1 BD6      0.135000
     84 HAJ         7.2400    4.2720    3.8780 ha        1 BD6      0.136000
     85 HAP         5.0400    3.9930    2.7450 ha        1 BD6      0.138500
@<TRIPOS>BOND
     1    1    2 ar  
     2    1    6 ar  
     3    1    9 1   
     4    2    3 ar  
     5    2   49 1   
     6    3    4 ar  
     7    3   50 1   
     8    4    5 ar  
     9    4   51 1   
    10    5    6 ar  
    11    5   52 1   
    12    6    7 1   
    13    7    8 1   
    14    7   53 1   
    15    8    9 2   
    16    8   54 1   
    17    9   10 1   
    18   10   11 1   
    19   10   55 1   
    20   10   56 1   
    21   11   12 1   
    22   11   16 1   
    23   11   57 1   
    24   12   13 2   
    25   12   14 1   
    26   14   15 1   
    27   14   58 1   
    28   15   59 1   
    29   16   17 1   
    30   16   60 1   
    31   17   18 2   
    32   17   19 1   
    33   19   20 1   
    34   19   27 1   
    35   19   61 1   
    36   20   21 1   
    37   20   62 1   
    38   20   63 1   
    39   21   22 ar  
    40   21   26 ar  
    41   22   23 ar  
    42   22   64 1   
    43   23   24 ar  
    44   23   65 1   
    45   24   25 ar  
    46   24   66 1   
    47   25   26 ar  
    48   25   67 1   
    49   26   68 1   
    50   27   28 1   
    51   27   29 1   
    52   28   69 1   
    53   28   70 1   
    54   28   71 1   
    55   29   30 2   
    56   29   31 1   
    57   31   32 1   
    58   31   38 1   
    59   31   72 1   
    60   32   33 1   
    61   32   73 1   
    62   32   74 1   
    63   33   34 2   
    64   33   37 1   
    65   34   35 1   
    66   34   75 1   
    67   35   36 2   
    68   36   37 1   
    69   36   76 1   
    70   37   77 1   
    71   38   39 1   
    72   38   78 1   
    73   39   40 2   
    74   39   41 1   
    75   41   42 1   
    76   42   43 1   
    77   42   79 1   
    78   42   80 1   
    79   43   44 ar  
    80   43   48 ar  
    81   44   45 ar  
    82   44   81 1   
    83   45   46 ar  
    84   45   82 1   
    85   46   47 ar  
    86   46   83 1   
    87   47   48 ar  
    88   47   84 1   
    89   48   85 1   
@<TRIPOS>SUBSTRUCTURE
     1 BD6         1 TEMP              0 ****  ****    0 ROOT
