@<TRIPOS>MOLECULE
BD6
   89    93     1     0     0
SMALL
bcc


@<TRIPOS>ATOM
      1 CD2         2.3870    1.0150   -2.1110 ca        1 BD6     -0.116800
      2 CE3         3.4410    0.1440   -2.4080 ca        1 BD6     -0.189000
      3 CZ3         4.6500    0.3080   -1.7480 ca        1 BD6     -0.093000
      4 CH2         4.8340    1.3240   -0.7900 ca        1 BD6     -0.099000
      5 CZ2         3.8190    2.2150   -0.4740 ca        1 BD6     -0.082000
      6 CE2         2.5920    2.0630   -1.1400 ca        1 BD6     -0.054200
      7 NE1         1.4160    2.8310   -1.0720 na        1 BD6     -0.131400
      8 CD1         0.5070    2.3300   -1.9720 cc        1 BD6      0.012900
      9 CG          1.0400    1.1920   -2.6210 cd        1 BD6     -0.342400
     10 CB          0.4510    0.4910   -3.7490 c3        1 BD6      0.024800
     11 CA         -0.2450   -0.8390   -3.3060 c3        1 BD6      0.055500
     12 C          -0.7480   -1.5920   -4.5300 c         1 BD6      0.549100
     13 O          -0.4550   -2.7230   -4.8800 o         1 BD6     -0.386100
     14 NBC        -1.7300   -0.8620   -5.4500 n4        1 BD6     -0.436300
     15 OAF        -2.5590   -0.1310   -4.6700 oh        1 BD6     -0.375300
     16 N           0.6920   -1.6910   -2.4830 n4        1 BD6     -0.676800
     17 CBK         0.0440   -2.4840   -1.3960 c         1 BD6      0.523100
     18 OAD        -1.1420   -2.3010   -1.1530 o         1 BD6     -0.415100
     19 CBU         0.9390   -3.5000   -0.6620 c3        1 BD6      0.065500
     20 CAZ         1.3630   -4.6140   -1.6490 c3        1 BD6     -0.041100
     21 CBN         2.4500   -4.1610   -2.5540 ca        1 BD6     -0.223300
     22 CAQ         2.2570   -4.1850   -3.9450 ca        1 BD6     -0.137500
     23 CAK         3.3330   -3.9590   -4.8040 ca        1 BD6     -0.103500
     24 CAH         4.6060   -3.7100   -4.2860 ca        1 BD6     -0.058000
     25 CAL         4.8010   -3.6770   -2.9020 ca        1 BD6     -0.103500
     26 CAR         3.7310   -3.9080   -2.0400 ca        1 BD6     -0.137500
     27 NBV         0.2390   -4.0420    0.5750 n4        1 BD6     -0.585200
     28 CAA        -0.7600   -5.0970    0.2270 c3        1 BD6      0.079100
     29 CBL         1.2380   -4.5780    1.5970 c         1 BD6      0.544100
     30 OAE         2.3970   -4.7050    1.2410 o         1 BD6     -0.385100
     31 CBT         0.7190   -4.8610    3.0140 c3        1 BD6      0.069500
     32 CAY         1.0000   -3.6000    3.8930 c3        1 BD6      0.020900
     33 CBO         0.9430   -3.9330    5.3150 cc        1 BD6     -0.411900
     34 CAV         2.0030   -4.4050    6.1440 cd        1 BD6      0.363200
     35 NBF         1.5720   -4.5260    7.4450 nd        1 BD6     -0.614000
     36 CAS         0.2740   -4.1110    7.4530 cc        1 BD6      0.497400
     37 NBB        -0.1570   -3.7570    6.1780 na        1 BD6     -0.294900
     38 NBD         1.3790   -6.0820    3.5740 n4        1 BD6     -0.672800
     39 CBI         0.9500   -7.3580    2.8380 c         1 BD6      0.658100
     40 OAB         0.4790   -7.2110    1.7090 o         1 BD6     -0.560000
     41 OBH         1.1620   -8.4170    3.5590 os        1 BD6     -0.394900
     42 CAX         0.8160   -9.8230    2.9610 c3        1 BD6      0.271700
     43 CBM         1.1310  -10.7220    4.0600 ca        1 BD6     -0.200300
     44 CAO         0.1320  -11.0920    4.9830 ca        1 BD6     -0.060000
     45 CAI         0.4150  -12.0150    5.9820 ca        1 BD6     -0.132000
     46 CAG         1.6960  -12.5710    6.0830 ca        1 BD6     -0.023000
     47 CAJ         2.6960  -12.1970    5.1790 ca        1 BD6     -0.132000
     48 CAP         2.4220  -11.2750    4.1760 ca        1 BD6     -0.060000
     49 HE3         3.3470   -0.5950   -3.2150 ha        1 BD6      0.110000
     50 HZ3         5.5050   -0.3430   -1.9980 ha        1 BD6      0.159000
     51 HH2         5.8220    1.4330   -0.3060 ha        1 BD6      0.182000
     52 HZ2         3.9820    3.0310    0.2500 ha        1 BD6      0.183000
     53 HNE1        1.3220    3.6760   -0.5560 hn        1 BD6      0.347700
     54 HD1        -0.4690    2.8100   -2.1190 h4        1 BD6      0.197000
     55 HB         -0.3530    1.1230   -4.2200 hc        1 BD6      0.093700
     56 HBA         1.2360    0.2540   -4.5180 hc        1 BD6      0.093700
     57 HA         -1.1450   -0.5650   -2.6620 hx        1 BD6      0.180700
     58 HNBC       -2.2520   -1.5700   -6.0170 hn        1 BD6      0.505300
     59 HOAF       -3.3100    0.2170   -5.2190 ho        1 BD6      0.522000
     60 HN          1.2420   -2.3400   -3.0960 hn        1 BD6      0.519800
     61 HBU         1.8790   -2.9670   -0.3030 hx        1 BD6      0.158700
     62 HAZ         1.7560   -5.4920   -1.0580 hc        1 BD6      0.105700
     63 HAZA        0.4700   -4.9700   -2.2300 hc        1 BD6      0.105700
     64 HAQ         1.2760   -4.4590   -4.3690 ha        1 BD6      0.142000
     65 HAK         3.1880   -4.0200   -5.8970 ha        1 BD6      0.182500
     66 HAH         5.4640   -3.5650   -4.9700 ha        1 BD6      0.195000
     67 HAL         5.8120   -3.5020   -2.4930 ha        1 BD6      0.182500
     68 HAR         3.9050   -3.9380   -0.9520 ha        1 BD6      0.142000
     69 HAA        -1.4570   -4.6960   -0.5570 hx        1 BD6      0.130033
     70 HAAA       -0.2370   -6.0230   -0.1480 hx        1 BD6      0.130033
     71 HAAB       -1.3510   -5.3710    1.1450 hx        1 BD6      0.130033
     72 HBT        -0.3930   -5.0730    3.0080 hx        1 BD6      0.139700
     73 HAY         2.0260   -3.2070    3.6530 hc        1 BD6      0.090200
     74 HAYA        0.2390   -2.8260    3.6070 hc        1 BD6      0.090200
     75 HAV         3.0390   -4.6220    5.8700 h4        1 BD6      0.059100
     76 HAS        -0.3710   -4.0630    8.3490 h5        1 BD6      0.119100
     77 HNBB       -1.0110   -3.3150    5.9480 hn        1 BD6      0.321700
     78 HNBD        1.1290   -6.1540    4.5840 hn        1 BD6      0.500300
     79 HAX         1.4840   -9.8980    2.0700 h1        1 BD6      0.089200
     80 HAXA       -0.2650   -9.7420    2.6970 h1        1 BD6      0.089200
     81 HAO        -0.8790  -10.6660    4.9000 ha        1 BD6      0.139500
     82 HAI        -0.3710  -12.3190    6.6930 ha        1 BD6      0.175000
     83 HAG         1.9150  -13.3100    6.8740 ha        1 BD6      0.180000
     84 HAJ         3.7020  -12.6440    5.2590 ha        1 BD6      0.175000
     85 HAP         3.2090  -10.9920    3.4600 ha        1 BD6      0.139500
     86 HBC2       -1.1940   -0.2380   -6.0930 hn        1 BD6      0.505300
     87 H2          1.3810   -1.0270   -2.0380 hn        1 BD6      0.519800
     88 HBV1       -0.2680   -3.2620    1.0220 hn        1 BD6      0.464800
     89 HBD2        2.4050   -5.9980    3.5210 hn        1 BD6      0.500300
@<TRIPOS>BOND
     1    1    2 ar  
     2    1    6 ar  
     3    1    9 1   
     4    2    3 ar  
     5    2   49 1   
     6    3    4 ar  
     7    3   50 1   
     8    4    5 ar  
     9    4   51 1   
    10    5    6 ar  
    11    5   52 1   
    12    6    7 1   
    13    7    8 1   
    14    7   53 1   
    15    8    9 2   
    16    8   54 1   
    17    9   10 1   
    18   10   11 1   
    19   10   55 1   
    20   10   56 1   
    21   11   12 1   
    22   11   16 1   
    23   11   57 1   
    24   12   13 2   
    25   12   14 1   
    26   14   15 1   
    27   14   58 1   
    28   14   86 1   
    29   15   59 1   
    30   16   17 1   
    31   16   60 1   
    32   16   87 1   
    33   17   18 2   
    34   17   19 1   
    35   19   20 1   
    36   19   27 1   
    37   19   61 1   
    38   20   21 1   
    39   20   62 1   
    40   20   63 1   
    41   21   22 ar  
    42   21   26 ar  
    43   22   23 ar  
    44   22   64 1   
    45   23   24 ar  
    46   23   65 1   
    47   24   25 ar  
    48   24   66 1   
    49   25   26 ar  
    50   25   67 1   
    51   26   68 1   
    52   27   28 1   
    53   27   29 1   
    54   27   88 1   
    55   28   69 1   
    56   28   70 1   
    57   28   71 1   
    58   29   30 2   
    59   29   31 1   
    60   31   32 1   
    61   31   38 1   
    62   31   72 1   
    63   32   33 1   
    64   32   73 1   
    65   32   74 1   
    66   33   34 2   
    67   33   37 1   
    68   34   35 1   
    69   34   75 1   
    70   35   36 2   
    71   36   37 1   
    72   36   76 1   
    73   37   77 1   
    74   38   39 1   
    75   38   78 1   
    76   38   89 1   
    77   39   40 2   
    78   39   41 1   
    79   41   42 1   
    80   42   43 1   
    81   42   79 1   
    82   42   80 1   
    83   43   44 ar  
    84   43   48 ar  
    85   44   45 ar  
    86   44   81 1   
    87   45   46 ar  
    88   45   82 1   
    89   46   47 ar  
    90   46   83 1   
    91   47   48 ar  
    92   47   84 1   
    93   48   85 1   
@<TRIPOS>SUBSTRUCTURE
     1 BD6         1 TEMP              0 ****  ****    0 ROOT
