@<TRIPOS>MOLECULE
BD6
   89    93     1     0     0
SMALL
bcc


@<TRIPOS>ATOM
      1 CD2         2.4570    0.9850   -2.1350 ca        1 BD6     -0.116800
      2 CE3         3.5140    0.1090   -2.3990 ca        1 BD6     -0.189000
      3 CZ3         4.7090    0.2760   -1.7130 ca        1 BD6     -0.093000
      4 CH2         4.8740    1.3000   -0.7610 ca        1 BD6     -0.099000
      5 CZ2         3.8550    2.1970   -0.4770 ca        1 BD6     -0.082000
      6 CE2         2.6430    2.0420   -1.1690 ca        1 BD6     -0.054200
      7 NE1         1.4680    2.8140   -1.1350 na        1 BD6     -0.131400
      8 CD1         0.5780    2.3070   -2.0520 cc        1 BD6      0.012900
      9 CG          1.1220    1.1610   -2.6770 cd        1 BD6     -0.342400
     10 CB          0.5570    0.4520   -3.8120 c3        1 BD6      0.024800
     11 CA         -0.1530   -0.8720   -3.3730 c3        1 BD6      0.055500
     12 C          -0.6300   -1.6350   -4.6010 c         1 BD6      0.549100
     13 O          -0.3320   -2.7700   -4.9330 o         1 BD6     -0.386100
     14 NBC        -1.5880   -0.9110   -5.5500 n4        1 BD6     -0.436300
     15 OAF        -2.4330   -0.1700   -4.7960 oh        1 BD6     -0.375300
     16 N           0.7620   -1.7180   -2.5200 n4        1 BD6     -0.676800
     17 CBK         0.0870   -2.4990   -1.4400 c         1 BD6      0.523100
     18 OAD        -1.1040   -2.3090   -1.2260 o         1 BD6     -0.415100
     19 CBU         0.9610   -3.5090   -0.6760 c3        1 BD6      0.065500
     20 CAZ         1.4040   -4.6350   -1.6410 c3        1 BD6     -0.041100
     21 CBN         2.5130   -4.1950   -2.5260 ca        1 BD6     -0.223300
     22 CAQ         2.3510   -4.2320   -3.9210 ca        1 BD6     -0.137500
     23 CAK         3.4460   -4.0190   -4.7570 ca        1 BD6     -0.103500
     24 CAH         4.7090   -3.7690   -4.2130 ca        1 BD6     -0.058000
     25 CAL         4.8720   -3.7220   -2.8250 ca        1 BD6     -0.103500
     26 CAR         3.7820   -3.9400   -1.9850 ca        1 BD6     -0.137500
     27 NBV         0.2320   -4.0360    0.5510 n4        1 BD6     -0.585200
     28 CAA        -0.7620   -5.0920    0.1920 c3        1 BD6      0.079100
     29 CBL         1.2050   -4.5640    1.6010 c         1 BD6      0.544100
     30 OAE         2.3720   -4.6990    1.2730 o         1 BD6     -0.385100
     31 CBT         0.6530   -4.8310    3.0090 c3        1 BD6      0.069500
     32 CAY         0.9180   -3.5610    3.8810 c3        1 BD6      0.020900
     33 CBO         0.8280   -3.8780    5.3040 cc        1 BD6     -0.411900
     34 CAV         1.8670   -4.3440    6.1620 cd        1 BD6      0.363200
     35 NBF         1.4060   -4.4490    7.4540 nd        1 BD6     -0.614000
     36 CAS         0.1100   -4.0310    7.4280 cc        1 BD6      0.497400
     37 NBB        -0.2910   -3.6900    6.1400 na        1 BD6     -0.294900
     38 NBD         1.2970   -6.0470    3.5960 n4        1 BD6     -0.672800
     39 CBI         0.8800   -7.3300    2.8660 c         1 BD6      0.658100
     40 OAB         0.4350   -7.1940    1.7240 o         1 BD6     -0.560000
     41 OBH         1.0720   -8.3810    3.6030 os        1 BD6     -0.394900
     42 CAX         0.7340   -9.7930    3.0130 c3        1 BD6      0.271700
     43 CBM         1.0260  -10.6810    4.1270 ca        1 BD6     -0.200300
     44 CAO         0.0100  -11.0380    5.0350 ca        1 BD6     -0.060000
     45 CAI         0.2720  -11.9520    6.0500 ca        1 BD6     -0.132000
     46 CAG         1.5480  -12.5100    6.1800 ca        1 BD6     -0.023000
     47 CAJ         2.5670  -12.1490    5.2910 ca        1 BD6     -0.132000
     48 CAP         2.3130  -11.2360    4.2730 ca        1 BD6     -0.060000
     49 HE3         3.4370   -0.6380   -3.2020 ha        1 BD6      0.110000
     50 HZ3         5.5670   -0.3800   -1.9380 ha        1 BD6      0.159000
     51 HH2         5.8500    1.4110   -0.2560 ha        1 BD6      0.182000
     52 HZ2         4.0030    3.0190    0.2430 ha        1 BD6      0.183000
     53 HNE1        1.3650    3.6650   -0.6300 hn        1 BD6      0.347700
     54 HD1        -0.3930    2.7880   -2.2240 h4        1 BD6      0.197000
     55 HB          1.3590    0.2050   -4.5610 hc        1 BD6      0.093700
     56 HBA        -0.2340    1.0820   -4.3070 hc        1 BD6      0.093700
     57 HA         -1.0670   -0.5890   -2.7520 hx        1 BD6      0.180700
     58 HNBC       -2.0990   -1.6230   -6.1220 hn        1 BD6      0.505300
     59 HOAF       -3.1700    0.1750   -5.3670 ho        1 BD6      0.522000
     60 HN          1.4430   -1.0520   -2.0660 hn        1 BD6      0.519800
     61 HBU         1.8940   -2.9750   -0.3010 hx        1 BD6      0.158700
     62 HAZ         0.5230   -4.9940   -2.2380 hc        1 BD6      0.105700
     63 HAZA        1.7800   -5.5080   -1.0320 hc        1 BD6      0.105700
     64 HAQ         1.3790   -4.5080   -4.3630 ha        1 BD6      0.142000
     65 HAK         3.3250   -4.0910   -5.8520 ha        1 BD6      0.182500
     66 HAH         5.5820   -3.6340   -4.8790 ha        1 BD6      0.195000
     67 HAL         5.8750   -3.5460   -2.3960 ha        1 BD6      0.182500
     68 HAR         3.9320   -3.9600   -0.8940 ha        1 BD6      0.142000
     69 HAA        -0.2340   -6.0240   -0.1620 hx        1 BD6      0.130033
     70 HAAA       -1.4400   -4.6970   -0.6130 hx        1 BD6      0.130033
     71 HAAB       -1.3750   -5.3550    1.0980 hx        1 BD6      0.130033
     72 HBT        -0.4590   -5.0400    2.9790 hx        1 BD6      0.139700
     73 HAY         1.9510   -3.1730    3.6590 hc        1 BD6      0.090200
     74 HAYA        0.1660   -2.7880    3.5680 hc        1 BD6      0.090200
     75 HAV         2.9090   -4.5660    5.9140 h4        1 BD6      0.059100
     76 HAS        -0.5550   -3.9720    8.3090 h5        1 BD6      0.119100
     77 HNBB       -1.1390   -3.2490    5.8860 hn        1 BD6      0.321700
     78 HNBD        1.0240   -6.1080    4.6020 hn        1 BD6      0.500300
     79 HAX         1.4180   -9.8790    2.1350 h1        1 BD6      0.089200
     80 HAXA       -0.3420   -9.7120    2.7280 h1        1 BD6      0.089200
     81 HAO        -0.9990  -10.6110    4.9290 ha        1 BD6      0.139500
     82 HAI        -0.5290  -12.2460    6.7490 ha        1 BD6      0.175000
     83 HAG         1.7510  -13.2410    6.9830 ha        1 BD6      0.180000
     84 HAJ         3.5700  -12.5970    5.3940 ha        1 BD6      0.175000
     85 HAP         3.1140  -10.9630    3.5690 ha        1 BD6      0.139500
     86 HBC2       -1.0350   -0.2950   -6.1870 hn        1 BD6      0.505300
     87 H2          1.3230   -2.3760   -3.1140 hn        1 BD6      0.519800
     88 HBV1       -0.2830   -3.2500    0.9780 hn        1 BD6      0.464800
     89 HBD2        2.3230   -5.9670    3.5660 hn        1 BD6      0.500300
@<TRIPOS>BOND
     1    1    2 ar  
     2    1    6 ar  
     3    1    9 1   
     4    2    3 ar  
     5    2   49 1   
     6    3    4 ar  
     7    3   50 1   
     8    4    5 ar  
     9    4   51 1   
    10    5    6 ar  
    11    5   52 1   
    12    6    7 1   
    13    7    8 1   
    14    7   53 1   
    15    8    9 2   
    16    8   54 1   
    17    9   10 1   
    18   10   11 1   
    19   10   55 1   
    20   10   56 1   
    21   11   12 1   
    22   11   16 1   
    23   11   57 1   
    24   12   13 2   
    25   12   14 1   
    26   14   15 1   
    27   14   58 1   
    28   14   86 1   
    29   15   59 1   
    30   16   17 1   
    31   16   60 1   
    32   16   87 1   
    33   17   18 2   
    34   17   19 1   
    35   19   20 1   
    36   19   27 1   
    37   19   61 1   
    38   20   21 1   
    39   20   62 1   
    40   20   63 1   
    41   21   22 ar  
    42   21   26 ar  
    43   22   23 ar  
    44   22   64 1   
    45   23   24 ar  
    46   23   65 1   
    47   24   25 ar  
    48   24   66 1   
    49   25   26 ar  
    50   25   67 1   
    51   26   68 1   
    52   27   28 1   
    53   27   29 1   
    54   27   88 1   
    55   28   69 1   
    56   28   70 1   
    57   28   71 1   
    58   29   30 2   
    59   29   31 1   
    60   31   32 1   
    61   31   38 1   
    62   31   72 1   
    63   32   33 1   
    64   32   73 1   
    65   32   74 1   
    66   33   34 2   
    67   33   37 1   
    68   34   35 1   
    69   34   75 1   
    70   35   36 2   
    71   36   37 1   
    72   36   76 1   
    73   37   77 1   
    74   38   39 1   
    75   38   78 1   
    76   38   89 1   
    77   39   40 2   
    78   39   41 1   
    79   41   42 1   
    80   42   43 1   
    81   42   79 1   
    82   42   80 1   
    83   43   44 ar  
    84   43   48 ar  
    85   44   45 ar  
    86   44   81 1   
    87   45   46 ar  
    88   45   82 1   
    89   46   47 ar  
    90   46   83 1   
    91   47   48 ar  
    92   47   84 1   
    93   48   85 1   
@<TRIPOS>SUBSTRUCTURE
     1 BD6         1 TEMP              0 ****  ****    0 ROOT
