@<TRIPOS>MOLECULE
BD6
   89    93     1     0     0
SMALL
bcc


@<TRIPOS>ATOM
      1 CD2         2.6300    0.7950   -2.3620 ca        1 BD6     -0.116800
      2 CE3         3.5930   -0.2000   -2.5540 ca        1 BD6     -0.189000
      3 CZ3         4.8110   -0.0870   -1.8970 ca        1 BD6     -0.093000
      4 CH2         5.0890    0.9990   -1.0440 ca        1 BD6     -0.099000
      5 CZ2         4.1650    2.0120   -0.8350 ca        1 BD6     -0.082000
      6 CE2         2.9320    1.9130   -1.5000 ca        1 BD6     -0.054200
      7 NE1         1.8370    2.7940   -1.5270 na        1 BD6     -0.131400
      8 CD1         0.8870    2.2930   -2.3850 cc        1 BD6      0.012900
      9 CG          1.3080    1.0480   -2.9060 cd        1 BD6     -0.343400
     10 CB          0.6570    0.2940   -3.9630 c3        1 BD6      0.025800
     11 CA         -0.1720   -0.9050   -3.3930 c3        1 BD6      0.055500
     12 C          -0.7360   -1.7350   -4.5380 c         1 BD6      0.549100
     13 O          -0.5530   -2.9200   -4.7580 o         1 BD6     -0.386100
     14 NBC        -1.6320   -1.0170   -5.5500 ny        1 BD6     -0.437300
     15 OAF        -2.3930   -0.1290   -4.8690 oh        1 BD6     -0.375300
     16 N           0.6670   -1.7500   -2.4640 ny        1 BD6     -0.676800
     17 CBK        -0.0620   -2.3230   -1.2910 c         1 BD6      0.524100
     18 OAD        -1.2250   -1.9940   -1.0950 o         1 BD6     -0.414100
     19 CBU         0.7300   -3.3110   -0.4170 c3        1 BD6      0.060500
     20 CAZ         1.0220   -4.5980   -1.2240 c3        1 BD6     -0.044100
     21 CBN         2.1450   -4.3980   -2.1740 ca        1 BD6     -0.219300
     22 CAQ         1.9400   -4.5930   -3.5500 ca        1 BD6     -0.138500
     23 CAK         3.0260   -4.5980   -4.4240 ca        1 BD6     -0.104000
     24 CAH         4.3220   -4.4070   -3.9380 ca        1 BD6     -0.060000
     25 CAL         4.5290   -4.2010   -2.5710 ca        1 BD6     -0.104000
     26 CAR         3.4480   -4.2020   -1.6920 ca        1 BD6     -0.138500
     27 NBV        -0.0010   -3.5960    0.8860 nx        1 BD6     -0.580200
     28 CAA        -1.1400   -4.5370    0.6800 c3        1 BD6      0.070100
     29 CBL         0.9660   -4.1030    1.9570 c         1 BD6      0.550100
     30 OAE         2.1590   -4.0060    1.7180 o         1 BD6     -0.392100
     31 CBT         0.3890   -4.6190    3.2820 c3        1 BD6      0.071500
     32 CAY         0.3940   -3.4410    4.3090 c3        1 BD6      0.019900
     33 CBO         0.2960   -3.9470    5.6760 cc        1 BD6     -0.408900
     34 CAV         1.3550   -4.3910    6.5210 cd        1 BD6      0.355200
     35 NBF         0.8660   -4.7200    7.7640 nd        1 BD6     -0.613000
     36 CAS        -0.4710   -4.4610    7.7240 cc        1 BD6      0.497400
     37 NBB        -0.8670   -4.0070    6.4700 na        1 BD6     -0.292900
     38 NBD         1.2000   -5.7770    3.7750 ny        1 BD6     -0.669800
     39 CBI         1.1740   -6.9540    2.7970 c         1 BD6      0.660100
     40 OAB         0.9000   -6.6940    1.6210 o         1 BD6     -0.573000
     41 OBH         1.4550   -8.0750    3.3890 os        1 BD6     -0.392900
     42 CAX         1.5240   -9.3920    2.5450 c3        1 BD6      0.271700
     43 CBM         1.8090  -10.3990    3.5540 ca        1 BD6     -0.201300
     44 CAO         0.7560  -11.0940    4.1820 ca        1 BD6     -0.059500
     45 CAI         1.0340  -12.1120    5.0870 ca        1 BD6     -0.132000
     46 CAG         2.3600  -12.4410    5.3870 ca        1 BD6     -0.022000
     47 CAJ         3.4120  -11.7460    4.7790 ca        1 BD6     -0.132000
     48 CAP         3.1420  -10.7280    3.8730 ca        1 BD6     -0.059500
     49 HE3         3.4310   -1.0060   -3.2830 ha        1 BD6      0.110000
     50 HZ3         5.5980   -0.8400   -2.0670 ha        1 BD6      0.158000
     51 HH2         6.0800    1.0600   -0.5590 ha        1 BD6      0.182000
     52 HZ2         4.4040    2.8780   -0.1960 ha        1 BD6      0.183000
     53 HNE1        1.8230    3.6930   -1.1000 hn        1 BD6      0.347700
     54 HD1        -0.0370    2.8480   -2.5920 h4        1 BD6      0.197000
     55 HB         -0.0760    0.9480   -4.5110 hc        1 BD6      0.093700
     56 HBA         1.4190   -0.1020   -4.6900 hc        1 BD6      0.093700
     57 HA         -1.0450   -0.4740   -2.8010 hx        1 BD6      0.181700
     58 HNBC       -2.2150   -1.7270   -6.0490 hn        1 BD6      0.505300
     59 HOAF       -3.1000    0.2300   -5.4680 ho        1 BD6      0.522000
     60 HN          1.4300   -1.1200   -2.0970 hn        1 BD6      0.519800
     61 HBU         1.7260   -2.8270   -0.1420 hx        1 BD6      0.167700
     62 HAZ         1.3150   -5.4190   -0.5030 hc        1 BD6      0.107200
     63 HAZA        0.0920   -4.9360   -1.7550 hc        1 BD6      0.107200
     64 HAQ         0.9330   -4.8190   -3.9380 ha        1 BD6      0.141500
     65 HAK         2.8680   -4.7940   -5.5000 ha        1 BD6      0.181500
     66 HAH         5.1850   -4.4440   -4.6300 ha        1 BD6      0.194000
     67 HAL         5.5560   -4.0690   -2.1840 ha        1 BD6      0.181500
     68 HAR         3.6260   -4.0890   -0.6100 ha        1 BD6      0.141500
     69 HAA        -1.7030   -4.2380   -0.2470 hx        1 BD6      0.129033
     70 HAAA       -1.8450   -4.4710    1.5530 hx        1 BD6      0.129033
     71 HAAB       -0.7570   -5.5910    0.5660 hx        1 BD6      0.129033
     72 HBT        -0.6670   -5.0030    3.1530 hx        1 BD6      0.139700
     73 HAY         1.3560   -2.8650    4.2000 hc        1 BD6      0.094200
     74 HAYA       -0.4620   -2.7660    4.0400 hc        1 BD6      0.094200
     75 HAV         2.4250   -4.4450    6.3030 h4        1 BD6      0.056100
     76 HAS        -1.1690   -4.5970    8.5700 h5        1 BD6      0.119100
     77 HNBB       -1.7520   -3.6360    6.2310 hn        1 BD6      0.322700
     78 HNBD        2.1790   -5.4930    3.9250 hn        1 BD6      0.501800
     79 HAX         2.3460   -9.1920    1.8170 h1        1 BD6      0.087700
     80 HAXA        0.5170   -9.4560    2.0690 h1        1 BD6      0.087700
     81 HAO        -0.2890  -10.8450    3.9400 ha        1 BD6      0.139000
     82 HAI         0.2090  -12.6680    5.5640 ha        1 BD6      0.175500
     83 HAG         2.5780  -13.2550    6.1030 ha        1 BD6      0.181000
     84 HAJ         4.4560  -12.0140    5.0160 ha        1 BD6      0.175500
     85 HAP         3.9720  -10.1900    3.3880 ha        1 BD6      0.139000
     86 HBC2       -1.0300   -0.5190   -6.2440 hn        1 BD6      0.505300
     87 H2          1.1330   -2.5300   -2.9840 hn        1 BD6      0.519800
     88 HBV1       -0.3860   -2.7030    1.2340 hn        1 BD6      0.468800
     89 HBD2        0.8240   -6.0690    4.7020 hn        1 BD6      0.501800
@<TRIPOS>BOND
     1    1    2 ar  
     2    1    6 ar  
     3    1    9 1   
     4    2    3 ar  
     5    2   49 1   
     6    3    4 ar  
     7    3   50 1   
     8    4    5 ar  
     9    4   51 1   
    10    5    6 ar  
    11    5   52 1   
    12    6    7 1   
    13    7    8 1   
    14    7   53 1   
    15    8    9 2   
    16    8   54 1   
    17    9   10 1   
    18   10   11 1   
    19   10   55 1   
    20   10   56 1   
    21   11   12 1   
    22   11   16 1   
    23   11   57 1   
    24   12   13 2   
    25   12   14 1   
    26   14   15 1   
    27   14   58 1   
    28   14   86 1   
    29   15   59 1   
    30   16   17 1   
    31   16   60 1   
    32   16   87 1   
    33   17   18 2   
    34   17   19 1   
    35   19   20 1   
    36   19   27 1   
    37   19   61 1   
    38   20   21 1   
    39   20   62 1   
    40   20   63 1   
    41   21   22 ar  
    42   21   26 ar  
    43   22   23 ar  
    44   22   64 1   
    45   23   24 ar  
    46   23   65 1   
    47   24   25 ar  
    48   24   66 1   
    49   25   26 ar  
    50   25   67 1   
    51   26   68 1   
    52   27   28 1   
    53   27   29 1   
    54   27   88 1   
    55   28   69 1   
    56   28   70 1   
    57   28   71 1   
    58   29   30 2   
    59   29   31 1   
    60   31   32 1   
    61   31   38 1   
    62   31   72 1   
    63   32   33 1   
    64   32   73 1   
    65   32   74 1   
    66   33   34 2   
    67   33   37 1   
    68   34   35 1   
    69   34   75 1   
    70   35   36 2   
    71   36   37 1   
    72   36   76 1   
    73   37   77 1   
    74   38   39 1   
    75   38   78 1   
    76   38   89 1   
    77   39   40 2   
    78   39   41 1   
    79   41   42 1   
    80   42   43 1   
    81   42   79 1   
    82   42   80 1   
    83   43   44 ar  
    84   43   48 ar  
    85   44   45 ar  
    86   44   81 1   
    87   45   46 ar  
    88   45   82 1   
    89   46   47 ar  
    90   46   83 1   
    91   47   48 ar  
    92   47   84 1   
    93   48   85 1   
@<TRIPOS>SUBSTRUCTURE
     1 BD6         1 TEMP              0 ****  ****    0 ROOT
