@<TRIPOS>MOLECULE
BD6
   85    74     1     0     0
SMALL
bcc


@<TRIPOS>ATOM
      1 CD2        -2.3560    4.4210   -4.5670 c1        1 BD6     -0.046000
      2 CE3        -1.8160    5.5810   -5.1830 c1        1 BD6     -0.126375
      3 CZ3        -1.9240    5.7540   -6.5590 c1        1 BD6     -0.126375
      4 CH2        -2.5630    4.7870   -7.3360 c1        1 BD6     -0.126375
      5 CZ2        -3.0960    3.6430   -6.7310 c1        1 BD6     -0.126375
      6 CE2        -2.9860    3.4680   -5.3300 c1        1 BD6     -0.046000
      7 NE1        -3.2720    2.3920   -4.5130 n1        1 BD6     -0.213000
      8 CD1        -2.8180    2.6840   -3.2520 c1        1 BD6     -0.039000
      9 CG         -2.2520    3.9360   -3.2810 c1        1 BD6     -0.191000
     10 CB         -1.4220    4.7070   -2.2490 c2        1 BD6     -0.082000
     11 CA         -1.8990    4.3220   -0.8000 c3        1 BD6      0.010000
     12 C          -2.8270    3.1820   -0.8750 c2        1 BD6      0.230000
     13 O          -2.4100    2.0750   -0.7910 o         1 BD6     -0.345000
     14 NBC        -4.2540    3.4100   -0.9450 n         1 BD6     -0.208000
     15 OAF        -5.1010    2.3610   -1.0900 oh        1 BD6     -0.236000
     16 N          -0.7480    3.9530    0.0190 n         1 BD6     -0.369000
     17 CBK        -0.8860    2.9130    1.0430 c2        1 BD6      0.283000
     18 OAD        -1.9780    2.7540    1.6290 o         1 BD6     -0.382000
     19 CBU         0.3130    2.0230    1.3960 c3        1 BD6      0.013000
     20 CAZ         1.4680    2.3660    0.5040 c3        1 BD6     -0.132000
     21 CBN         1.9550    1.1540   -0.1670 c2        1 BD6     -0.080000
     22 CAQ         1.5070    0.8480   -1.4600 c2        1 BD6     -0.122000
     23 CAK         2.1360   -0.1470   -2.1940 c1        1 BD6     -0.128000
     24 CAH         3.2150   -0.8430   -1.6440 c1        1 BD6     -0.126375
     25 CAL         3.6630   -0.5370   -0.3530 c1        1 BD6     -0.126375
     26 CAR         3.0400    0.4510    0.3780 c1        1 BD6     -0.119000
     27 NBV        -0.0440    0.6460    1.2230 n         1 BD6     -0.314000
     28 CAA        -0.5550    0.1960   -0.0300 c3        1 BD6     -0.099000
     29 CBL        -0.0350   -0.2590    2.3880 c2        1 BD6      0.309000
     30 OAE         0.6620   -0.0090    3.3330 o         1 BD6     -0.386000
     31 CBT        -0.9870   -1.4690    2.4390 c3        1 BD6      0.017000
     32 CAY        -1.8760   -1.3500    3.6220 c3        1 BD6     -0.101000
     33 CBO        -1.6240   -2.5550    4.5880 c2        1 BD6     -0.151000
     34 CAV        -2.0130   -3.8620    4.3660 c1        1 BD6     -0.165000
     35 NBF        -1.7890   -4.5540    5.4810 n2        1 BD6     -0.148000
     36 CAS        -1.2650   -3.7060    6.4060 c1        1 BD6     -0.101000
     37 NBB        -1.1690   -2.4700    5.8370 n2        1 BD6     -0.181000
     38 NBD        -0.2280   -2.6580    2.5400 n         1 BD6     -0.332000
     39 CBI         0.6560   -3.0180    1.5020 c2        1 BD6      0.392000
     40 OAB         0.6860   -2.3670    0.4750 o         1 BD6     -0.413000
     41 OBH         1.4810   -4.1960    1.6340 os        1 BD6     -0.268000
     42 CAX         2.7940   -4.0380    1.1300 c3        1 BD6      0.041000
     43 CBM         3.6670   -5.2430    1.5690 c2        1 BD6     -0.093000
     44 CAO         3.9200   -5.4610    2.9210 c2        1 BD6     -0.101000
     45 CAI         4.7970   -6.4780    3.3130 c1        1 BD6     -0.131000
     46 CAG         5.4170   -7.2720    2.3480 c1        1 BD6     -0.126375
     47 CAJ         5.1630   -7.0530    0.9990 c1        1 BD6     -0.126375
     48 CAP         4.2880   -6.0380    0.6080 c1        1 BD6     -0.121000
     49 HE3        -1.3560    6.2780   -4.6230 ha        1 BD6      0.133000
     50 HZ3        -1.5330    6.5930   -7.0020 ha        1 BD6      0.133000
     51 HH2        -2.6390    4.9090   -8.3030 ha        1 BD6      0.133000
     52 HZ2        -3.5530    2.9510   -7.2860 ha        1 BD6      0.133000
     53 HNE1       -3.6780    1.6430   -4.7600 DU        1 BD6      0.221800
     54 HD1        -2.8470    2.1040   -2.5020 DU        1 BD6      0.221800
     55 HB         -0.4580    4.4710   -2.3570 ha        1 BD6      0.106000
     56 HBA        -1.5410    5.6930   -2.3910 ha        1 BD6      0.106000
     57 HA         -2.3490    5.0750   -0.4010 h1        1 BD6      0.131000
     58 HNBC       -4.5880    4.2720   -0.8860 hn        1 BD6      0.251000
     59 HOAF       -5.6650    2.5300   -1.7350 ho        1 BD6      0.227000
     60 HN          0.0530    4.3890   -0.0870 hn        1 BD6      0.250000
     61 HBU         0.5680    2.1760    2.3330 h1        1 BD6      0.169000
     62 HAZ         2.2220    2.7680    1.0660 hc        1 BD6      0.103500
     63 HAZA        1.1760    3.0190   -0.1700 hc        1 BD6      0.103500
     64 HAQ         0.7370    1.3450   -1.8530 ha        1 BD6      0.130000
     65 HAK         1.8110   -0.3680   -3.1270 ha        1 BD6      0.133000
     66 HAH         3.6390   -1.5140   -2.1390 ha        1 BD6      0.133000
     67 HAL         4.4110   -1.0190    0.0260 ha        1 BD6      0.133000
     68 HAR         3.3520    0.6610    1.2710 ha        1 BD6      0.136000
     69 HAA        -1.4860   -0.1170    0.0860 h1        1 BD6      0.096333
     70 HAAA        0.0160   -0.5660   -0.3760 h1        1 BD6      0.096333
     71 HAAB       -0.5360    0.9410   -0.6800 h1        1 BD6      0.096333
     72 HBT        -1.5180   -1.4950    1.6390 h1        1 BD6      0.140000
     73 HAY        -2.7960   -1.3540    3.3360 hc        1 BD6      0.115000
     74 HAYA       -1.6830   -0.5040    4.0930 hc        1 BD6      0.115000
     75 HAV        -2.3880   -4.2190    3.5340 DU        1 BD6      0.221800
     76 HAS        -0.9920   -3.9510    7.3570 DU        1 BD6      0.221800
     77 HNBB       -0.8570   -1.7340    6.2310 DU        1 BD6      0.221800
     78 HNBD       -0.3240   -3.1910    3.2520 hn        1 BD6      0.257000
     79 HAX         3.1830   -3.2030    1.4830 h1        1 BD6      0.103000
     80 HAXA        2.7660   -3.9970    0.1770 h1        1 BD6      0.103000
     81 HAO         3.4870   -4.9060    3.5930 ha        1 BD6      0.147000
     82 HAI         4.9800   -6.6350    4.2810 ha        1 BD6      0.136000
     83 HAG         6.0350   -7.9880    2.6220 ha        1 BD6      0.133000
     84 HAJ         5.6070   -7.6230    0.3090 ha        1 BD6      0.133000
     85 HAP         4.1090   -5.8830   -0.3570 ha        1 BD6      0.132000
@<TRIPOS>BOND
     1    1    6 1   
     2    2    3 1   
     3    2   49 1   
     4    3   50 1   
     5    4    5 1   
     6    4   51 1   
     7    5   52 1   
     8    7    8 1   
     9    8    9 1   
    10   10   11 1   
    11   10   55 1   
    12   10   56 1   
    13   11   12 1   
    14   11   16 1   
    15   11   57 1   
    16   12   13 1   
    17   12   14 1   
    18   14   15 1   
    19   14   58 1   
    20   15   59 1   
    21   16   17 1   
    22   16   60 1   
    23   17   18 1   
    24   17   19 1   
    25   19   20 1   
    26   19   27 1   
    27   19   61 1   
    28   20   21 1   
    29   20   62 1   
    30   20   63 1   
    31   21   22 1   
    32   21   26 1   
    33   22   23 1   
    34   22   64 1   
    35   23   65 1   
    36   24   25 1   
    37   24   66 1   
    38   25   67 1   
    39   26   68 1   
    40   27   28 1   
    41   27   29 1   
    42   28   69 1   
    43   28   70 1   
    44   28   71 1   
    45   29   30 1   
    46   29   31 1   
    47   31   32 1   
    48   31   38 1   
    49   31   72 1   
    50   32   33 1   
    51   32   73 1   
    52   32   74 1   
    53   33   34 1   
    54   33   37 1   
    55   34   35 1   
    56   35   36 1   
    57   36   37 1   
    58   38   39 1   
    59   38   78 1   
    60   39   40 1   
    61   39   41 1   
    62   41   42 1   
    63   42   43 1   
    64   42   79 1   
    65   42   80 1   
    66   43   44 1   
    67   43   48 1   
    68   44   45 1   
    69   44   81 1   
    70   45   82 1   
    71   46   47 1   
    72   46   83 1   
    73   47   84 1   
    74   48   85 1   
@<TRIPOS>SUBSTRUCTURE
     1 BD6         1 TEMP              0 ****  ****    0 ROOT
