@<TRIPOS>MOLECULE
BD7
   82    75     1     0     0
SMALL
bcc


@<TRIPOS>ATOM
      1 CD1        -3.8900    5.8660    3.3170 c1        1 BD7     -0.090000
      2 CE1        -4.3890    6.7740    4.2110 c1        1 BD7     -0.158000
      3 CZ         -4.0830    6.6560    5.5900 c1        1 BD7      0.085000
      4 OH         -4.6810    7.5520    6.5280 o         1 BD7     -0.250000
      5 CE2        -3.2470    5.5830    6.0520 c2        1 BD7     -0.213000
      6 CD2        -2.7530    4.6850    5.1710 c1        1 BD7     -0.075000
      7 CG         -3.0660    4.8070    3.7690 c1        1 BD7     -0.126000
      8 CB         -2.6180    3.6830    2.7670 c3        1 BD7     -0.119000
      9 CA         -1.1140    3.5960    2.7460 c3        1 BD7      0.005000
     10 C          -0.6870    2.4830    3.5540 c2        1 BD7      0.223000
     11 O          -0.7700    1.3520    3.1200 o         1 BD7     -0.335000
     12 NBC        -0.0890    2.7190    4.8360 n         1 BD7     -0.199000
     13 OAF        -0.0540    1.6750    5.8100 oh        1 BD7     -0.235000
     14 N          -0.6620    3.3990    1.3890 n         1 BD7     -0.366000
     15 CBJ         0.4920    2.5550    1.1330 c2        1 BD7      0.290000
     16 OAD         1.4720    2.6070    1.8880 o         1 BD7     -0.387000
     17 CBS         0.5660    1.7330   -0.1610 c3        1 BD7      0.011000
     18 CBA        -0.7040    1.9640   -0.9810 c3        1 BD7     -0.132000
     19 CBN        -1.0640    0.6630   -1.7650 c2        1 BD7     -0.085000
     20 CAP        -0.7230    0.5590   -3.1020 c2        1 BD7     -0.116000
     21 CAL        -1.2220   -0.4900   -3.8720 c1        1 BD7     -0.127000
     22 CAI        -2.0520   -1.4190   -3.3020 c1        1 BD7     -0.128250
     23 CAM        -2.3920   -1.3190   -1.9730 c1        1 BD7     -0.128250
     24 CAQ        -1.8910   -0.2660   -1.2010 c1        1 BD7     -0.122000
     25 NBT         0.6860    0.3510    0.1560 n         1 BD7     -0.325000
     26 CAA        -0.2170   -0.2440    1.1390 c3        1 BD7     -0.099000
     27 CBK         1.8860   -0.4720   -0.3980 c2        1 BD7      0.270000
     28 OAE         2.4860   -0.0880   -1.4090 o         1 BD7     -0.355000
     29 CBR         2.3030   -1.7050    0.2720 c3        1 BD7      0.002000
     30 CAZ         3.7320   -1.5100    0.8660 c3        1 BD7     -0.087000
     31 CBP         4.6560   -2.6050    0.3410 c2        1 BD7     -0.136000
     32 CAW         4.6490   -3.9000    0.7340 c1        1 BD7     -0.161000
     33 NBF         5.6950   -4.5180    0.1560 n2        1 BD7     -0.141000
     34 CAV         6.3370   -3.6260   -0.5820 c1        1 BD7     -0.099000
     35 NBB         5.6860   -2.4300   -0.4640 n2        1 BD7     -0.187000
     36 NBD         2.3250   -2.7480   -0.6440 n         1 BD7     -0.319000
     37 CBH         1.1400   -3.1210   -1.3250 c2        1 BD7      0.379000
     38 OAB         0.0350   -2.7890   -0.8710 o         1 BD7     -0.396000
     39 OBG         1.2160   -3.9740   -2.4840 os        1 BD7     -0.270000
     40 CAX         0.0550   -4.0290   -3.2100 c3        1 BD7      0.039000
     41 CBM         0.3510   -4.6590   -4.6120 c2        1 BD7     -0.095000
     42 CAN        -0.3250   -5.7490   -5.0040 c2        1 BD7     -0.118000
     43 CAJ        -0.1240   -6.2800   -6.3270 c1        1 BD7     -0.131000
     44 CAH         0.7580   -5.6750   -7.1890 c1        1 BD7     -0.128250
     45 CAK         1.4390   -4.5760   -6.7920 c1        1 BD7     -0.128250
     46 CAO         1.2420   -4.0440   -5.4760 c1        1 BD7     -0.103000
     47 HD1        -4.1070    5.9490    2.3470 ha        1 BD7      0.133000
     48 HE1        -4.9410    7.4860    3.9060 ha        1 BD7      0.152000
     49 HOH        -5.2310    7.1140    7.0340 ho        1 BD7      0.220000
     50 HE2        -3.0300    5.4990    7.0370 ha        1 BD7      0.137000
     51 HD2        -2.1610    3.9240    5.4970 ha        1 BD7      0.153000
     52 HB         -2.9550    3.9030    1.8440 hc        1 BD7      0.106000
     53 HBA        -2.9620    2.8860    3.0320 hc        1 BD7      0.106000
     54 HA         -0.7480    4.3880    3.0880 h1        1 BD7      0.142000
     55 HNBC        0.2610    3.5730    5.0450 hn        1 BD7      0.249000
     56 HOAF       -0.6930    1.8390    6.4630 ho        1 BD7      0.227000
     57 HN         -1.0340    3.9050    0.6960 hn        1 BD7      0.237000
     58 HBS         1.3660    2.0240   -0.6960 h1        1 BD7      0.170000
     59 HBAA       -0.5520    2.6840   -1.6110 hc        1 BD7      0.109500
     60 HBAB       -1.4520    2.2060   -0.3740 hc        1 BD7      0.109500
     61 HAP        -0.1450    1.2090   -3.4990 ha        1 BD7      0.140000
     62 HAL        -0.9720   -0.5650   -4.8520 ha        1 BD7      0.135000
     63 HAI        -2.4030   -2.1550   -3.8410 ha        1 BD7      0.133500
     64 HAM        -3.0080   -2.0080   -1.5500 ha        1 BD7      0.133500
     65 HAQ        -2.1320   -0.1960   -0.2620 ha        1 BD7      0.132000
     66 HAA         0.2450   -0.2780    2.0460 h1        1 BD7      0.095333
     67 HAAA       -0.4660   -1.1910    0.8480 h1        1 BD7      0.095333
     68 HAAB       -1.0050    0.2830    1.2030 h1        1 BD7      0.095333
     69 HBR         1.6600   -1.9190    1.0070 h1        1 BD7      0.150000
     70 HAZ         4.0770   -0.6380    0.6000 hc        1 BD7      0.119000
     71 HAZA        3.6900   -1.5590    1.7870 hc        1 BD7      0.119000
     72 HAW         3.9950   -4.3130    1.3370 DU        1 BD7      0.213000
     73 HAV         7.1290   -3.7910   -1.1100 DU        1 BD7      0.213000
     74 HNBB        5.9280   -1.6240   -0.8820 DU        1 BD7      0.213000
     75 HNBD        3.0880   -3.1790   -0.8100 hn        1 BD7      0.240000
     76 HAX        -0.2960   -3.1440   -3.3200 h1        1 BD7      0.104500
     77 HAXA       -0.6130   -4.5940   -2.7280 h1        1 BD7      0.104500
     78 HAN        -0.9690   -6.1920   -4.3780 ha        1 BD7      0.134000
     79 HAJ        -0.6510   -7.1300   -6.6320 ha        1 BD7      0.135000
     80 HAH         0.8910   -6.0380   -8.0880 ha        1 BD7      0.133500
     81 HAK         2.0650   -4.1460   -7.4020 ha        1 BD7      0.133500
     82 HAO         1.7410   -3.2370   -5.1840 ha        1 BD7      0.144000
@<TRIPOS>BOND
     1    1    7 1   
     2    1   47 1   
     3    2    3 1   
     4    2   48 1   
     5    3    5 1   
     6    4   49 1   
     7    5    6 1   
     8    5   50 1   
     9    6   51 1   
    10    7    8 1   
    11    8    9 1   
    12    8   52 1   
    13    8   53 1   
    14    9   10 1   
    15    9   14 1   
    16    9   54 1   
    17   10   11 1   
    18   10   12 1   
    19   12   13 1   
    20   12   55 1   
    21   13   56 1   
    22   14   15 1   
    23   14   57 1   
    24   15   16 1   
    25   15   17 1   
    26   17   18 1   
    27   17   25 1   
    28   17   58 1   
    29   18   19 1   
    30   18   59 1   
    31   18   60 1   
    32   19   20 1   
    33   19   24 1   
    34   20   21 1   
    35   20   61 1   
    36   21   62 1   
    37   22   23 1   
    38   22   63 1   
    39   23   64 1   
    40   24   65 1   
    41   25   26 1   
    42   25   27 1   
    43   26   66 1   
    44   26   67 1   
    45   26   68 1   
    46   27   28 1   
    47   27   29 1   
    48   29   30 1   
    49   29   36 1   
    50   29   69 1   
    51   30   31 1   
    52   30   70 1   
    53   30   71 1   
    54   31   32 1   
    55   31   35 1   
    56   32   33 1   
    57   33   34 1   
    58   34   35 1   
    59   36   37 1   
    60   36   75 1   
    61   37   38 1   
    62   37   39 1   
    63   39   40 1   
    64   40   41 1   
    65   40   76 1   
    66   40   77 1   
    67   41   42 1   
    68   41   46 1   
    69   42   43 1   
    70   42   78 1   
    71   43   79 1   
    72   44   45 1   
    73   44   80 1   
    74   45   81 1   
    75   46   82 1   
@<TRIPOS>SUBSTRUCTURE
     1 BD7         1 TEMP              0 ****  ****    0 ROOT
