@<TRIPOS>MOLECULE
BD7
   86    89     1     0     0
SMALL
bcc


@<TRIPOS>ATOM
      1 CD1        -1.2680    0.1080    2.4140 ca        1 BD7     -0.075500
      2 CE1        -0.0620    0.2920    3.0630 ca        1 BD7     -0.180500
      3 CZ          0.2250   -0.4700    4.2240 ca        1 BD7      0.217100
      4 OH          1.4260   -0.2340    4.8060 oh        1 BD7     -0.446100
      5 CE2        -0.7020   -1.4180    4.6970 ca        1 BD7     -0.180500
      6 CD2        -1.9040   -1.5950    4.0260 ca        1 BD7     -0.075500
      7 CG         -2.1990   -0.8490    2.8730 ca        1 BD7     -0.294300
      8 CB         -3.5480   -0.9090    2.2710 c3        1 BD7     -0.021100
      9 CA         -3.6420   -1.9730    1.1350 c3        1 BD7      0.062500
     10 C          -4.9160   -1.7380    0.3330 c         1 BD7      0.548100
     11 O          -5.0020   -1.5150   -0.8620 o         1 BD7     -0.381100
     12 NBC        -6.2370   -1.7680    1.0990 n4        1 BD7     -0.433300
     13 OAF        -6.1390   -2.7260    2.0510 oh        1 BD7     -0.376300
     14 N          -2.4140   -1.9200    0.2570 n4        1 BD7     -0.679800
     15 CBJ        -2.0780   -3.1800   -0.4980 c         1 BD7      0.537100
     16 OAD        -2.7440   -4.1770   -0.2680 o         1 BD7     -0.394100
     17 CBS        -0.9240   -3.0510   -1.5020 c3        1 BD7      0.069500
     18 CBA        -1.3210   -1.9950   -2.5680 c3        1 BD7     -0.037100
     19 CBN        -0.5360   -2.0890   -3.8250 ca        1 BD7     -0.223300
     20 CAP        -1.2090   -2.1830   -5.0510 ca        1 BD7     -0.128000
     21 CAL        -0.4950   -2.1130   -6.2480 ca        1 BD7     -0.100500
     22 CAI         0.8910   -1.9480   -6.2290 ca        1 BD7     -0.058000
     23 CAM         1.5670   -1.8690   -5.0060 ca        1 BD7     -0.100500
     24 CAQ         0.8600   -1.9380   -3.8090 ca        1 BD7     -0.128000
     25 NBT        -0.4990   -4.3580   -2.1300 n4        1 BD7     -0.579200
     26 CAA        -1.5820   -5.0350   -2.8920 c3        1 BD7      0.067100
     27 CBK         0.1590   -5.3050   -1.1500 c         1 BD7      0.551100
     28 OAE         0.0460   -5.0490    0.0400 o         1 BD7     -0.423100
     29 CBR         0.9130   -6.5150   -1.7200 c3        1 BD7      0.070500
     30 CAZ         0.1520   -7.8140   -1.3010 c3        1 BD7      0.020900
     31 CBP         1.0230   -8.9810   -1.4290 cc        1 BD7     -0.403900
     32 CAW         1.9740   -9.4680   -0.4850 cd        1 BD7      0.346200
     33 NBF         2.5430  -10.6350   -0.9430 nd        1 BD7     -0.614000
     34 CAV         1.9440  -10.9040   -2.1360 cc        1 BD7      0.495400
     35 NBB         1.0260   -9.9170   -2.4810 na        1 BD7     -0.289900
     36 NBD         2.3210   -6.5230   -1.2130 n4        1 BD7     -0.669800
     37 CBH         3.0740   -5.2520   -1.6010 c         1 BD7      0.663100
     38 OAB         2.3860   -4.2500   -1.8350 o         1 BD7     -0.598000
     39 OBG         4.3550   -5.4370   -1.6270 os        1 BD7     -0.394900
     40 CAX         5.3170   -4.2420   -1.9860 c3        1 BD7      0.277700
     41 CBM         6.6180   -4.8830   -2.0100 ca        1 BD7     -0.204300
     42 CAN         7.1350   -5.3980   -3.2170 ca        1 BD7     -0.057000
     43 CAJ         8.4150   -5.9380   -3.2540 ca        1 BD7     -0.132000
     44 CAH         9.1910   -5.9860   -2.0890 ca        1 BD7     -0.016000
     45 CAK         8.6800   -5.4910   -0.8840 ca        1 BD7     -0.132000
     46 CAO         7.4010   -4.9490   -0.8390 ca        1 BD7     -0.057000
     47 HD1        -1.5270    0.7710    1.5730 ha        1 BD7      0.142000
     48 HE1         0.6630    1.0560    2.7340 ha        1 BD7      0.190000
     49 HOH         1.4660   -0.6700    5.6780 ho        1 BD7      0.469000
     50 HE2        -0.4910   -1.9880    5.6190 ha        1 BD7      0.190000
     51 HD2        -2.6400   -2.3110    4.4260 ha        1 BD7      0.142000
     52 HB         -3.8350    0.0970    1.8630 hc        1 BD7      0.101200
     53 HBA        -4.3030   -1.2150    3.0490 hc        1 BD7      0.101200
     54 HA         -3.6940   -3.0100    1.6050 hx        1 BD7      0.185700
     55 HNBC       -6.3960   -0.8330    1.5400 hn        1 BD7      0.508800
     56 HOAF       -7.0310   -2.8760    2.4650 ho        1 BD7      0.525000
     57 HN         -2.5020   -1.1420   -0.4160 hn        1 BD7      0.503800
     58 HBS        -0.0040   -2.6800   -0.9410 hx        1 BD7      0.156700
     59 HBAA       -1.1290   -0.9830   -2.1110 hc        1 BD7      0.088700
     60 HBAB       -2.4170   -2.0860   -2.7970 hc        1 BD7      0.088700
     61 HAP        -2.3070   -2.2720   -5.0840 ha        1 BD7      0.138000
     62 HAL        -1.0320   -2.1630   -7.2130 ha        1 BD7      0.180500
     63 HAI         1.4520   -1.8610   -7.1780 ha        1 BD7      0.192000
     64 HAM         2.6590   -1.7180   -4.9930 ha        1 BD7      0.180500
     65 HAQ         1.3970   -1.8310   -2.8540 ha        1 BD7      0.138000
     66 HAA        -1.9810   -4.3210   -3.6710 hx        1 BD7      0.126367
     67 HAAA       -2.4070   -5.3590   -2.2020 hx        1 BD7      0.126367
     68 HAAB       -1.1580   -5.9350   -3.4170 hx        1 BD7      0.126367
     69 HBR         0.9780   -6.4670   -2.8490 hx        1 BD7      0.136700
     70 HAZ        -0.1780   -7.7130   -0.2300 hc        1 BD7      0.098700
     71 HAZA       -0.7600   -7.8850   -1.9520 hc        1 BD7      0.098700
     72 HAW         2.2300   -9.0650    0.4970 h4        1 BD7      0.052100
     73 HAV         2.1540  -11.7870   -2.7670 h5        1 BD7      0.120100
     74 HNBB        0.3810   -9.9500   -3.2310 hn        1 BD7      0.324700
     75 HNBD        2.3320   -6.6210   -0.1860 hn        1 BD7      0.502800
     76 HAX         5.1450   -3.5230   -1.1500 h1        1 BD7      0.085700
     77 HAXA        4.9320   -3.8830   -2.9680 h1        1 BD7      0.085700
     78 HAN         6.5320   -5.3530   -4.1380 ha        1 BD7      0.139000
     79 HAJ         8.8260   -6.3240   -4.2020 ha        1 BD7      0.177500
     80 HAH        10.2100   -6.4100   -2.1230 ha        1 BD7      0.183000
     81 HAK         9.2980   -5.5270    0.0290 ha        1 BD7      0.177500
     82 HAO         7.0060   -4.5520    0.1090 ha        1 BD7      0.139000
     83 HBC2       -7.0150   -1.9650    0.4270 hn        1 BD7      0.508800
     84 H2         -1.6180   -1.6940    0.9110 hn        1 BD7      0.503800
     85 HBT1        0.2500   -4.0680   -2.8150 hn        1 BD7      0.523800
     86 HBD2        2.8040   -7.3640   -1.5990 hn        1 BD7      0.502800
@<TRIPOS>BOND
     1    1    2 ar  
     2    1    7 ar  
     3    1   47 1   
     4    2    3 ar  
     5    2   48 1   
     6    3    4 1   
     7    3    5 ar  
     8    4   49 1   
     9    5    6 ar  
    10    5   50 1   
    11    6    7 ar  
    12    6   51 1   
    13    7    8 1   
    14    8    9 1   
    15    8   52 1   
    16    8   53 1   
    17    9   10 1   
    18    9   14 1   
    19    9   54 1   
    20   10   11 2   
    21   10   12 1   
    22   12   13 1   
    23   12   55 1   
    24   12   83 1   
    25   13   56 1   
    26   14   15 1   
    27   14   57 1   
    28   14   84 1   
    29   15   16 2   
    30   15   17 1   
    31   17   18 1   
    32   17   25 1   
    33   17   58 1   
    34   18   19 1   
    35   18   59 1   
    36   18   60 1   
    37   19   20 ar  
    38   19   24 ar  
    39   20   21 ar  
    40   20   61 1   
    41   21   22 ar  
    42   21   62 1   
    43   22   23 ar  
    44   22   63 1   
    45   23   24 ar  
    46   23   64 1   
    47   24   65 1   
    48   25   26 1   
    49   25   27 1   
    50   25   85 1   
    51   26   66 1   
    52   26   67 1   
    53   26   68 1   
    54   27   28 2   
    55   27   29 1   
    56   29   30 1   
    57   29   36 1   
    58   29   69 1   
    59   30   31 1   
    60   30   70 1   
    61   30   71 1   
    62   31   32 2   
    63   31   35 1   
    64   32   33 1   
    65   32   72 1   
    66   33   34 2   
    67   34   35 1   
    68   34   73 1   
    69   35   74 1   
    70   36   37 1   
    71   36   75 1   
    72   36   86 1   
    73   37   38 2   
    74   37   39 1   
    75   39   40 1   
    76   40   41 1   
    77   40   76 1   
    78   40   77 1   
    79   41   42 ar  
    80   41   46 ar  
    81   42   43 ar  
    82   42   78 1   
    83   43   44 ar  
    84   43   79 1   
    85   44   45 ar  
    86   44   80 1   
    87   45   46 ar  
    88   45   81 1   
    89   46   82 1   
@<TRIPOS>SUBSTRUCTURE
     1 BD7         1 TEMP              0 ****  ****    0 ROOT
