@<TRIPOS>MOLECULE
BD7
   82    85     1     0     0
SMALL
bcc


@<TRIPOS>ATOM
      1 CD1         2.3850    2.8520    2.1340 ca        1 BD7     -0.098000
      2 CE1         1.1270    2.8280    2.7270 ca        1 BD7     -0.176500
      3 CZ         -0.0060    3.0470    1.9260 ca        1 BD7      0.127100
      4 OH         -1.2320    2.9310    2.5380 oh        1 BD7     -0.514100
      5 CE2         0.1260    3.3540    0.5630 ca        1 BD7     -0.176500
      6 CD2         1.3930    3.3850   -0.0070 ca        1 BD7     -0.098000
      7 CG          2.5270    3.0990    0.7630 ca        1 BD7     -0.137300
      8 CB          3.8610    3.0050    0.1160 c3        1 BD7     -0.041100
      9 CA          3.8970    1.8670   -0.9220 c3        1 BD7      0.037700
     10 C           5.3670    1.6330   -1.3450 c         1 BD7      0.583100
     11 O           6.3180    1.8970   -0.5960 o         1 BD7     -0.561100
     12 NBC         5.5690    1.2280   -2.6910 n         1 BD7     -0.360400
     13 OAF         6.7450    0.6490   -2.9380 oh        1 BD7     -0.432100
     14 N           3.3180    0.6370   -0.4330 n         1 BD7     -0.560900
     15 CBJ         2.7470   -0.2870   -1.2830 c         1 BD7      0.639100
     16 OAD         2.8830   -0.1770   -2.5180 o         1 BD7     -0.612100
     17 CBS         2.0110   -1.4830   -0.6140 c3        1 BD7      0.060700
     18 CBA         3.1160   -2.4880   -0.2100 c3        1 BD7     -0.053100
     19 CBN         2.6270   -3.5260    0.7350 ca        1 BD7     -0.099300
     20 CAP         2.3970   -4.8350    0.2990 ca        1 BD7     -0.125000
     21 CAL         1.9760   -5.8120    1.2000 ca        1 BD7     -0.124000
     22 CAI         1.7860   -5.4920    2.5430 ca        1 BD7     -0.123000
     23 CAM         2.0180   -4.1890    2.9860 ca        1 BD7     -0.124000
     24 CAQ         2.4370   -3.2100    2.0870 ca        1 BD7     -0.125000
     25 NBT         0.9870   -2.0400   -1.4640 n         1 BD7     -0.450800
     26 CAA         1.4190   -2.7800   -2.6290 c3        1 BD7      0.068300
     27 CBK        -0.3680   -2.0430   -1.1670 c         1 BD7      0.639100
     28 OAE        -1.1410   -2.7300   -1.8650 o         1 BD7     -0.596100
     29 CBR        -0.9520   -1.2010    0.0010 c3        1 BD7      0.055700
     30 CAZ        -0.8780   -2.0860    1.2590 c3        1 BD7     -0.018100
     31 CBP        -1.3680   -1.4460    2.4910 cc        1 BD7     -0.235900
     32 CAW        -1.7920   -2.0850    3.6800 cd        1 BD7      0.297200
     33 NBF        -2.1430   -1.1380    4.6340 nd        1 BD7     -0.675000
     34 CAV        -1.9440    0.0650    4.0450 cc        1 BD7      0.393400
     35 NBB        -1.4670   -0.0740    2.7400 na        1 BD7     -0.304900
     36 NBD        -2.3090   -0.8050   -0.3070 n         1 BD7     -0.522900
     37 CBH        -2.7080    0.5060   -0.2670 c         1 BD7      0.760100
     38 OAB        -2.1200    1.4770    0.2580 o         1 BD7     -0.657000
     39 OBG        -3.9400    0.7090   -0.8460 os        1 BD7     -0.423900
     40 CAX        -4.4510    2.0560   -0.7330 c3        1 BD7      0.200700
     41 CBM        -5.7840    2.0770   -1.3990 ca        1 BD7     -0.104300
     42 CAN        -6.6940    1.0300   -1.2180 ca        1 BD7     -0.107500
     43 CAJ        -7.9510    1.0870   -1.8190 ca        1 BD7     -0.131000
     44 CAH        -8.3050    2.1890   -2.5980 ca        1 BD7     -0.119000
     45 CAK        -7.3980    3.2330   -2.7800 ca        1 BD7     -0.131000
     46 CAO        -6.1370    3.1770   -2.1880 ca        1 BD7     -0.107500
     47 HD1         3.2780    2.6680    2.7520 ha        1 BD7      0.137500
     48 HE1         1.0070    2.6310    3.8010 ha        1 BD7      0.152500
     49 HOH        -1.9170    3.0140    1.8540 ho        1 BD7      0.442000
     50 HE2        -0.7730    3.5250   -0.0490 ha        1 BD7      0.152500
     51 HD2         1.5040    3.6180   -1.0770 ha        1 BD7      0.137500
     52 HB          4.1040    3.9590   -0.4230 hc        1 BD7      0.077700
     53 HBA         4.6660    2.8390    0.8820 hc        1 BD7      0.077700
     54 HA          3.3070    2.1980   -1.8330 h1        1 BD7      0.088700
     55 HNBC        4.8310    0.6250   -3.0510 hn        1 BD7      0.332500
     56 HOAF        7.4020    1.3730   -2.9480 ho        1 BD7      0.430000
     57 HN          3.1670    0.5740    0.5460 hn        1 BD7      0.325500
     58 HBS         1.5270   -1.1150    0.3410 h1        1 BD7      0.074700
     59 HBAA        3.5460   -2.9670   -1.1300 hc        1 BD7      0.071700
     60 HBAB        3.9460   -1.9110    0.2840 hc        1 BD7      0.071700
     61 HAP         2.5510   -5.0970   -0.7590 ha        1 BD7      0.132500
     62 HAL         1.7960   -6.8390    0.8480 ha        1 BD7      0.139500
     63 HAI         1.4560   -6.2640    3.2540 ha        1 BD7      0.138000
     64 HAM         1.8710   -3.9320    4.0460 ha        1 BD7      0.139500
     65 HAQ         2.6280   -2.1870    2.4430 ha        1 BD7      0.132500
     66 HAA         1.6250   -3.8500   -2.3540 h1        1 BD7      0.058700
     67 HAAA        0.6110   -2.7600   -3.4090 h1        1 BD7      0.058700
     68 HAAB        2.3470   -2.3120   -3.0510 h1        1 BD7      0.058700
     69 HBR        -0.3400   -0.2630    0.1500 h1        1 BD7      0.087700
     70 HAZ        -1.4710   -3.0270    1.0880 hc        1 BD7      0.077700
     71 HAZA        0.1970   -2.3920    1.4070 hc        1 BD7      0.077700
     72 HAW        -1.8580   -3.1530    3.8790 h4        1 BD7      0.039100
     73 HAV        -2.1140    1.0480    4.4990 h5        1 BD7      0.068100
     74 HNBB       -1.2950    0.6630    2.0990 hn        1 BD7      0.322700
     75 HNBD       -2.8680   -1.4590   -0.8160 hn        1 BD7      0.356500
     76 HAX        -4.5390    2.3110    0.3580 h1        1 BD7      0.060200
     77 HAXA       -3.7220    2.7550   -1.2220 h1        1 BD7      0.060200
     78 HAN        -6.4070    0.1600   -0.6080 ha        1 BD7      0.138000
     79 HAJ        -8.6630    0.2600   -1.6780 ha        1 BD7      0.135500
     80 HAH        -9.2970    2.2340   -3.0690 ha        1 BD7      0.135000
     81 HAK        -7.6750    4.1010   -3.3960 ha        1 BD7      0.135500
     82 HAO        -5.4220    3.9990   -2.3400 ha        1 BD7      0.138000
@<TRIPOS>BOND
     1    1    2 ar  
     2    1    7 ar  
     3    1   47 1   
     4    2    3 ar  
     5    2   48 1   
     6    3    4 1   
     7    3    5 ar  
     8    4   49 1   
     9    5    6 ar  
    10    5   50 1   
    11    6    7 ar  
    12    6   51 1   
    13    7    8 1   
    14    8    9 1   
    15    8   52 1   
    16    8   53 1   
    17    9   10 1   
    18    9   14 1   
    19    9   54 1   
    20   10   11 2   
    21   10   12 1   
    22   12   13 1   
    23   12   55 1   
    24   13   56 1   
    25   14   15 1   
    26   14   57 1   
    27   15   16 2   
    28   15   17 1   
    29   17   18 1   
    30   17   25 1   
    31   17   58 1   
    32   18   19 1   
    33   18   59 1   
    34   18   60 1   
    35   19   20 ar  
    36   19   24 ar  
    37   20   21 ar  
    38   20   61 1   
    39   21   22 ar  
    40   21   62 1   
    41   22   23 ar  
    42   22   63 1   
    43   23   24 ar  
    44   23   64 1   
    45   24   65 1   
    46   25   26 1   
    47   25   27 1   
    48   26   66 1   
    49   26   67 1   
    50   26   68 1   
    51   27   28 2   
    52   27   29 1   
    53   29   30 1   
    54   29   36 1   
    55   29   69 1   
    56   30   31 1   
    57   30   70 1   
    58   30   71 1   
    59   31   32 2   
    60   31   35 1   
    61   32   33 1   
    62   32   72 1   
    63   33   34 2   
    64   34   35 1   
    65   34   73 1   
    66   35   74 1   
    67   36   37 1   
    68   36   75 1   
    69   37   38 2   
    70   37   39 1   
    71   39   40 1   
    72   40   41 1   
    73   40   76 1   
    74   40   77 1   
    75   41   42 ar  
    76   41   46 ar  
    77   42   43 ar  
    78   42   78 1   
    79   43   44 ar  
    80   43   79 1   
    81   44   45 ar  
    82   44   80 1   
    83   45   46 ar  
    84   45   81 1   
    85   46   82 1   
@<TRIPOS>SUBSTRUCTURE
     1 BD7         1 TEMP              0 ****  ****    0 ROOT
