@<TRIPOS>MOLECULE
BD7
   86    89     1     0     0
SMALL
bcc


@<TRIPOS>ATOM
      1 CD1        -1.1830    0.1030    2.4690 ca        1 BD7     -0.075500
      2 CE1         0.0300    0.2650    3.1090 ca        1 BD7     -0.180500
      3 CZ          0.3170   -0.5130    4.2600 ca        1 BD7      0.217100
      4 OH          1.5250   -0.2990    4.8330 oh        1 BD7     -0.446100
      5 CE2        -0.6190   -1.4540    4.7310 ca        1 BD7     -0.180500
      6 CD2        -1.8290   -1.6070    4.0680 ca        1 BD7     -0.075500
      7 CG         -2.1230   -0.8450    2.9250 ca        1 BD7     -0.294300
      8 CB         -3.4780   -0.8810    2.3340 c3        1 BD7     -0.021100
      9 CA         -3.5960   -1.9310    1.1880 c3        1 BD7      0.062500
     10 C          -4.8730   -1.6710    0.3990 c         1 BD7      0.548100
     11 O          -4.9650   -1.4340   -0.7930 o         1 BD7     -0.381100
     12 NBC        -6.1880   -1.6900    1.1750 ny        1 BD7     -0.433300
     13 OAF        -6.0960   -2.6590    2.1160 oh        1 BD7     -0.376300
     14 N          -2.3740   -1.8870    0.3000 ny        1 BD7     -0.679800
     15 CBJ        -2.0630   -3.1430   -0.4710 c         1 BD7      0.537100
     16 OAD        -2.7420   -4.1320   -0.2470 o         1 BD7     -0.394100
     17 CBS        -0.9130   -3.0200   -1.4800 c3        1 BD7      0.069500
     18 CBA        -1.2990   -1.9450   -2.5310 c3        1 BD7     -0.037100
     19 CBN        -0.5240   -2.0370   -3.7940 ca        1 BD7     -0.223300
     20 CAP        -1.2050   -2.1050   -5.0170 ca        1 BD7     -0.127500
     21 CAL        -0.4970   -2.0310   -6.2170 ca        1 BD7     -0.100500
     22 CAI         0.8910   -1.8890   -6.2040 ca        1 BD7     -0.058000
     23 CAM         1.5750   -1.8350   -4.9850 ca        1 BD7     -0.100500
     24 CAQ         0.8740   -1.9080   -3.7840 ca        1 BD7     -0.127500
     25 NBT        -0.5130   -4.3260   -2.1270 nx        1 BD7     -0.579200
     26 CAA        -1.6130   -4.9760   -2.8910 c3        1 BD7      0.067100
     27 CBK         0.1350   -5.2960   -1.1630 c         1 BD7      0.551100
     28 OAE         0.0350   -5.0520    0.0300 o         1 BD7     -0.423100
     29 CBR         0.8650   -6.5110   -1.7530 c3        1 BD7      0.070500
     30 CAZ         0.0850   -7.8020   -1.3440 c3        1 BD7      0.020900
     31 CBP         0.9340   -8.9830   -1.4920 cc        1 BD7     -0.403900
     32 CAW         1.8840   -9.4970   -0.5610 cd        1 BD7      0.346200
     33 NBF         2.4300  -10.6680   -1.0360 nd        1 BD7     -0.614000
     34 CAV         1.8180  -10.9120   -2.2290 cc        1 BD7      0.495400
     35 NBB         0.9140   -9.9060   -2.5560 na        1 BD7     -0.289900
     36 NBD         2.2760   -6.5490   -1.2550 ny        1 BD7     -0.669800
     37 CBH         3.0480   -5.2870   -1.6350 c         1 BD7      0.663100
     38 OAB         2.3750   -4.2710   -1.8520 o         1 BD7     -0.598000
     39 OBG         4.3250   -5.4940   -1.6710 os        1 BD7     -0.394900
     40 CAX         5.3050   -4.3110   -2.0240 c3        1 BD7      0.277700
     41 CBM         6.5950   -4.9740   -2.0640 ca        1 BD7     -0.204300
     42 CAN         7.0950   -5.4860   -3.2800 ca        1 BD7     -0.057000
     43 CAJ         8.3650   -6.0470   -3.3300 ca        1 BD7     -0.132000
     44 CAH         9.1480   -6.1200   -2.1720 ca        1 BD7     -0.016000
     45 CAK         8.6530   -5.6290   -0.9580 ca        1 BD7     -0.132000
     46 CAO         7.3840   -5.0650   -0.8990 ca        1 BD7     -0.057000
     47 HD1        -1.4400    0.7780    1.6360 ha        1 BD7      0.142000
     48 HE1         0.7630    1.0220    2.7810 ha        1 BD7      0.190000
     49 HOH         1.5670   -0.7440    5.7000 ho        1 BD7      0.469000
     50 HE2        -0.4080   -2.0350    5.6450 ha        1 BD7      0.190000
     51 HD2        -2.5720   -2.3170    4.4670 ha        1 BD7      0.142000
     52 HB         -3.7550    0.1330    1.9390 hc        1 BD7      0.101200
     53 HBA        -4.2310   -1.1850    3.1150 hc        1 BD7      0.101200
     54 HA         -3.6590   -2.9730    1.6470 hx        1 BD7      0.185700
     55 HNBC       -6.9740   -1.8690    0.5070 hn        1 BD7      0.508800
     56 HOAF       -6.9870   -2.8010    2.5350 ho        1 BD7      0.525000
     57 HN         -1.5700   -1.6800    0.9510 hn        1 BD7      0.503800
     58 HBS         0.0170   -2.6720   -0.9210 hx        1 BD7      0.156700
     59 HBAA       -1.0890   -0.9420   -2.0620 hc        1 BD7      0.088700
     60 HBAB       -2.3990   -2.0160   -2.7540 hc        1 BD7      0.088700
     61 HAP        -2.3050   -2.1760   -5.0440 ha        1 BD7      0.138000
     62 HAL        -1.0410   -2.0610   -7.1790 ha        1 BD7      0.180500
     63 HAI         1.4480   -1.7990   -7.1560 ha        1 BD7      0.192000
     64 HAM         2.6700   -1.7010   -4.9770 ha        1 BD7      0.180500
     65 HAQ         1.4190   -1.8210   -2.8320 ha        1 BD7      0.138000
     66 HAA        -2.0050   -4.2460   -3.6580 hx        1 BD7      0.126367
     67 HAAA       -1.2060   -5.8760   -3.4290 hx        1 BD7      0.126367
     68 HAAB       -2.4380   -5.2950   -2.1990 hx        1 BD7      0.126367
     69 HBR         0.9220   -6.4510   -2.8810 hx        1 BD7      0.136700
     70 HAZ        -0.8340   -7.8500   -1.9890 hc        1 BD7      0.098700
     71 HAZA       -0.2370   -7.7090   -0.2690 hc        1 BD7      0.098700
     72 HAW         2.1540   -9.1100    0.4240 h4        1 BD7      0.052100
     73 HAV         2.0080  -11.7910   -2.8720 h5        1 BD7      0.120100
     74 HNBB        0.2640   -9.9190   -3.3010 hn        1 BD7      0.324700
     75 HNBD        2.2920   -6.6600   -0.2310 hn        1 BD7      0.502800
     76 HAX         4.9200   -3.9360   -3.0010 h1        1 BD7      0.085700
     77 HAXA        5.1510   -3.5990   -1.1800 h1        1 BD7      0.085700
     78 HAN         6.4870   -5.4210   -4.1960 ha        1 BD7      0.139000
     79 HAJ         8.7640   -6.4300   -4.2850 ha        1 BD7      0.177500
     80 HAH        10.1600   -6.5610   -2.2170 ha        1 BD7      0.183000
     81 HAK         9.2770   -5.6840   -0.0490 ha        1 BD7      0.177500
     82 HAO         7.0020   -4.6720    0.0560 ha        1 BD7      0.139000
     83 HBC2       -6.3300   -0.7580    1.6270 hn        1 BD7      0.508800
     84 H2         -2.4570   -1.1000   -0.3630 hn        1 BD7      0.503800
     85 HBT1        0.2350   -4.0400   -2.8130 hn        1 BD7      0.523800
     86 HBD2        2.7410   -7.3940   -1.6540 hn        1 BD7      0.502800
@<TRIPOS>BOND
     1    1    2 ar  
     2    1    7 ar  
     3    1   47 1   
     4    2    3 ar  
     5    2   48 1   
     6    3    4 1   
     7    3    5 ar  
     8    4   49 1   
     9    5    6 ar  
    10    5   50 1   
    11    6    7 ar  
    12    6   51 1   
    13    7    8 1   
    14    8    9 1   
    15    8   52 1   
    16    8   53 1   
    17    9   10 1   
    18    9   14 1   
    19    9   54 1   
    20   10   11 2   
    21   10   12 1   
    22   12   13 1   
    23   12   55 1   
    24   12   83 1   
    25   13   56 1   
    26   14   15 1   
    27   14   57 1   
    28   14   84 1   
    29   15   16 2   
    30   15   17 1   
    31   17   18 1   
    32   17   25 1   
    33   17   58 1   
    34   18   19 1   
    35   18   59 1   
    36   18   60 1   
    37   19   20 ar  
    38   19   24 ar  
    39   20   21 ar  
    40   20   61 1   
    41   21   22 ar  
    42   21   62 1   
    43   22   23 ar  
    44   22   63 1   
    45   23   24 ar  
    46   23   64 1   
    47   24   65 1   
    48   25   26 1   
    49   25   27 1   
    50   25   85 1   
    51   26   66 1   
    52   26   67 1   
    53   26   68 1   
    54   27   28 2   
    55   27   29 1   
    56   29   30 1   
    57   29   36 1   
    58   29   69 1   
    59   30   31 1   
    60   30   70 1   
    61   30   71 1   
    62   31   32 2   
    63   31   35 1   
    64   32   33 1   
    65   32   72 1   
    66   33   34 2   
    67   34   35 1   
    68   34   73 1   
    69   35   74 1   
    70   36   37 1   
    71   36   75 1   
    72   36   86 1   
    73   37   38 2   
    74   37   39 1   
    75   39   40 1   
    76   40   41 1   
    77   40   76 1   
    78   40   77 1   
    79   41   42 ar  
    80   41   46 ar  
    81   42   43 ar  
    82   42   78 1   
    83   43   44 ar  
    84   43   79 1   
    85   44   45 ar  
    86   44   80 1   
    87   45   46 ar  
    88   45   81 1   
    89   46   82 1   
@<TRIPOS>SUBSTRUCTURE
     1 BD7         1 TEMP              0 ****  ****    0 ROOT
