@<TRIPOS>MOLECULE
BD7
   86    89     1     0     0
SMALL
bcc


@<TRIPOS>ATOM
      1 CD1        -1.2680    0.0990    2.4300 ca        1 BD7     -0.075500
      2 CE1        -0.0640    0.2760    3.0850 ca        1 BD7     -0.180500
      3 CZ          0.2160   -0.4950    4.2420 ca        1 BD7      0.217100
      4 OH          1.4150   -0.2660    4.8300 oh        1 BD7     -0.446100
      5 CE2        -0.7150   -1.4440    4.7050 ca        1 BD7     -0.180500
      6 CD2        -1.9150   -1.6120    4.0270 ca        1 BD7     -0.075500
      7 CG         -2.2030   -0.8580    2.8790 ca        1 BD7     -0.294300
      8 CB         -3.5500   -0.9100    2.2710 c3        1 BD7     -0.021100
      9 CA         -3.6420   -1.9650    1.1270 c3        1 BD7      0.062500
     10 C          -4.9120   -1.7190    0.3200 c         1 BD7      0.548100
     11 O          -4.9910   -1.4860   -0.8740 o         1 BD7     -0.381100
     12 NBC        -6.2370   -1.7500    1.0800 n4        1 BD7     -0.433300
     13 OAF        -6.1470   -2.7160    2.0240 oh        1 BD7     -0.376300
     14 N          -2.4100   -1.9100    0.2540 n4        1 BD7     -0.679800
     15 CBJ        -2.0760   -3.1660   -0.5090 c         1 BD7      0.537100
     16 OAD        -2.7500   -4.1600   -0.2940 o         1 BD7     -0.394100
     17 CBS        -0.9130   -3.0340   -1.5020 c3        1 BD7      0.069500
     18 CBA        -1.2930   -1.9640   -2.5610 c3        1 BD7     -0.037100
     19 CBN        -0.4980   -2.0510   -3.8110 ca        1 BD7     -0.223300
     20 CAP        -1.1600   -2.1270   -5.0450 ca        1 BD7     -0.127500
     21 CAL        -0.4360   -2.0490   -6.2340 ca        1 BD7     -0.100500
     22 CAI         0.9520   -1.8950   -6.2010 ca        1 BD7     -0.058000
     23 CAM         1.6170   -1.8330   -4.9720 ca        1 BD7     -0.100500
     24 CAQ         0.8990   -1.9100   -3.7820 ca        1 BD7     -0.127500
     25 NBT        -0.4930   -4.3380   -2.1410 n4        1 BD7     -0.579200
     26 CAA        -1.5750   -4.9980   -2.9200 c3        1 BD7      0.067100
     27 CBK         0.1490   -5.3010   -1.1670 c         1 BD7      0.551100
     28 OAE         0.0290   -5.0560    0.0250 o         1 BD7     -0.423100
     29 CBR         0.8970   -6.5110   -1.7430 c3        1 BD7      0.070500
     30 CAZ         0.1220   -7.8080   -1.3430 c3        1 BD7      0.020900
     31 CBP         0.9830   -8.9820   -1.4770 cc        1 BD7     -0.403900
     32 CAW         1.9230   -9.4870   -0.5310 cd        1 BD7      0.346200
     33 NBF         2.4860  -10.6540   -0.9970 nd        1 BD7     -0.614000
     34 CAV         1.8940  -10.9050   -2.1980 cc        1 BD7      0.495400
     35 NBB         0.9870   -9.9060   -2.5390 na        1 BD7     -0.289900
     36 NBD         2.3010   -6.5370   -1.2250 n4        1 BD7     -0.669800
     37 CBH         3.0680   -5.2690   -1.5950 c         1 BD7      0.663100
     38 OAB         2.3900   -4.2580   -1.8230 o         1 BD7     -0.598000
     39 OBG         4.3480   -5.4650   -1.6130 os        1 BD7     -0.394900
     40 CAX         5.3230   -4.2750   -1.9530 c3        1 BD7      0.277700
     41 CBM         6.6180   -4.9280   -1.9740 ca        1 BD7     -0.204300
     42 CAN         7.1410   -5.4360   -3.1810 ca        1 BD7     -0.057000
     43 CAJ         8.4150   -5.9870   -3.2120 ca        1 BD7     -0.132000
     44 CAH         9.1820   -6.0520   -2.0430 ca        1 BD7     -0.016000
     45 CAK         8.6650   -5.5640   -0.8370 ca        1 BD7     -0.132000
     46 CAO         7.3920   -5.0110   -0.7970 ca        1 BD7     -0.057000
     47 HD1        -1.5220    0.7680    1.5920 ha        1 BD7      0.142000
     48 HE1         0.6650    1.0400    2.7640 ha        1 BD7      0.190000
     49 HOH         1.4500   -0.7080    5.6990 ho        1 BD7      0.469000
     50 HE2        -0.5090   -2.0190    5.6240 ha        1 BD7      0.190000
     51 HD2        -2.6550   -2.3290    4.4200 ha        1 BD7      0.142000
     52 HB         -4.3090   -1.2200    3.0430 hc        1 BD7      0.101200
     53 HBA        -3.8330    0.1000    1.8690 hc        1 BD7      0.101200
     54 HA         -3.7010   -3.0060    1.5880 hx        1 BD7      0.184700
     55 HNBC       -7.0120   -1.9400    0.4020 hn        1 BD7      0.508800
     56 HOAF       -7.0410   -2.8660    2.4330 ho        1 BD7      0.525000
     57 HN         -1.6170   -1.6930    0.9150 hn        1 BD7      0.503800
     58 HBS         0.0060   -2.6770   -0.9300 hx        1 BD7      0.156700
     59 HBAA       -2.3880   -2.0450   -2.8000 hc        1 BD7      0.088700
     60 HBAB       -1.0970   -0.9590   -2.0910 hc        1 BD7      0.088700
     61 HAP        -2.2590   -2.2070   -5.0880 ha        1 BD7      0.138000
     62 HAL        -0.9650   -2.0840   -7.2040 ha        1 BD7      0.180500
     63 HAI         1.5210   -1.8010   -7.1440 ha        1 BD7      0.192000
     64 HAM         2.7110   -1.6900   -4.9480 ha        1 BD7      0.180500
     65 HAQ         1.4290   -1.8170   -2.8210 ha        1 BD7      0.138000
     66 HAA        -1.9620   -4.2720   -3.6940 hx        1 BD7      0.126367
     67 HAAA       -2.4080   -5.3230   -2.2400 hx        1 BD7      0.126367
     68 HAAB       -1.1540   -5.8960   -3.4510 hx        1 BD7      0.126367
     69 HBR         0.9710   -6.4520   -2.8710 hx        1 BD7      0.136700
     70 HAZ        -0.7860   -7.8640   -2.0020 hc        1 BD7      0.098700
     71 HAZA       -0.2160   -7.7150   -0.2740 hc        1 BD7      0.098700
     72 HAW         2.1750   -9.0960    0.4570 h4        1 BD7      0.052100
     73 HAV         2.1010  -11.7830   -2.8360 h5        1 BD7      0.120100
     74 HNBB        0.3470   -9.9260   -3.2940 hn        1 BD7      0.324700
     75 HNBD        2.7790   -7.3780   -1.6150 hn        1 BD7      0.502800
     76 HAX         5.1510   -3.5630   -1.1110 h1        1 BD7      0.085700
     77 HAXA        4.9480   -3.9040   -2.9350 h1        1 BD7      0.085700
     78 HAN         6.5450   -5.3770   -4.1060 ha        1 BD7      0.139000
     79 HAJ         8.8310   -6.3680   -4.1610 ha        1 BD7      0.177500
     80 HAH        10.1980   -6.4860   -2.0730 ha        1 BD7      0.183000
     81 HAK         9.2770   -5.6140    0.0810 ha        1 BD7      0.177500
     82 HAO         6.9930   -4.6200    0.1520 ha        1 BD7      0.139000
     83 HBC2       -6.3940   -0.8190    1.5270 hn        1 BD7      0.508800
     84 H2         -2.4910   -1.1260   -0.4120 hn        1 BD7      0.503800
     85 HBT1        0.2640   -4.0470   -2.8170 hn        1 BD7      0.523800
     86 HBD2        2.3030   -6.6460   -0.2000 hn        1 BD7      0.502800
@<TRIPOS>BOND
     1    1    2 ar  
     2    1    7 ar  
     3    1   47 1   
     4    2    3 ar  
     5    2   48 1   
     6    3    4 1   
     7    3    5 ar  
     8    4   49 1   
     9    5    6 ar  
    10    5   50 1   
    11    6    7 ar  
    12    6   51 1   
    13    7    8 1   
    14    8    9 1   
    15    8   52 1   
    16    8   53 1   
    17    9   10 1   
    18    9   14 1   
    19    9   54 1   
    20   10   11 2   
    21   10   12 1   
    22   12   13 1   
    23   12   55 1   
    24   12   83 1   
    25   13   56 1   
    26   14   15 1   
    27   14   57 1   
    28   14   84 1   
    29   15   16 2   
    30   15   17 1   
    31   17   18 1   
    32   17   25 1   
    33   17   58 1   
    34   18   19 1   
    35   18   59 1   
    36   18   60 1   
    37   19   20 ar  
    38   19   24 ar  
    39   20   21 ar  
    40   20   61 1   
    41   21   22 ar  
    42   21   62 1   
    43   22   23 ar  
    44   22   63 1   
    45   23   24 ar  
    46   23   64 1   
    47   24   65 1   
    48   25   26 1   
    49   25   27 1   
    50   25   85 1   
    51   26   66 1   
    52   26   67 1   
    53   26   68 1   
    54   27   28 2   
    55   27   29 1   
    56   29   30 1   
    57   29   36 1   
    58   29   69 1   
    59   30   31 1   
    60   30   70 1   
    61   30   71 1   
    62   31   32 2   
    63   31   35 1   
    64   32   33 1   
    65   32   72 1   
    66   33   34 2   
    67   34   35 1   
    68   34   73 1   
    69   35   74 1   
    70   36   37 1   
    71   36   75 1   
    72   36   86 1   
    73   37   38 2   
    74   37   39 1   
    75   39   40 1   
    76   40   41 1   
    77   40   76 1   
    78   40   77 1   
    79   41   42 ar  
    80   41   46 ar  
    81   42   43 ar  
    82   42   78 1   
    83   43   44 ar  
    84   43   79 1   
    85   44   45 ar  
    86   44   80 1   
    87   45   46 ar  
    88   45   81 1   
    89   46   82 1   
@<TRIPOS>SUBSTRUCTURE
     1 BD7         1 TEMP              0 ****  ****    0 ROOT
