@<TRIPOS>MOLECULE
BDC
  112   117     1     0     0
SMALL
bcc


@<TRIPOS>ATOM
      1 C5         -2.0340    1.7420   -0.5740 ca        1 BDC     -0.231300
      2 C6         -1.1410    2.7850   -0.5040 ca        1 BDC     -0.039000
      3 C7         -0.1530    2.8100    0.5030 ca        1 BDC     -0.140000
      4 C8         -0.1200    1.8280    1.4660 ca        1 BDC     -0.076500
      5 C9         -1.1550   -0.2230    2.5220 ca        1 BDC      0.347600
      6 C1         -1.7250   -2.6340    2.9530 ca        1 BDC      0.034000
      7 C2         -2.4410   -3.7820    2.6450 ca        1 BDC     -0.207000
      8 C3         -3.3100   -3.7950    1.5570 ca        1 BDC      0.058500
      9 C4         -3.4640   -2.6630    0.7430 ca        1 BDC     -0.339400
     10 C14        -1.9920    0.6820    0.3850 ca        1 BDC      0.517100
     11 C13        -1.0730    0.7760    1.4800 ca        1 BDC     -0.239800
     12 C11        -1.8570   -1.4580    2.1940 ca        1 BDC     -0.294800
     13 C12        -2.7140   -1.4570    1.0320 ca        1 BDC      0.557600
     14 N10        -2.8230   -0.3960    0.2150 nb        1 BDC     -0.885500
     15 N9         -0.6780   -0.0620    3.7750 nu        1 BDC     -0.694600
     16 CD1        -4.3410   -2.8200   -0.3950 c         1 BDC      0.598700
     17 OD1        -4.8240   -3.8660   -0.8410 o         1 BDC     -0.545100
     18 CE1        -0.0370    1.1020    4.3470 c3        1 BDC      0.188300
     19 CE3         0.7350    2.2750    6.4050 c3        1 BDC     -0.078400
     20 CE2        -0.0850    1.1130    5.8790 c3        1 BDC     -0.099400
     21 CE4         0.7770    2.2680    7.9210 c3        1 BDC     -0.079400
     22 ND1        -4.7500   -1.5790   -1.1680 ny        1 BDC     -0.710800
     23 CD2        -4.9360   -1.8230   -2.6150 c3        1 BDC      0.101300
     24 CD3        -6.2820   -2.4980   -2.9670 c3        1 BDC      0.081800
     25 ND2        -6.1880   -3.4490   -4.1200 nx        1 BDC     -0.674400
     26 CD7        -7.5180   -3.5950   -4.7830 c3        1 BDC      0.078850
     27 CD8        -5.6780   -4.7820   -3.6880 c3        1 BDC      0.078850
     28 CF4         1.6700    3.3730    8.4490 c3        1 BDC     -0.079400
     29 CF3         1.7700    3.3190    9.9610 c3        1 BDC     -0.078400
     30 CF2         2.7370    4.3660   10.4800 c3        1 BDC     -0.099400
     31 CF1         2.8800    4.2250   11.9990 c3        1 BDC      0.188300
     32 N9'         3.8970    5.0930   12.5500 nu        1 BDC     -0.694600
     33 C5'         2.1920    5.6550   17.1090 ca        1 BDC     -0.231300
     34 C6'         1.3850    4.5460   17.0230 ca        1 BDC     -0.039000
     35 C7'         1.5110    3.6570   15.9340 ca        1 BDC     -0.140000
     36 C8'         2.3910    3.9320   14.9140 ca        1 BDC     -0.076500
     37 C9'         4.0430    5.5080   13.8270 ca        1 BDC      0.347600
     38 C1'         6.1860    6.7050   13.2800 ca        1 BDC      0.034000
     39 C2'         7.1320    7.6810   13.5580 ca        1 BDC     -0.207000
     40 C3'         7.0220    8.4530   14.7110 ca        1 BDC      0.058500
     41 C4'         5.9910    8.2250   15.6340 ca        1 BDC     -0.339400
     42 CE'         3.1530    5.9380   16.0870 ca        1 BDC      0.517100
     43 CD'         3.1850    5.1080   14.9190 ca        1 BDC     -0.239800
     44 CB'         5.0930    6.4710   14.1330 ca        1 BDC     -0.294800
     45 CC'         4.9960    7.2040   15.3740 ca        1 BDC      0.557600
     46 NA'         4.0230    6.9810   16.2720 nb        1 BDC     -0.885500
     47 CB1         5.9930    9.0740   16.8040 c         1 BDC      0.598700
     48 O1X         6.5990   10.1360   16.9760 o         1 BDC     -0.545100
     49 NB1         5.1730    8.6340   18.0070 ny        1 BDC     -0.710800
     50 CB2         4.7250    9.7540   18.8630 c3        1 BDC      0.101300
     51 CB3         5.8260   10.2930   19.8040 c3        1 BDC      0.081800
     52 NB2         5.7090   11.7610   20.0740 nx        1 BDC     -0.674400
     53 CB7         6.3290   12.5660   18.9820 c3        1 BDC      0.078850
     54 CB8         6.3360   12.1010   21.3860 c3        1 BDC      0.078850
     55 H5         -2.7810    1.7090   -1.3810 ha        1 BDC      0.140000
     56 H6         -1.1760    3.6000   -1.2470 ha        1 BDC      0.165500
     57 H7          0.5970    3.6180    0.5020 ha        1 BDC      0.166000
     58 H8          0.7030    1.8450    2.1960 ha        1 BDC      0.146000
     59 H1         -1.0220   -2.6920    3.8030 ha        1 BDC      0.150000
     60 H2         -2.3190   -4.6920    3.2570 ha        1 BDC      0.180000
     61 H3         -3.8790   -4.7140    1.3220 ha        1 BDC      0.172500
     62 H9         -0.8000   -0.8200    4.4180 hn        1 BDC      0.450300
     63 HE11       -0.5430    2.0330    3.9580 h1        1 BDC      0.075950
     64 HE12        1.0470    1.1110    4.0280 h1        1 BDC      0.075950
     65 HE31        0.2940    3.2430    6.0460 hc        1 BDC      0.052200
     66 HE32        1.7800    2.2130    6.0030 hc        1 BDC      0.052200
     67 HE21       -1.1450    1.2060    6.2320 hc        1 BDC      0.060200
     68 HE22        0.3280    0.1530    6.2890 hc        1 BDC      0.060200
     69 HE41       -0.2600    2.3940    8.3280 hc        1 BDC      0.049200
     70 HE42        1.1580    1.2750    8.2800 hc        1 BDC      0.049200
     71 HD1        -3.9680   -0.8380   -0.9950 hn        1 BDC      0.498050
     72 HD21       -4.0610   -2.4460   -2.9620 hx        1 BDC      0.115950
     73 HD22       -4.8860   -0.8220   -3.1390 hx        1 BDC      0.115950
     74 HD31       -6.6900   -3.0820   -2.0880 hx        1 BDC      0.127200
     75 HD32       -7.0290   -1.6940   -3.2380 hx        1 BDC      0.127200
     76 HD71       -7.4280   -4.3470   -5.6150 hx        1 BDC      0.118450
     77 HD72       -8.2750   -3.9540   -4.0350 hx        1 BDC      0.118450
     78 HD73       -7.8390   -2.6050   -5.2070 hx        1 BDC      0.118450
     79 HD81       -6.4460   -5.2880   -3.0410 hx        1 BDC      0.118450
     80 HD82       -4.7320   -4.6510   -3.0950 hx        1 BDC      0.118450
     81 HD83       -5.4800   -5.4110   -4.5980 hx        1 BDC      0.118450
     82 H4'1        2.6950    3.2720    8.0020 hc        1 BDC      0.049200
     83 H4'2        1.2650    4.3700    8.1330 hc        1 BDC      0.049200
     84 H3'1        2.1150    2.2980   10.2760 hc        1 BDC      0.052200
     85 H3'2        0.7560    3.4840   10.4120 hc        1 BDC      0.052200
     86 H2'1        2.3610    5.3910   10.2210 hc        1 BDC      0.060200
     87 H2'2        3.7320    4.2320    9.9790 hc        1 BDC      0.060200
     88 H1'1        1.8890    4.4600   12.4850 h1        1 BDC      0.075950
     89 H1'2        3.1580    3.1530   12.2280 h1        1 BDC      0.075950
     90 H9'         4.5450    5.4450   11.8720 hn        1 BDC      0.450300
     91 H7'         0.9050    2.7360   15.9180 ha        1 BDC      0.166000
     92 H8'         2.5090    3.1830   14.1170 ha        1 BDC      0.146000
     93 H1'         6.3430    6.0980   12.3700 ha        1 BDC      0.150000
     94 H2'         7.9760    7.8480   12.8680 ha        1 BDC      0.180000
     95 H3'         7.7650    9.2480   14.9110 ha        1 BDC      0.172500
     96 HD1'        4.3290    8.0800   17.6130 hn        1 BDC      0.498050
     97 H'21        3.8600    9.3820   19.4890 hx        1 BDC      0.115950
     98 H'22        4.3410   10.5650   18.1760 hx        1 BDC      0.115950
     99 H'31        5.7570    9.7480   20.7920 hx        1 BDC      0.127200
    100 H'32        6.8560   10.1160   19.3700 hx        1 BDC      0.127200
    101 H'71        7.4460   12.4460   19.0130 hx        1 BDC      0.118450
    102 H'72        6.0640   13.6490   19.1300 hx        1 BDC      0.118450
    103 H'73        5.9500   12.2080   17.9860 hx        1 BDC      0.118450
    104 H'81        7.4120   11.7800   21.3840 hx        1 BDC      0.118450
    105 H'82        5.7840   11.5810   22.2150 hx        1 BDC      0.118450
    106 H'83        6.2780   13.2140   21.5380 hx        1 BDC      0.118450
    107 H5'         2.1140    6.3290   17.9750 ha        1 BDC      0.140000
    108 HD13       -5.6110   -1.2140   -0.7540 hn        1 BDC      0.498050
    109 HD23       -5.5300   -3.0620   -4.8120 hn        1 BDC      0.453800
    110 HB12        5.7370    7.9740   18.5490 hn        1 BDC      0.498050
    111 HB21        4.7100   12.0070   20.1280 hn        1 BDC      0.453800
    112 H6'         0.6460    4.3300   17.8140 ha        1 BDC      0.165500
@<TRIPOS>BOND
     1    1    2 ar  
     2    1   10 ar  
     3    1   55 1   
     4    2    3 ar  
     5    2   56 1   
     6    3    4 ar  
     7    3   57 1   
     8    4   11 ar  
     9    4   58 1   
    10    5   11 ar  
    11    5   12 ar  
    12    5   15 1   
    13    6    7 ar  
    14    6   12 ar  
    15    6   59 1   
    16    7    8 ar  
    17    7   60 1   
    18    8    9 ar  
    19    8   61 1   
    20    9   13 ar  
    21    9   16 1   
    22   10   11 ar  
    23   10   14 ar  
    24   12   13 ar  
    25   13   14 ar  
    26   15   18 1   
    27   15   62 1   
    28   16   17 2   
    29   16   22 1   
    30   18   20 1   
    31   18   63 1   
    32   18   64 1   
    33   19   20 1   
    34   19   21 1   
    35   19   65 1   
    36   19   66 1   
    37   20   67 1   
    38   20   68 1   
    39   21   28 1   
    40   21   69 1   
    41   21   70 1   
    42   22   23 1   
    43   22   71 1   
    44   22  108 1   
    45   23   24 1   
    46   23   72 1   
    47   23   73 1   
    48   24   25 1   
    49   24   74 1   
    50   24   75 1   
    51   25   26 1   
    52   25   27 1   
    53   25  109 1   
    54   26   76 1   
    55   26   77 1   
    56   26   78 1   
    57   27   79 1   
    58   27   80 1   
    59   27   81 1   
    60   28   29 1   
    61   28   82 1   
    62   28   83 1   
    63   29   30 1   
    64   29   84 1   
    65   29   85 1   
    66   30   31 1   
    67   30   86 1   
    68   30   87 1   
    69   31   32 1   
    70   31   88 1   
    71   31   89 1   
    72   32   37 1   
    73   32   90 1   
    74   33   34 ar  
    75   33   42 ar  
    76   33  107 1   
    77   34   35 ar  
    78   34  112 1   
    79   35   36 ar  
    80   35   91 1   
    81   36   43 ar  
    82   36   92 1   
    83   37   43 ar  
    84   37   44 ar  
    85   38   39 ar  
    86   38   44 ar  
    87   38   93 1   
    88   39   40 ar  
    89   39   94 1   
    90   40   41 ar  
    91   40   95 1   
    92   41   45 ar  
    93   41   47 1   
    94   42   43 ar  
    95   42   46 ar  
    96   44   45 ar  
    97   45   46 ar  
    98   47   48 2   
    99   47   49 1   
   100   49   50 1   
   101   49   96 1   
   102   49  110 1   
   103   50   51 1   
   104   50   97 1   
   105   50   98 1   
   106   51   52 1   
   107   51   99 1   
   108   51  100 1   
   109   52   53 1   
   110   52   54 1   
   111   52  111 1   
   112   53  101 1   
   113   53  102 1   
   114   53  103 1   
   115   54  104 1   
   116   54  105 1   
   117   54  106 1   
@<TRIPOS>SUBSTRUCTURE
     1 BDC         1 TEMP              0 ****  ****    0 ROOT
