@<TRIPOS>MOLECULE
BDC
  114   119     1     0     0
SMALL
bcc


@<TRIPOS>ATOM
      1 C5         -0.0840   -2.3640    0.2090 ca        1 BDC     -0.176800
      2 C6          1.1100   -2.6960    0.7760 ca        1 BDC     -0.060000
      3 C7          1.3940   -2.3450    2.1300 ca        1 BDC     -0.018500
      4 C8          0.4730   -1.6710    2.8840 ca        1 BDC     -0.187500
      5 C9         -1.8100   -0.6410    3.0740 ca        1 BDC      0.022600
      6 C1         -4.0860    0.4390    3.0990 ca        1 BDC     -0.086500
      7 C2         -5.2320    0.7780    2.4370 ca        1 BDC     -0.091500
      8 C3         -5.3940    0.4610    1.0610 ca        1 BDC      0.029500
      9 C4         -4.4130   -0.2360    0.3890 ca        1 BDC     -0.255900
     10 C14        -1.0920   -1.6520    0.9650 ca        1 BDC      0.467100
     11 C13        -0.7990   -1.3060    2.3470 ca        1 BDC     -0.087800
     12 C11        -3.0300   -0.2710    2.4480 ca        1 BDC     -0.121300
     13 C12        -3.1970   -0.6460    1.0640 ca        1 BDC      0.451100
     14 N10        -2.2630   -1.3390    0.3730 nb        1 BDC     -0.714500
     15 N9         -1.6120   -0.3900    4.5090 n4        1 BDC     -0.644400
     16 CD1        -4.5860   -0.3980   -1.0620 c         1 BDC      0.590200
     17 OD1        -4.9200    0.4450   -1.8740 o         1 BDC     -0.400600
     18 CE1        -0.8690    0.8840    4.8160 c3        1 BDC      0.106800
     19 CE3         0.1900    2.3150    6.5740 c3        1 BDC     -0.075900
     20 CE2        -0.5820    1.0320    6.3100 c3        1 BDC     -0.111900
     21 CE4         0.5070    2.4630    8.0530 c3        1 BDC     -0.079400
     22 ND1        -4.3550   -1.8050   -1.6440 n4        1 BDC     -0.666300
     23 CD2        -5.2340   -2.0600   -2.8200 c3        1 BDC      0.079800
     24 CD3        -4.9020   -3.3720   -3.5610 c3        1 BDC      0.080300
     25 ND2        -5.7940   -3.6250   -4.7370 n4        1 BDC     -0.675400
     26 CD7        -5.7210   -5.0670   -5.1350 c3        1 BDC      0.075850
     27 CD8        -5.4490   -2.7570   -5.9000 c3        1 BDC      0.075850
     28 CF4         1.2790    3.7400    8.3290 c3        1 BDC     -0.079400
     29 CF3         1.6160    3.8840    9.8050 c3        1 BDC     -0.075900
     30 CF2         2.3900    5.1690   10.0540 c3        1 BDC     -0.111900
     31 CF1         2.7540    5.3000   11.5330 c3        1 BDC      0.106800
     32 N9'         3.5470    6.5510   11.8010 n4        1 BDC     -0.644400
     33 C5'         7.0830    5.7690   15.2060 ca        1 BDC     -0.176800
     34 C6'         7.7530    4.9580   14.3400 ca        1 BDC     -0.060000
     35 C7'         7.2190    4.6760   13.0460 ca        1 BDC     -0.018500
     36 C8'         6.0240    5.2140   12.6540 ca        1 BDC     -0.187500
     37 C9'         4.0540    6.6840   13.1750 ca        1 BDC      0.022600
     38 C1'         2.0630    8.0460   13.8760 ca        1 BDC     -0.086500
     39 C2'         1.4740    8.8840   14.7810 ca        1 BDC     -0.091500
     40 C3'         2.1490    9.2390   15.9770 ca        1 BDC      0.029500
     41 C4'         3.3830    8.6930   16.2850 ca        1 BDC     -0.255900
     42 CE'         5.8210    6.3710   14.8340 ca        1 BDC      0.467100
     43 CD'         5.2810    6.0750   13.5170 ca        1 BDC     -0.087800
     44 CB'         3.3580    7.4910   14.1130 ca        1 BDC     -0.121300
     45 CC'         4.0160    7.7600   15.3710 ca        1 BDC      0.451100
     46 NA'         5.2020    7.2000   15.7000 nb        1 BDC     -0.714500
     47 CB1         4.0010    9.2100   17.5140 c         1 BDC      0.590200
     48 O1X         3.8000   10.3090   18.0150 o         1 BDC     -0.400600
     49 NB1         4.9580    8.3290   18.3050 n4        1 BDC     -0.666300
     50 CB2         5.0600    8.6890   19.7520 c3        1 BDC      0.079800
     51 CB3         5.9480    9.9250   20.0240 c3        1 BDC      0.080300
     52 NB2         6.0870   10.2470   21.4790 n4        1 BDC     -0.675400
     53 CB7         4.8530   10.8760   22.0330 c3        1 BDC      0.075850
     54 CB8         7.2610   11.1520   21.6910 c3        1 BDC      0.075850
     55 H5         -0.2950   -2.6220   -0.8420 ha        1 BDC      0.167500
     56 H6          1.8820   -3.2380    0.1970 ha        1 BDC      0.198500
     57 H7          2.3770   -2.6260    2.5530 ha        1 BDC      0.191500
     58 H8          0.7430   -1.4010    3.9160 ha        1 BDC      0.137500
     59 H1         -3.9900    0.7480    4.1540 ha        1 BDC      0.149500
     60 H2         -6.0480    1.3250    2.9490 ha        1 BDC      0.203500
     61 H3         -6.3120    0.8040    0.5440 ha        1 BDC      0.197500
     62 H9         -2.5260   -0.3660    4.9800 hn        1 BDC      0.466050
     63 HE11        0.0960    0.8650    4.2310 hx        1 BDC      0.114450
     64 HE12       -1.4970    1.7440    4.4470 hx        1 BDC      0.114450
     65 HE31       -0.4130    3.1970    6.2300 hc        1 BDC      0.062200
     66 HE32        1.1450    2.3090    5.9860 hc        1 BDC      0.062200
     67 HE21       -1.5430    1.0540    6.8910 hc        1 BDC      0.072200
     68 HE22        0.0210    0.1590    6.6780 hc        1 BDC      0.072200
     69 HE41       -0.4480    2.4680    8.6430 hc        1 BDC      0.056200
     70 HE42        1.1080    1.5800    8.3980 hc        1 BDC      0.056200
     71 HD1        -4.5240   -2.5010   -0.9090 hn        1 BDC      0.479550
     72 HD21       -6.3020   -2.0790   -2.4480 hx        1 BDC      0.132450
     73 HD22       -5.1240   -1.1780   -3.5260 hx        1 BDC      0.132450
     74 HD31       -3.8380   -3.3520   -3.9400 hx        1 BDC      0.126700
     75 HD32       -5.0130   -4.2480   -2.8540 hx        1 BDC      0.126700
     76 HD71       -4.6660   -5.3310   -5.4160 hx        1 BDC      0.124617
     77 HD72       -6.0700   -5.7140   -4.2860 hx        1 BDC      0.124617
     78 HD73       -6.3940   -5.2290   -6.0260 hx        1 BDC      0.124617
     79 HD81       -6.1740   -2.9670   -6.7390 hx        1 BDC      0.124617
     80 HD82       -4.4080   -2.9880   -6.2550 hx        1 BDC      0.124617
     81 HD83       -5.5290   -1.6770   -5.6080 hx        1 BDC      0.124617
     82 H4'1        0.6710    4.6230    7.9970 hc        1 BDC      0.056200
     83 H4'2        2.2270    3.7400    7.7280 hc        1 BDC      0.056200
     84 H3'1        0.6700    3.8890   10.4080 hc        1 BDC      0.062200
     85 H3'2        2.2250    3.0030   10.1380 hc        1 BDC      0.062200
     86 H2'1        1.7650    6.0430    9.7290 hc        1 BDC      0.072200
     87 H2'2        3.3210    5.1620    9.4260 hc        1 BDC      0.072200
     88 H1'1        1.8230    5.3410   12.1680 hx        1 BDC      0.114450
     89 H1'2        3.3780    4.4210   11.8640 hx        1 BDC      0.114450
     90 H9'         2.9660    7.3700   11.5760 hn        1 BDC      0.466050
     91 H7'         7.7910    4.0110   12.3720 ha        1 BDC      0.191500
     92 H8'         5.6390    4.9560   11.6550 ha        1 BDC      0.137500
     93 H1'         1.5010    7.7880   12.9630 ha        1 BDC      0.149500
     94 H2'         0.4690    9.3120   14.5960 ha        1 BDC      0.203500
     95 H3'         1.6670    9.9720   16.6570 ha        1 BDC      0.197500
     96 HD1'        5.8870    8.3830   17.8600 hn        1 BDC      0.479550
     97 H'21        5.4790    7.7860   20.2890 hx        1 BDC      0.132450
     98 H'22        4.0110    8.8810   20.1290 hx        1 BDC      0.132450
     99 H'31        5.5100   10.8340   19.5110 hx        1 BDC      0.126700
    100 H'32        6.9860    9.7450   19.6130 hx        1 BDC      0.126700
    101 H'71        4.6550   11.8530   21.5120 hx        1 BDC      0.124617
    102 H'72        3.9810   10.1840   21.9000 hx        1 BDC      0.124617
    103 H'73        5.0060   11.0730   23.1330 hx        1 BDC      0.124617
    104 H'81        8.2020   10.6370   21.3580 hx        1 BDC      0.124617
    105 H'82        7.3380   11.3920   22.7900 hx        1 BDC      0.124617
    106 H'83        7.1150   12.1050   21.1130 hx        1 BDC      0.124617
    107 H5'         7.4970    5.9820   16.2050 ha        1 BDC      0.167500
    108 H92        -1.0830   -1.1830    4.9040 hn        1 BDC      0.466050
    109 HD13       -3.3650   -1.8680   -1.9230 hn        1 BDC      0.479550
    110 HD23       -6.7680   -3.4240   -4.4630 hn        1 BDC      0.461300
    111 H9'2        4.3590    6.5670   11.1620 hn        1 BDC      0.466050
    112 HB12        4.6320    7.3530   18.2390 hn        1 BDC      0.479550
    113 HB21        6.2650    9.3750   21.9990 hn        1 BDC      0.461300
    114 H6'         8.7230    4.5030   14.6230 ha        1 BDC      0.198500
@<TRIPOS>BOND
     1    1    2 ar  
     2    1   10 ar  
     3    1   55 1   
     4    2    3 ar  
     5    2   56 1   
     6    3    4 ar  
     7    3   57 1   
     8    4   11 ar  
     9    4   58 1   
    10    5   11 ar  
    11    5   12 ar  
    12    5   15 1   
    13    6    7 ar  
    14    6   12 ar  
    15    6   59 1   
    16    7    8 ar  
    17    7   60 1   
    18    8    9 ar  
    19    8   61 1   
    20    9   13 ar  
    21    9   16 1   
    22   10   11 ar  
    23   10   14 ar  
    24   12   13 ar  
    25   13   14 ar  
    26   15   18 1   
    27   15   62 1   
    28   15  108 1   
    29   16   17 2   
    30   16   22 1   
    31   18   20 1   
    32   18   63 1   
    33   18   64 1   
    34   19   20 1   
    35   19   21 1   
    36   19   65 1   
    37   19   66 1   
    38   20   67 1   
    39   20   68 1   
    40   21   28 1   
    41   21   69 1   
    42   21   70 1   
    43   22   23 1   
    44   22   71 1   
    45   22  109 1   
    46   23   24 1   
    47   23   72 1   
    48   23   73 1   
    49   24   25 1   
    50   24   74 1   
    51   24   75 1   
    52   25   26 1   
    53   25   27 1   
    54   25  110 1   
    55   26   76 1   
    56   26   77 1   
    57   26   78 1   
    58   27   79 1   
    59   27   80 1   
    60   27   81 1   
    61   28   29 1   
    62   28   82 1   
    63   28   83 1   
    64   29   30 1   
    65   29   84 1   
    66   29   85 1   
    67   30   31 1   
    68   30   86 1   
    69   30   87 1   
    70   31   32 1   
    71   31   88 1   
    72   31   89 1   
    73   32   37 1   
    74   32   90 1   
    75   32  111 1   
    76   33   34 ar  
    77   33   42 ar  
    78   33  107 1   
    79   34   35 ar  
    80   34  114 1   
    81   35   36 ar  
    82   35   91 1   
    83   36   43 ar  
    84   36   92 1   
    85   37   43 ar  
    86   37   44 ar  
    87   38   39 ar  
    88   38   44 ar  
    89   38   93 1   
    90   39   40 ar  
    91   39   94 1   
    92   40   41 ar  
    93   40   95 1   
    94   41   45 ar  
    95   41   47 1   
    96   42   43 ar  
    97   42   46 ar  
    98   44   45 ar  
    99   45   46 ar  
   100   47   48 2   
   101   47   49 1   
   102   49   50 1   
   103   49   96 1   
   104   49  112 1   
   105   50   51 1   
   106   50   97 1   
   107   50   98 1   
   108   51   52 1   
   109   51   99 1   
   110   51  100 1   
   111   52   53 1   
   112   52   54 1   
   113   52  113 1   
   114   53  101 1   
   115   53  102 1   
   116   53  103 1   
   117   54  104 1   
   118   54  105 1   
   119   54  106 1   
@<TRIPOS>SUBSTRUCTURE
     1 BDC         1 TEMP              0 ****  ****    0 ROOT
