@<TRIPOS>MOLECULE
BDC
  112   117     1     0     0
SMALL
bcc


@<TRIPOS>ATOM
      1 C5         -2.0570    1.7620   -0.5690 ca        1 BDC     -0.231300
      2 C6         -1.1610    2.8020   -0.5000 ca        1 BDC     -0.039000
      3 C7         -0.1710    2.8230    0.5060 ca        1 BDC     -0.140000
      4 C8         -0.1390    1.8400    1.4670 ca        1 BDC     -0.076500
      5 C9         -1.1770   -0.2100    2.5230 ca        1 BDC      0.347600
      6 C1         -1.7530   -2.6200    2.9510 ca        1 BDC      0.034000
      7 C2         -2.4730   -3.7650    2.6430 ca        1 BDC     -0.207000
      8 C3         -3.3430   -3.7750    1.5570 ca        1 BDC      0.058500
      9 C4         -3.4960   -2.6410    0.7440 ca        1 BDC     -0.339400
     10 C14        -2.0160    0.7000    0.3880 ca        1 BDC      0.517100
     11 C13        -1.0940    0.7910    1.4820 ca        1 BDC     -0.239800
     12 C11        -1.8830   -1.4420    2.1940 ca        1 BDC     -0.294800
     13 C12        -2.7420   -1.4370    1.0330 ca        1 BDC      0.557600
     14 N10        -2.8490   -0.3750    0.2180 nb        1 BDC     -0.885500
     15 N9         -0.6980   -0.0510    3.7750 nh        1 BDC     -0.694600
     16 CD1        -4.3750   -2.7950   -0.3930 c         1 BDC      0.598700
     17 OD1        -4.8620   -3.8390   -0.8390 o         1 BDC     -0.545100
     18 CE1        -0.0530    1.1100    4.3470 c3        1 BDC      0.188300
     19 CE3         0.7270    2.2770    6.4060 c3        1 BDC     -0.078400
     20 CE2        -0.0980    1.1190    5.8790 c3        1 BDC     -0.099400
     21 CE4         0.7700    2.2690    7.9210 c3        1 BDC     -0.079400
     22 ND1        -4.7810   -1.5520   -1.1650 n4        1 BDC     -0.710800
     23 CD2        -4.9690   -1.7930   -2.6110 c3        1 BDC      0.101300
     24 CD3        -6.3160   -2.4650   -2.9640 c3        1 BDC      0.081800
     25 ND2        -6.2260   -3.4140   -4.1180 n4        1 BDC     -0.674400
     26 CD7        -7.5560   -3.5540   -4.7810 c3        1 BDC      0.078850
     27 CD8        -5.7200   -4.7490   -3.6880 c3        1 BDC      0.078850
     28 CF4         1.6710    3.3680    8.4500 c3        1 BDC     -0.079400
     29 CF3         1.7680    3.3150    9.9620 c3        1 BDC     -0.078400
     30 CF2         2.7440    4.3530   10.4810 c3        1 BDC     -0.099400
     31 CF1         2.8830    4.2130   12.0010 c3        1 BDC      0.188300
     32 N9'         3.9080    5.0720   12.5520 nh        1 BDC     -0.694600
     33 C5'         2.1980    5.6600   17.1060 ca        1 BDC     -0.231300
     34 C6'         1.3790    4.5600   17.0200 ca        1 BDC     -0.039000
     35 C7'         1.4990    3.6670   15.9340 ca        1 BDC     -0.140000
     36 C8'         2.3840    3.9310   14.9150 ca        1 BDC     -0.076500
     37 C9'         4.0550    5.4870   13.8290 ca        1 BDC      0.347600
     38 C1'         6.2120    6.6610   13.2840 ca        1 BDC      0.034000
     39 C2'         7.1670    7.6280   13.5620 ca        1 BDC     -0.207000
     40 C3'         7.0620    8.4030   14.7140 ca        1 BDC      0.058500
     41 C4'         6.0270    8.1880   15.6350 ca        1 BDC     -0.339400
     42 CE'         3.1640    5.9320   16.0850 ca        1 BDC      0.517100
     43 CD'         3.1900    5.0990   14.9190 ca        1 BDC     -0.239800
     44 CB'         5.1140    6.4400   14.1350 ca        1 BDC     -0.294800
     45 CC'         5.0220    7.1760   15.3750 ca        1 BDC      0.557600
     46 NA'         4.0440    6.9660   16.2700 nb        1 BDC     -0.885500
     47 CB1         6.0350    9.0390   16.8030 c         1 BDC      0.598700
     48 O1X         6.6510   10.0950   16.9740 o         1 BDC     -0.545100
     49 NB1         5.2080    8.6110   18.0050 n4        1 BDC     -0.710800
     50 CB2         4.7690    9.7360   18.8570 c3        1 BDC      0.101300
     51 CB3         5.8730   10.2670   19.8000 c3        1 BDC      0.081800
     52 NB2         5.7710   11.7360   20.0670 n4        1 BDC     -0.674400
     53 CB7         6.4010   12.5330   18.9740 c3        1 BDC      0.078850
     54 CB8         6.3980   12.0720   21.3790 c3        1 BDC      0.078850
     55 H5         -2.8050    1.7320   -1.3750 ha        1 BDC      0.140000
     56 H6         -1.1940    3.6180   -1.2420 ha        1 BDC      0.165500
     57 H7          0.5810    3.6290    0.5050 ha        1 BDC      0.166000
     58 H8          0.6850    1.8530    2.1950 ha        1 BDC      0.146000
     59 H1         -1.0500   -2.6800    3.8000 ha        1 BDC      0.150000
     60 H2         -2.3530   -4.6760    3.2540 ha        1 BDC      0.180000
     61 H3         -3.9160   -4.6920    1.3220 ha        1 BDC      0.172500
     62 H9         -0.8210   -0.8100    4.4170 hn        1 BDC      0.450300
     63 HE11       -0.5570    2.0430    3.9600 h1        1 BDC      0.075950
     64 HE12        1.0310    1.1160    4.0260 h1        1 BDC      0.075950
     65 HE31        0.2920    3.2470    6.0470 hc        1 BDC      0.052200
     66 HE32        1.7730    2.2100    6.0030 hc        1 BDC      0.052200
     67 HE21       -1.1580    1.2170    6.2340 hc        1 BDC      0.060200
     68 HE22        0.3100    0.1570    6.2880 hc        1 BDC      0.060200
     69 HE41        1.1440    1.2740    8.2800 hc        1 BDC      0.049200
     70 HE42       -0.2670    2.4020    8.3290 hc        1 BDC      0.049200
     71 HD1        -3.9970   -0.8130   -0.9910 hn        1 BDC      0.498050
     72 HD21       -4.9150   -0.7920   -3.1340 hx        1 BDC      0.115950
     73 HD22       -4.0950   -2.4190   -2.9600 hx        1 BDC      0.115950
     74 HD31       -6.7250   -3.0480   -2.0850 hx        1 BDC      0.127200
     75 HD32       -7.0610   -1.6580   -3.2330 hx        1 BDC      0.127200
     76 HD71       -8.3140   -3.9120   -4.0340 hx        1 BDC      0.118450
     77 HD72       -7.4690   -4.3060   -5.6140 hx        1 BDC      0.118450
     78 HD73       -7.8740   -2.5630   -5.2040 hx        1 BDC      0.118450
     79 HD81       -4.7750   -4.6220   -3.0940 hx        1 BDC      0.118450
     80 HD82       -5.5230   -5.3770   -4.5990 hx        1 BDC      0.118450
     81 HD83       -6.4900   -5.2540   -3.0430 hx        1 BDC      0.118450
     82 H4'1        2.6950    3.2590    8.0040 hc        1 BDC      0.049200
     83 H4'2        1.2730    4.3670    8.1320 hc        1 BDC      0.049200
     84 H3'1        2.1040    2.2910   10.2780 hc        1 BDC      0.052200
     85 H3'2        0.7550    3.4880   10.4110 hc        1 BDC      0.052200
     86 H2'1        2.3780    5.3800   10.2200 hc        1 BDC      0.060200
     87 H2'2        3.7390    4.2080    9.9820 hc        1 BDC      0.060200
     88 H1'1        1.8930    4.4600   12.4840 h1        1 BDC      0.075950
     89 H1'2        3.1490    3.1390   12.2320 h1        1 BDC      0.075950
     90 H9'         4.5610    5.4150   11.8750 hn        1 BDC      0.450300
     91 H7'         0.8830    2.7530   15.9180 ha        1 BDC      0.166000
     92 H8'         2.4960    3.1790   14.1190 ha        1 BDC      0.146000
     93 H1'         6.3640    6.0510   12.3760 ha        1 BDC      0.150000
     94 H2'         8.0150    7.7840   12.8740 ha        1 BDC      0.180000
     95 H3'         7.8140    9.1910   14.9140 ha        1 BDC      0.172500
     96 HD1'        4.3590    8.0650   17.6100 hn        1 BDC      0.498050
     97 H'21        3.8990    9.3750   19.4820 hx        1 BDC      0.115950
     98 H'22        4.3940   10.5500   18.1680 hx        1 BDC      0.115950
     99 H'31        6.9020   10.0780   19.3690 hx        1 BDC      0.127200
    100 H'32        5.7960    9.7240   20.7890 hx        1 BDC      0.127200
    101 H'71        6.1470   13.6180   19.1200 hx        1 BDC      0.118450
    102 H'72        7.5160   12.4010   19.0080 hx        1 BDC      0.118450
    103 H'73        6.0200   12.1770   17.9790 hx        1 BDC      0.118450
    104 H'81        5.8390   11.5590   22.2080 hx        1 BDC      0.118450
    105 H'82        7.4710   11.7410   21.3810 hx        1 BDC      0.118450
    106 H'83        6.3510   13.1870   21.5290 hx        1 BDC      0.118450
    107 H5'         2.1240    6.3370   17.9700 ha        1 BDC      0.140000
    108 HD13       -5.6410   -1.1850   -0.7490 hn        1 BDC      0.498050
    109 HD23       -5.5670   -3.0280   -4.8100 hn        1 BDC      0.453800
    110 HB12        5.7640    7.9450   18.5490 hn        1 BDC      0.498050
    111 HB21        4.7740   11.9920   20.1180 hn        1 BDC      0.453800
    112 H6'         0.6370    4.3540   17.8100 ha        1 BDC      0.165500
@<TRIPOS>BOND
     1    1    2 ar  
     2    1   10 ar  
     3    1   55 1   
     4    2    3 ar  
     5    2   56 1   
     6    3    4 ar  
     7    3   57 1   
     8    4   11 ar  
     9    4   58 1   
    10    5   11 ar  
    11    5   12 ar  
    12    5   15 1   
    13    6    7 ar  
    14    6   12 ar  
    15    6   59 1   
    16    7    8 ar  
    17    7   60 1   
    18    8    9 ar  
    19    8   61 1   
    20    9   13 ar  
    21    9   16 1   
    22   10   11 ar  
    23   10   14 ar  
    24   12   13 ar  
    25   13   14 ar  
    26   15   18 1   
    27   15   62 1   
    28   16   17 2   
    29   16   22 1   
    30   18   20 1   
    31   18   63 1   
    32   18   64 1   
    33   19   20 1   
    34   19   21 1   
    35   19   65 1   
    36   19   66 1   
    37   20   67 1   
    38   20   68 1   
    39   21   28 1   
    40   21   69 1   
    41   21   70 1   
    42   22   23 1   
    43   22   71 1   
    44   22  108 1   
    45   23   24 1   
    46   23   72 1   
    47   23   73 1   
    48   24   25 1   
    49   24   74 1   
    50   24   75 1   
    51   25   26 1   
    52   25   27 1   
    53   25  109 1   
    54   26   76 1   
    55   26   77 1   
    56   26   78 1   
    57   27   79 1   
    58   27   80 1   
    59   27   81 1   
    60   28   29 1   
    61   28   82 1   
    62   28   83 1   
    63   29   30 1   
    64   29   84 1   
    65   29   85 1   
    66   30   31 1   
    67   30   86 1   
    68   30   87 1   
    69   31   32 1   
    70   31   88 1   
    71   31   89 1   
    72   32   37 1   
    73   32   90 1   
    74   33   34 ar  
    75   33   42 ar  
    76   33  107 1   
    77   34   35 ar  
    78   34  112 1   
    79   35   36 ar  
    80   35   91 1   
    81   36   43 ar  
    82   36   92 1   
    83   37   43 ar  
    84   37   44 ar  
    85   38   39 ar  
    86   38   44 ar  
    87   38   93 1   
    88   39   40 ar  
    89   39   94 1   
    90   40   41 ar  
    91   40   95 1   
    92   41   45 ar  
    93   41   47 1   
    94   42   43 ar  
    95   42   46 ar  
    96   44   45 ar  
    97   45   46 ar  
    98   47   48 2   
    99   47   49 1   
   100   49   50 1   
   101   49   96 1   
   102   49  110 1   
   103   50   51 1   
   104   50   97 1   
   105   50   98 1   
   106   51   52 1   
   107   51   99 1   
   108   51  100 1   
   109   52   53 1   
   110   52   54 1   
   111   52  111 1   
   112   53  101 1   
   113   53  102 1   
   114   53  103 1   
   115   54  104 1   
   116   54  105 1   
   117   54  106 1   
@<TRIPOS>SUBSTRUCTURE
     1 BDC         1 TEMP              0 ****  ****    0 ROOT
