@<TRIPOS>MOLECULE
BDC
  108   100     1     0     0
SMALL
bcc


@<TRIPOS>ATOM
      1 C5          0.7740   -1.8940   -4.3210 c1        1 BDC     -0.055100
      2 C6          1.8090   -1.0730   -3.8470 c1        1 BDC     -0.055100
      3 C7          2.1270   -1.0640   -2.4700 c1        1 BDC     -0.055100
      4 C8          1.4000   -1.8850   -1.5680 c1        1 BDC     -0.055100
      5 C9         -0.3450   -3.5020   -1.1750 c1        1 BDC      0.184800
      6 C1         -2.1120   -5.1580   -0.7590 c1        1 BDC     -0.037500
      7 C2         -3.1220   -5.9720   -1.2330 c1        1 BDC     -0.055100
      8 C3         -3.4400   -5.9800   -2.6090 c1        1 BDC     -0.055100
      9 C4         -2.7500   -5.1870   -3.4700 cg        1 BDC     -0.072200
     10 C14         0.0430   -2.7190   -3.4110 cg        1 BDC      0.377800
     11 C13         0.3590   -2.7090   -2.0480 cg        1 BDC     -0.112000
     12 C11        -1.3890   -4.3270   -1.6560 ch        1 BDC     -0.143000
     13 C12        -1.6930   -4.3340   -2.9780 ch        1 BDC      0.069000
     14 N10        -0.9670   -3.5180   -3.8740 n1        1 BDC     -0.491800
     15 N9         -0.5390   -3.5380    0.2810 n3        1 BDC     -0.716800
     16 CD1        -2.8220   -5.2880   -4.9630 c         1 BDC      0.639300
     17 OD1        -2.1450   -4.5050   -5.6790 o         1 BDC     -0.626100
     18 CE1         0.5230   -4.0820    1.1560 c3        1 BDC      0.185800
     19 CE3         1.5600   -3.9280    3.4550 c3        1 BDC     -0.080400
     20 CE2         0.3180   -3.5600    2.5820 c3        1 BDC     -0.087400
     21 CE4         1.5660   -3.1020    4.6860 c3        1 BDC     -0.082400
     22 ND1        -3.6610   -6.3330   -5.5950 n         1 BDC     -0.532900
     23 CD2        -4.3680   -6.0460   -6.8260 c3        1 BDC      0.091000
     24 CD3        -4.6680   -7.3520   -7.5610 c3        1 BDC      0.145800
     25 ND2        -6.1260   -7.4590   -7.8130 n3        1 BDC     -0.735600
     26 CD7        -6.6830   -8.4730   -6.9700 c3        1 BDC      0.149100
     27 CD8        -6.3500   -7.8090   -9.1960 c3        1 BDC      0.149100
     28 CF4         3.0330   -2.6040    4.9670 c3        1 BDC     -0.079400
     29 CF3         3.0020   -1.4640    6.0260 c3        1 BDC     -0.079400
     30 CF2         3.6880   -0.1610    5.4230 c3        1 BDC     -0.086400
     31 CF1         2.8690    1.0780    5.8310 c3        1 BDC      0.007300
     32 N9'         3.3360    2.2530    5.0770 nh        1 BDC     -0.383100
     33 C5'         0.1950    3.1650    1.4400 c1        1 BDC     -0.064500
     34 C6'        -0.0340    1.7980    1.2550 c1        1 BDC     -0.055100
     35 C7'         0.5250    0.8550    2.1510 c1        1 BDC     -0.055100
     36 C8'         1.3120    1.2930    3.2290 c1        1 BDC     -0.037000
     37 C9'         2.3780    3.1230    4.4390 ce        1 BDC      0.248100
     38 C1'         3.4740    4.9070    5.6660 c1        1 BDC     -0.037000
     39 C2'         3.7200    6.2690    5.8470 c1        1 BDC     -0.055100
     40 C3'         3.1630    7.2100    4.9540 c1        1 BDC     -0.055100
     41 C4'         2.3660    6.7760    3.8890 c1        1 BDC     -0.109000
     42 CE'         1.0030    3.6180    2.5460 cg        1 BDC      0.108000
     43 CD'         1.5500    2.6980    3.4220 cg        1 BDC     -0.159200
     44 CB'         2.6610    4.4640    4.5810 cg        1 BDC     -0.159200
     45 CC'         2.1160    5.3790    3.7080 c1        1 BDC      0.291400
     46 NA'         1.2850    4.9520    2.6880 ne        1 BDC     -0.454400
     47 CB1         2.1570    8.1530    3.2590 c2        1 BDC      0.679300
     48 O1X         2.6830    9.1740    3.7860 o         1 BDC     -0.626300
     49 NB1         1.3030    8.2980    2.0740 n         1 BDC     -0.533900
     50 CB2         1.4010    9.4980    1.2480 c3        1 BDC      0.078000
     51 CB3         0.4160    9.3880    0.0670 c3        1 BDC      0.143800
     52 NB2         0.7960   10.3150   -0.9640 n3        1 BDC     -0.742600
     53 CB7        -0.1880   11.3560   -1.0640 c3        1 BDC      0.160600
     54 CB8         0.8970    9.6040   -2.2490 c3        1 BDC      0.160600
     55 H5          0.5510   -1.9020   -5.2800 ha        1 BDC      0.085500
     56 H6          2.3290   -0.4870   -4.4940 ha        1 BDC      0.085500
     57 H7          2.8230   -0.5130   -2.1500 ha        1 BDC      0.085500
     58 H8          1.6240   -1.8790   -0.5990 ha        1 BDC      0.085500
     59 H1         -1.8910   -5.1550    0.2080 ha        1 BDC      0.066500
     60 H2         -3.6100   -6.5330   -0.6250 ha        1 BDC      0.085500
     61 H3         -4.1780   -6.5750   -2.9530 ha        1 BDC      0.085500
     62 H9         -1.3320   -3.2570    0.6450 hn        1 BDC      0.398800
     63 HE11        0.4800   -5.0770    1.1560 h1        1 BDC      0.044700
     64 HE12        1.4040   -3.7920    0.8210 h1        1 BDC      0.044700
     65 HE31        1.5210   -4.8920    3.6990 hc        1 BDC      0.042700
     66 HE32        2.3740   -3.7550    2.9480 hc        1 BDC      0.042700
     67 HE21        0.2110   -2.5610    2.5590 hc        1 BDC      0.050200
     68 HE22       -0.4990   -3.9730    2.9730 hc        1 BDC      0.050200
     69 HE41        0.9790   -2.3310    4.5630 hc        1 BDC      0.042700
     70 HE42        1.2470   -3.6400    5.4450 hc        1 BDC      0.042700
     71 HD1        -3.6960   -7.1820   -5.2280 hn        1 BDC      0.320500
     72 HD21       -3.8170   -5.4790   -7.3890 h1        1 BDC      0.061700
     73 HD22       -5.2280   -5.5740   -6.6170 h1        1 BDC      0.061700
     74 HD31       -4.1930   -7.3620   -8.4060 h1        1 BDC      0.031200
     75 HD32       -4.3720   -8.1160   -7.0090 h1        1 BDC      0.031200
     76 HD71       -7.6150   -8.6760   -7.2630 h1        1 BDC      0.034200
     77 HD72       -6.6950   -8.1660   -6.0670 h1        1 BDC      0.034200
     78 HD73       -6.1420   -9.2760   -7.0310 h1        1 BDC      0.034200
     79 HD81       -5.9030   -8.6550   -9.3930 h1        1 BDC      0.034200
     80 HD82       -7.3280   -7.9040   -9.3600 h1        1 BDC      0.034200
     81 HD83       -5.9760   -7.0810   -9.7940 h1        1 BDC      0.034200
     82 H4'1        3.4220   -2.2660    4.1440 hc        1 BDC      0.043200
     83 H4'2        3.5700   -3.3470    5.3000 hc        1 BDC      0.043200
     84 H3'1        2.0850   -1.2660    6.2560 hc        1 BDC      0.043700
     85 H3'2        3.4840   -1.7470    6.8290 hc        1 BDC      0.043700
     86 H2'1        4.6110   -0.0790    5.7740 hc        1 BDC      0.050200
     87 H2'2        3.7150   -0.2290    4.4420 hc        1 BDC      0.050200
     88 H1'1        1.9320    0.9220    5.6360 h1        1 BDC      0.044700
     89 H1'2        2.9790    1.2380    6.7790 h1        1 BDC      0.044700
     90 H9'         4.2230    2.4950    5.1120 hn        1 BDC      0.243700
     91 H5'        -0.1980    3.8230    0.8090 ha        1 BDC      0.093500
     92 H6'        -0.5820    1.4920    0.5040 ha        1 BDC      0.085500
     93 H7'         0.3600   -0.1160    2.0170 ha        1 BDC      0.085500
     94 H8'         1.7010    0.6380    3.8510 ha        1 BDC      0.076500
     95 H1'         3.8650    4.2460    6.2940 ha        1 BDC      0.076500
     96 H2'         4.2820    6.5730    6.5980 ha        1 BDC      0.085500
     97 H3'         3.3320    8.1560    5.0780 ha        1 BDC      0.085500
     98 HD1'        0.7060    7.6010    1.8300 hn        1 BDC      0.309500
     99 H'21        1.1720   10.3050    1.8010 h1        1 BDC      0.068200
    100 H'22        2.3130    9.5840    0.9060 h1        1 BDC      0.068200
    101 H'31        0.4370    8.4860   -0.2870 h1        1 BDC      0.039200
    102 H'32       -0.4590    9.5900    0.3670 h1        1 BDC      0.039200
    103 H'71       -0.2010   11.7030   -1.9640 h1        1 BDC      0.030533
    104 H'72        0.0390   12.0860   -0.4320 h1        1 BDC      0.030533
    105 H'73       -1.0450   11.0040   -0.8470 h1        1 BDC      0.030533
    106 H'81        0.0680    9.0970   -2.4100 h1        1 BDC      0.030533
    107 H'82        1.0270   10.2430   -2.9620 h1        1 BDC      0.030533
    108 H'83        1.6840    8.9650   -2.2190 h1        1 BDC      0.030533
@<TRIPOS>BOND
     1    1    2 3   
     2    1   55 1   
     3    2   56 1   
     4    3    4 3   
     5    3   57 1   
     6    4   58 1   
     7    5   11 3   
     8    5   15 1   
     9    6   12 3   
    10    6   59 1   
    11    7    8 3   
    12    7   60 1   
    13    8   61 1   
    14    9   13 3   
    15    9   16 1   
    16   10   11 1   
    17   10   14 3   
    18   12   13 1   
    19   15   18 1   
    20   15   62 1   
    21   16   17 2   
    22   16   22 1   
    23   18   20 1   
    24   18   63 1   
    25   18   64 1   
    26   19   20 1   
    27   19   21 1   
    28   19   65 1   
    29   19   66 1   
    30   20   67 1   
    31   20   68 1   
    32   21   28 1   
    33   21   69 1   
    34   21   70 1   
    35   22   23 1   
    36   22   71 1   
    37   23   24 1   
    38   23   72 1   
    39   23   73 1   
    40   24   25 1   
    41   24   74 1   
    42   24   75 1   
    43   25   26 1   
    44   25   27 1   
    45   26   76 1   
    46   26   77 1   
    47   26   78 1   
    48   27   79 1   
    49   27   80 1   
    50   27   81 1   
    51   28   29 1   
    52   28   82 1   
    53   28   83 1   
    54   29   30 1   
    55   29   84 1   
    56   29   85 1   
    57   30   31 1   
    58   30   86 1   
    59   30   87 1   
    60   31   32 1   
    61   31   88 1   
    62   31   89 1   
    63   32   37 2   
    64   32   90 1   
    65   33   42 3   
    66   33   91 1   
    67   34   35 3   
    68   34   92 1   
    69   35   93 1   
    70   36   43 3   
    71   36   94 1   
    72   37   43 1   
    73   37   44 1   
    74   38   44 3   
    75   38   95 1   
    76   39   40 3   
    77   39   96 1   
    78   40   97 1   
    79   41   45 2   
    80   41   47 2   
    81   42   46 1   
    82   45   46 2   
    83   47   48 1   
    84   47   49 1   
    85   49   50 1   
    86   49   98 1   
    87   50   51 1   
    88   50   99 1   
    89   50  100 1   
    90   51   52 1   
    91   51  101 1   
    92   51  102 1   
    93   52   53 1   
    94   52   54 1   
    95   53  103 1   
    96   53  104 1   
    97   53  105 1   
    98   54  106 1   
    99   54  107 1   
   100   54  108 1   
@<TRIPOS>SUBSTRUCTURE
     1 BDC         1 TEMP              0 ****  ****    0 ROOT
