@<TRIPOS>MOLECULE
BDC
  108   113     1     0     0
SMALL
bcc


@<TRIPOS>ATOM
      1 C5          7.2220   -3.7610   -2.3830 ca        1 BDC     -0.187300
      2 C6          6.7130   -5.0150   -2.2240 ca        1 BDC     -0.105000
      3 C7          5.3180   -5.2550   -2.3700 ca        1 BDC     -0.147500
      4 C8          4.4630   -4.2260   -2.6400 ca        1 BDC     -0.093500
      5 C9          4.0820   -1.7750   -3.0350 ca        1 BDC      0.208600
      6 C1          3.9040    0.6850   -3.5010 ca        1 BDC     -0.094500
      7 C2          4.5020    1.8970   -3.6940 ca        1 BDC     -0.146500
      8 C3          5.9170    2.0170   -3.6430 ca        1 BDC     -0.054500
      9 C4          6.7000    0.9210   -3.4030 ca        1 BDC     -0.194900
     10 C14         6.3540   -2.6450   -2.6920 ca        1 BDC      0.449600
     11 C13         4.9390   -2.8840   -2.7790 ca        1 BDC     -0.178800
     12 C11         4.6710   -0.4940   -3.2460 ca        1 BDC     -0.209300
     13 C12         6.1060   -0.3820   -3.1810 ca        1 BDC      0.464100
     14 N10         6.9120   -1.4290   -2.8950 nb        1 BDC     -0.708500
     15 N9          2.6940   -1.9800   -3.1540 nh        1 BDC     -0.729100
     16 CD1         8.1830    1.1090   -3.3200 c         1 BDC      0.674200
     17 OD1         8.6700    1.9770   -2.5670 o         1 BDC     -0.603600
     18 CE1         1.9630   -2.4150   -1.9810 c3        1 BDC      0.178800
     19 CE3         0.5740   -1.8820    0.0200 c3        1 BDC     -0.080900
     20 CE2         1.2930   -1.3000   -1.1770 c3        1 BDC     -0.113400
     21 CE4        -0.1500   -0.8030    0.7980 c3        1 BDC     -0.078900
     22 ND1         8.9690    0.3710   -4.1890 n         1 BDC     -0.532900
     23 CD2        10.4020    0.3620   -4.0670 c3        1 BDC      0.077500
     24 CD3        10.9420   -0.7440   -3.1290 c3        1 BDC      0.138300
     25 ND2        12.3840   -0.9150   -3.2360 n3        1 BDC     -0.736600
     26 CD7        12.8320   -2.1470   -2.6230 c3        1 BDC      0.155350
     27 CD8        13.1320    0.2360   -2.7810 c3        1 BDC      0.155350
     28 CF4        -0.8160   -1.3720    2.0330 c3        1 BDC     -0.078900
     29 CF3        -1.5840   -0.3040    2.7810 c3        1 BDC     -0.080900
     30 CF2        -2.2040   -0.8600    4.0430 c3        1 BDC     -0.113400
     31 CF1        -3.0590    0.1720    4.7790 c3        1 BDC      0.178800
     32 N9'        -2.3320    1.2720    5.3780 nh        1 BDC     -0.729100
     33 C5'        -5.0200    5.1390    3.9270 ca        1 BDC     -0.187300
     34 C6'        -6.1570    4.5350    4.3730 ca        1 BDC     -0.105000
     35 C7'        -6.0980    3.2720    5.0230 ca        1 BDC     -0.147500
     36 C8'        -4.9040    2.6280    5.1790 ca        1 BDC     -0.093500
     37 C9'        -2.4200    2.5470    4.7990 ca        1 BDC      0.208600
     38 C1'         0.0640    2.7120    4.4640 ca        1 BDC     -0.094500
     39 C2'         1.1610    3.4370    4.0930 ca        1 BDC     -0.146500
     40 C3'         1.0160    4.7650    3.6130 ca        1 BDC     -0.054500
     41 C4'        -0.2250    5.3250    3.4800 ca        1 BDC     -0.194900
     42 CE'        -3.7310    4.5040    4.0940 ca        1 BDC      0.449600
     43 CD'        -3.6850    3.1960    4.6910 ca        1 BDC     -0.178800
     44 CB'        -1.2540    3.2590    4.3860 ca        1 BDC     -0.209300
     45 CC'        -1.4160    4.5890    3.8550 ca        1 BDC      0.464100
     46 NA'        -2.6250    5.1710    3.6920 nb        1 BDC     -0.708500
     47 CB1        -0.3220    6.7390    2.9970 c         1 BDC      0.674200
     48 O1X         0.3290    7.6450    3.5560 o         1 BDC     -0.603600
     49 NB1        -1.0580    6.9710    1.8470 n         1 BDC     -0.532900
     50 CB2        -1.3500    8.3120    1.4140 c3        1 BDC      0.077500
     51 CB3        -2.6510    8.8930    2.0160 c3        1 BDC      0.138300
     52 NB2        -3.0810   10.1160    1.3510 n3        1 BDC     -0.736600
     53 CB7        -2.1500   11.2100    1.5090 c3        1 BDC      0.155350
     54 CB8        -4.4350   10.4790    1.7100 c3        1 BDC      0.155350
     55 H5          8.3020   -3.5690   -2.2840 ha        1 BDC      0.150000
     56 H6          7.3740   -5.8630   -1.9880 ha        1 BDC      0.137000
     57 H7          4.9460   -6.2860   -2.2690 ha        1 BDC      0.136000
     58 H8          3.3910   -4.4340   -2.7810 ha        1 BDC      0.142000
     59 H1          2.8050    0.6340   -3.5310 ha        1 BDC      0.125000
     60 H2          3.9030    2.8000   -3.8840 ha        1 BDC      0.142000
     61 H3          6.3790    3.0080   -3.7860 ha        1 BDC      0.157000
     62 H9          2.2270   -1.2280   -3.6230 hn        1 BDC      0.396800
     63 HE11        1.1660   -3.1240   -2.3510 h1        1 BDC      0.060450
     64 HE12        2.6490   -2.9900   -1.2970 h1        1 BDC      0.060450
     65 HE31        1.3130   -2.3970    0.6890 hc        1 BDC      0.044700
     66 HE32       -0.1630   -2.6570   -0.3200 hc        1 BDC      0.044700
     67 HE21        0.5610   -0.7470   -1.8240 hc        1 BDC      0.049450
     68 HE22        2.0600   -0.5590   -0.8320 hc        1 BDC      0.049450
     69 HE41        0.5770   -0.0030    1.0980 hc        1 BDC      0.042450
     70 HE42       -0.9220   -0.3200    0.1420 hc        1 BDC      0.042450
     71 HD1         8.5650   -0.4370   -4.6040 hn        1 BDC      0.312000
     72 HD21       10.8260    0.2160   -5.1010 h1        1 BDC      0.067950
     73 HD22       10.7320    1.3680   -3.6810 h1        1 BDC      0.067950
     74 HD31       10.6270   -0.4980   -2.0720 h1        1 BDC      0.038950
     75 HD32       10.4600   -1.7250   -3.4070 h1        1 BDC      0.038950
     76 HD71       13.9340   -2.2570   -2.7950 h1        1 BDC      0.031450
     77 HD72       12.3060   -3.0100   -3.1100 h1        1 BDC      0.031450
     78 HD73       12.6370   -2.1900   -1.5160 h1        1 BDC      0.031450
     79 HD81       12.8590    1.1190   -3.4160 h1        1 BDC      0.031450
     80 HD82       14.2280    0.0340   -2.9050 h1        1 BDC      0.031450
     81 HD83       12.9360    0.4970   -1.7050 h1        1 BDC      0.031450
     82 H4'1       -1.5130   -2.2000    1.7370 hc        1 BDC      0.042450
     83 H4'2       -0.0380   -1.8200    2.7060 hc        1 BDC      0.042450
     84 H3'1       -0.8940    0.5450    3.0380 hc        1 BDC      0.044700
     85 H3'2       -2.3870    0.1140    2.1170 hc        1 BDC      0.044700
     86 H2'1       -1.4000   -1.2520    4.7200 hc        1 BDC      0.049450
     87 H2'2       -2.8700   -1.7260    3.7840 hc        1 BDC      0.049450
     88 H1'1       -3.5890   -0.3550    5.6260 h1        1 BDC      0.060450
     89 H1'2       -3.8410    0.5660    4.0690 h1        1 BDC      0.060450
     90 H9'        -1.4020    1.0130    5.6380 hn        1 BDC      0.396800
     91 H6'        -7.1370    5.0200    4.2470 ha        1 BDC      0.137000
     92 H7'        -7.0300    2.8300    5.4070 ha        1 BDC      0.136000
     93 H8'        -4.8740    1.6690    5.7190 ha        1 BDC      0.142000
     94 H1'         0.2190    1.6840    4.8270 ha        1 BDC      0.125000
     95 H2'         2.1720    3.0090    4.1640 ha        1 BDC      0.142000
     96 H3'         1.9170    5.3460    3.3540 ha        1 BDC      0.157000
     97 HD1'       -1.7190    6.2780    1.5760 hn        1 BDC      0.312000
     98 H'21       -0.4830    8.9740    1.7000 h1        1 BDC      0.067950
     99 H'22       -1.4320    8.2910    0.2900 h1        1 BDC      0.067950
    100 H'31       -3.4780    8.1350    1.9010 h1        1 BDC      0.038950
    101 H'32       -2.4890    9.0540    3.1220 h1        1 BDC      0.038950
    102 H'71       -1.1700   10.9220    1.0460 h1        1 BDC      0.031450
    103 H'72       -1.9690   11.4880    2.5840 h1        1 BDC      0.031450
    104 H'73       -2.5470   12.1110    0.9710 h1        1 BDC      0.031450
    105 H'81       -4.7350   11.3830    1.1180 h1        1 BDC      0.031450
    106 H'82       -4.5590   10.7120    2.8030 h1        1 BDC      0.031450
    107 H'83       -5.1230    9.6340    1.4460 h1        1 BDC      0.031450
    108 H5'        -5.0540    6.1270    3.4410 ha        1 BDC      0.150000
@<TRIPOS>BOND
     1    1    2 ar  
     2    1   10 ar  
     3    1   55 1   
     4    2    3 ar  
     5    2   56 1   
     6    3    4 ar  
     7    3   57 1   
     8    4   11 ar  
     9    4   58 1   
    10    5   11 ar  
    11    5   12 ar  
    12    5   15 1   
    13    6    7 ar  
    14    6   12 ar  
    15    6   59 1   
    16    7    8 ar  
    17    7   60 1   
    18    8    9 ar  
    19    8   61 1   
    20    9   13 ar  
    21    9   16 1   
    22   10   11 ar  
    23   10   14 ar  
    24   12   13 ar  
    25   13   14 ar  
    26   15   18 1   
    27   15   62 1   
    28   16   17 2   
    29   16   22 1   
    30   18   20 1   
    31   18   63 1   
    32   18   64 1   
    33   19   20 1   
    34   19   21 1   
    35   19   65 1   
    36   19   66 1   
    37   20   67 1   
    38   20   68 1   
    39   21   28 1   
    40   21   69 1   
    41   21   70 1   
    42   22   23 1   
    43   22   71 1   
    44   23   24 1   
    45   23   72 1   
    46   23   73 1   
    47   24   25 1   
    48   24   74 1   
    49   24   75 1   
    50   25   26 1   
    51   25   27 1   
    52   26   76 1   
    53   26   77 1   
    54   26   78 1   
    55   27   79 1   
    56   27   80 1   
    57   27   81 1   
    58   28   29 1   
    59   28   82 1   
    60   28   83 1   
    61   29   30 1   
    62   29   84 1   
    63   29   85 1   
    64   30   31 1   
    65   30   86 1   
    66   30   87 1   
    67   31   32 1   
    68   31   88 1   
    69   31   89 1   
    70   32   37 1   
    71   32   90 1   
    72   33   34 ar  
    73   33   42 ar  
    74   33  108 1   
    75   34   35 ar  
    76   34   91 1   
    77   35   36 ar  
    78   35   92 1   
    79   36   43 ar  
    80   36   93 1   
    81   37   43 ar  
    82   37   44 ar  
    83   38   39 ar  
    84   38   44 ar  
    85   38   94 1   
    86   39   40 ar  
    87   39   95 1   
    88   40   41 ar  
    89   40   96 1   
    90   41   45 ar  
    91   41   47 1   
    92   42   43 ar  
    93   42   46 ar  
    94   44   45 ar  
    95   45   46 ar  
    96   47   48 2   
    97   47   49 1   
    98   49   50 1   
    99   49   97 1   
   100   50   51 1   
   101   50   98 1   
   102   50   99 1   
   103   51   52 1   
   104   51  100 1   
   105   51  101 1   
   106   52   53 1   
   107   52   54 1   
   108   53  102 1   
   109   53  103 1   
   110   53  104 1   
   111   54  105 1   
   112   54  106 1   
   113   54  107 1   
@<TRIPOS>SUBSTRUCTURE
     1 BDC         1 TEMP              0 ****  ****    0 ROOT
