@<TRIPOS>MOLECULE
BDD
   39    38     1     0     0
SMALL
bcc


@<TRIPOS>ATOM
      1 O1         -0.2060   -0.0020   10.0350 oh        1 BDD     -0.601800
      2 C1          0.6220    0.0070    8.8830 c3        1 BDD      0.132400
      3 C2         -0.2960   -0.0030    7.6730 c3        1 BDD     -0.084400
      4 C3          0.5090    0.0060    6.3940 c3        1 BDD     -0.078400
      5 C4         -0.3960   -0.0040    5.1800 c3        1 BDD     -0.078400
      6 C5          0.4070    0.0040    3.8970 c3        1 BDD     -0.079400
      7 C6         -0.4980   -0.0050    2.6840 c3        1 BDD     -0.079400
      8 C7          0.3040    0.0030    1.4000 c3        1 BDD     -0.079400
      9 C8         -0.6010   -0.0060    0.1870 c3        1 BDD     -0.079400
     10 C9          0.2010    0.0020   -1.0960 c3        1 BDD     -0.078400
     11 C10        -0.7050   -0.0070   -2.3090 c3        1 BDD     -0.080400
     12 C11         0.1030    0.0010   -3.5920 c3        1 BDD     -0.081400
     13 C12        -0.8130   -0.0090   -4.7890 c3        1 BDD     -0.009000
     14 BR          0.1300    0.0020   -6.4700 br        1 BDD     -0.179400
     15 HO1         0.3840    0.0040   10.7980 ho        1 BDD      0.398000
     16 H11         1.2670    0.9270    8.8830 h1        1 BDD      0.019700
     17 H12         1.2870   -0.8990    8.8830 h1        1 BDD      0.019700
     18 H21        -0.9510   -0.9130    7.7150 hc        1 BDD      0.055700
     19 H22        -0.9710    0.8910    7.7150 hc        1 BDD      0.055700
     20 H31         1.1650    0.9160    6.3660 hc        1 BDD      0.039700
     21 H32         1.1850   -0.8900    6.3660 hc        1 BDD      0.039700
     22 H41        -1.0520   -0.9140    5.2080 hc        1 BDD      0.041700
     23 H42        -1.0720    0.8910    5.2080 hc        1 BDD      0.041700
     24 H51         1.0630    0.9140    3.8690 hc        1 BDD      0.039700
     25 H52         1.0820   -0.8910    3.8690 hc        1 BDD      0.039700
     26 H61        -1.1540   -0.9150    2.7110 hc        1 BDD      0.040700
     27 H62        -1.1740    0.8900    2.7110 hc        1 BDD      0.040700
     28 H71         0.9600    0.9130    1.3730 hc        1 BDD      0.039700
     29 H72         0.9790   -0.8920    1.3730 hc        1 BDD      0.039700
     30 H81        -1.2570   -0.9160    0.2140 hc        1 BDD      0.040700
     31 H82        -1.2770    0.8890    0.2140 hc        1 BDD      0.040700
     32 H91         0.8570    0.9120   -1.1240 hc        1 BDD      0.041700
     33 H92         0.8770   -0.8930   -1.1240 hc        1 BDD      0.041700
     34 H101       -1.3600   -0.9180   -2.2820 hc        1 BDD      0.041700
     35 H102       -1.3790    0.8880   -2.2820 hc        1 BDD      0.041700
     36 H111        0.7590    0.9120   -3.6140 hc        1 BDD      0.055700
     37 H112        0.7780   -0.8950   -3.6140 hc        1 BDD      0.055700
     38 H121       -1.4500   -0.9240   -4.7910 h1        1 BDD      0.071700
     39 H122       -1.4690    0.8930   -4.7920 h1        1 BDD      0.071700
@<TRIPOS>BOND
     1    1    2 1   
     2    1   15 1   
     3    2    3 1   
     4    2   16 1   
     5    2   17 1   
     6    3    4 1   
     7    3   18 1   
     8    3   19 1   
     9    4    5 1   
    10    4   20 1   
    11    4   21 1   
    12    5    6 1   
    13    5   22 1   
    14    5   23 1   
    15    6    7 1   
    16    6   24 1   
    17    6   25 1   
    18    7    8 1   
    19    7   26 1   
    20    7   27 1   
    21    8    9 1   
    22    8   28 1   
    23    8   29 1   
    24    9   10 1   
    25    9   30 1   
    26    9   31 1   
    27   10   11 1   
    28   10   32 1   
    29   10   33 1   
    30   11   12 1   
    31   11   34 1   
    32   11   35 1   
    33   12   13 1   
    34   12   36 1   
    35   12   37 1   
    36   13   14 1   
    37   13   38 1   
    38   13   39 1   
@<TRIPOS>SUBSTRUCTURE
     1 BDD         1 TEMP              0 ****  ****    0 ROOT
