@<TRIPOS>MOLECULE
BDD
   39    38     1     0     0
SMALL
bcc


@<TRIPOS>ATOM
      1 O1         -6.5390    0.0110   -4.1480 oh        1 BDD     -0.601800
      2 C1         -5.1280    0.0110   -4.1480 c3        1 BDD      0.132400
      3 C2         -4.6240    0.0110   -2.7220 c3        1 BDD     -0.084400
      4 C3         -3.1110    0.0130   -2.7210 c3        1 BDD     -0.078400
      5 C4         -2.6070    0.0080   -1.2950 c3        1 BDD     -0.078400
      6 C5         -1.0940    0.0130   -1.2950 c3        1 BDD     -0.079400
      7 C6         -0.5900    0.0020    0.1310 c3        1 BDD     -0.079400
      8 C7          0.9230    0.0100    0.1310 c3        1 BDD     -0.079400
      9 C8          1.4270   -0.0060    1.5580 c3        1 BDD     -0.079400
     10 C9          2.9400    0.0010    1.5580 c3        1 BDD     -0.078400
     11 C10         3.4450   -0.0170    2.9840 c3        1 BDD     -0.080400
     12 C11         4.9570   -0.0130    2.9840 c3        1 BDD     -0.081400
     13 C12         5.4620   -0.0300    4.4100 c3        1 BDD     -0.009000
     14 BR          7.3740   -0.0370    4.4100 br        1 BDD     -0.179400
     15 HO1        -6.8350    0.0110   -4.9850 ho        1 BDD      0.398000
     16 H11        -4.8030    0.8080   -4.6080 h1        1 BDD      0.019700
     17 H12        -4.8030   -0.7860   -4.6080 h1        1 BDD      0.019700
     18 H21        -4.9510    0.8070   -2.2610 hc        1 BDD      0.055700
     19 H22        -4.9480   -0.7870   -2.2620 hc        1 BDD      0.055700
     20 H31        -2.7870    0.8130   -3.1780 hc        1 BDD      0.039700
     21 H32        -2.7850   -0.7810   -3.1850 hc        1 BDD      0.039700
     22 H41        -2.9350    0.8010   -0.8310 hc        1 BDD      0.041700
     23 H42        -2.9290   -0.7930   -0.8390 hc        1 BDD      0.041700
     24 H51        -0.7660   -0.7780   -1.7620 hc        1 BDD      0.039700
     25 H52        -0.7720    0.8160   -1.7480 hc        1 BDD      0.039700
     26 H61        -0.9110   -0.8010    0.5840 hc        1 BDD      0.040700
     27 H62        -0.9190    0.7930    0.5990 hc        1 BDD      0.040700
     28 H71         1.2440    0.8140   -0.3190 hc        1 BDD      0.039700
     29 H72         1.2520   -0.7800   -0.3390 hc        1 BDD      0.039700
     30 H81         1.0980    0.7840    2.0280 hc        1 BDD      0.040700
     31 H82         1.1060   -0.8100    2.0080 hc        1 BDD      0.040700
     32 H91         3.2620    0.8060    1.1090 hc        1 BDD      0.041700
     33 H92         3.2690   -0.7880    1.0860 hc        1 BDD      0.041700
     34 H101        3.1210   -0.8200    3.4330 hc        1 BDD      0.041700
     35 H102        3.1170    0.7730    3.4550 hc        1 BDD      0.041700
     36 H111        5.2810    0.7910    2.5340 hc        1 BDD      0.055700
     37 H112        5.2850   -0.8030    2.5130 hc        1 BDD      0.055700
     38 H121        5.1390    0.7630    4.8790 h1        1 BDD      0.071700
     39 H122        5.1330   -0.8310    4.8620 h1        1 BDD      0.071700
@<TRIPOS>BOND
     1    1    2 1   
     2    1   15 1   
     3    2    3 1   
     4    2   16 1   
     5    2   17 1   
     6    3    4 1   
     7    3   18 1   
     8    3   19 1   
     9    4    5 1   
    10    4   20 1   
    11    4   21 1   
    12    5    6 1   
    13    5   22 1   
    14    5   23 1   
    15    6    7 1   
    16    6   24 1   
    17    6   25 1   
    18    7    8 1   
    19    7   26 1   
    20    7   27 1   
    21    8    9 1   
    22    8   28 1   
    23    8   29 1   
    24    9   10 1   
    25    9   30 1   
    26    9   31 1   
    27   10   11 1   
    28   10   32 1   
    29   10   33 1   
    30   11   12 1   
    31   11   34 1   
    32   11   35 1   
    33   12   13 1   
    34   12   36 1   
    35   12   37 1   
    36   13   14 1   
    37   13   38 1   
    38   13   39 1   
@<TRIPOS>SUBSTRUCTURE
     1 BDD         1 TEMP              0 ****  ****    0 ROOT
