@<TRIPOS>MOLECULE
BDE
   30    31     1     0     0
SMALL
bcc


@<TRIPOS>ATOM
      1 CAE        -6.6460   -0.6230    0.4700 ca        1 BDE     -0.039000
      2 CAF        -7.9300   -0.0790    0.4930 ca        1 BDE     -0.250300
      3 CAA        -8.1530    1.1470   -0.1620 ca        1 BDE      0.419200
      4 NAB        -7.1920    1.8230   -0.8200 nb        1 BDE     -0.665000
      5 CAC        -5.9550    1.2920   -0.8350 ca        1 BDE      0.423200
      6 CAD        -5.6300    0.0770   -0.1960 ca        1 BDE     -0.272900
      7 CAG        -4.2660   -0.5120   -0.2400 c         1 BDE      0.702700
      8 OAU        -4.0740   -1.7260   -0.3850 o         1 BDE     -0.534100
      9 NAH        -3.2150    0.4230   -0.0910 n         1 BDE     -0.332900
     10 NAI        -1.9370    0.0550   -0.0960 n2        1 BDE     -0.476300
     11 CAJ        -0.9730    0.9090    0.1240 ce        1 BDE      0.397800
     12 CAK         0.4410    0.5320    0.1080 ca        1 BDE     -0.256900
     13 CAL         1.3520    1.5730    0.3380 ca        1 BDE     -0.011000
     14 CAM         2.7250    1.3660    0.3530 ca        1 BDE     -0.107900
     15 BRAT        3.8400    2.8360    0.6710 br        1 BDE     -0.055100
     16 CAN         3.2190    0.0600    0.1300 ca        1 BDE      0.232100
     17 OAS         4.5770   -0.0920    0.1550 oh        1 BDE     -0.471100
     18 CAO         2.3370   -1.0120   -0.1050 ca        1 BDE     -0.171900
     19 BRAR        3.0320   -2.7350   -0.3990 br        1 BDE     -0.054100
     20 CAP         0.9400   -0.7720   -0.1160 ca        1 BDE      0.262100
     21 OAQ         0.1610   -1.8630   -0.3500 oh        1 BDE     -0.479100
     22 HAE        -6.4240   -1.5870    0.9540 ha        1 BDE      0.163000
     23 HAF        -8.7540   -0.5960    1.0040 ha        1 BDE      0.155000
     24 HAA        -9.1560    1.6130   -0.1670 h4        1 BDE      0.031100
     25 HAC        -5.2020    1.8650   -1.4060 h4        1 BDE      0.028100
     26 HAH        -3.4700    1.3710    0.1210 hn        1 BDE      0.303500
     27 HAJ        -1.1450    1.9890    0.3380 h4        1 BDE     -0.005200
     28 HAL         0.9610    2.5910    0.5120 ha        1 BDE      0.149000
     29 HAS         4.7900   -1.0290   -0.0120 ho        1 BDE      0.442000
     30 HAQ        -0.7830   -1.6240   -0.3470 ho        1 BDE      0.473000
@<TRIPOS>BOND
     1    1    2 ar  
     2    1    6 ar  
     3    1   22 1   
     4    2    3 ar  
     5    2   23 1   
     6    3    4 ar  
     7    3   24 1   
     8    4    5 ar  
     9    5    6 ar  
    10    5   25 1   
    11    6    7 1   
    12    7    8 2   
    13    7    9 1   
    14    9   10 1   
    15    9   26 1   
    16   10   11 2   
    17   11   12 1   
    18   11   27 1   
    19   12   13 ar  
    20   12   20 ar  
    21   13   14 ar  
    22   13   28 1   
    23   14   15 1   
    24   14   16 ar  
    25   16   17 1   
    26   16   18 ar  
    27   17   29 1   
    28   18   19 1   
    29   18   20 ar  
    30   20   21 1   
    31   21   30 1   
@<TRIPOS>SUBSTRUCTURE
     1 BDE         1 TEMP              0 ****  ****    0 ROOT
