@<TRIPOS>MOLECULE
BDE
   30    25     1     0     0
SMALL
bcc


@<TRIPOS>ATOM
      1 CAE         3.0920    0.0230    3.0690 c1        1 BDE     -0.046000
      2 CAF         4.4620    0.0960    3.1340 c1        1 BDE     -0.120500
      3 CAA         5.2030    0.2960    1.9740 c1        1 BDE     -0.120500
      4 NAB         4.5690    0.4220    0.7680 n1        1 BDE     -0.146000
      5 CAC         3.2040    0.3500    0.7010 c1        1 BDE     -0.011000
      6 CAD         2.4580    0.1490    1.8610 c1        1 BDE     -0.159000
      7 CAG         0.9220    0.1130    1.7900 c2        1 BDE      0.379000
      8 OAU         0.2670   -0.0270    2.8110 o         1 BDE     -0.340000
      9 NAH         0.2570    0.1970    0.5150 n         1 BDE     -0.322000
     10 NAI         0.2350    1.3940   -0.1740 n2        1 BDE     -0.023000
     11 CAJ        -0.7170    1.6340   -1.0400 c1        1 BDE     -0.105000
     12 CAK        -1.7860    0.6060   -1.2850 c1        1 BDE     -0.226500
     13 CAL        -2.8090    0.4400   -0.3650 c2        1 BDE     -0.015000
     14 CAM        -3.8590   -0.4300   -0.6410 c1        1 BDE     -0.226500
     15 BRAT       -5.2290   -0.7070    0.6490 br        1 BDE      0.084500
     16 CAN        -3.8820   -1.1270   -1.8310 c2        1 BDE      0.184500
     17 OAS        -4.9040   -2.0440   -2.0810 oh        1 BDE     -0.227500
     18 CAO        -2.8600   -0.9620   -2.7520 c1        1 BDE     -0.297000
     19 BRAR       -2.8960   -1.9200   -4.3960 br        1 BDE      0.084500
     20 CAP        -1.8100   -0.0920   -2.4770 c2        1 BDE      0.184500
     21 OAQ        -0.8310    0.1290   -3.4240 oh        1 BDE     -0.227500
     22 HAE         2.5740   -0.1170    3.8800 ha        1 BDE      0.155000
     23 HAF         4.9190    0.0050    4.0000 ha        1 BDE      0.155500
     24 HAA         6.1830    0.3480    2.0200 ha        1 BDE      0.155500
     25 HAC         2.7560    0.4390   -0.1540 ha        1 BDE      0.176000
     26 HAH        -0.1210   -0.5480    0.1470 hn        1 BDE      0.228000
     27 HAJ        -0.7320    2.4820   -1.5280 ha        1 BDE      0.183000
     28 HAL        -2.7880    0.9240    0.4760 ha        1 BDE      0.161000
     29 HAS        -4.7520   -2.7840   -1.6250 ho        1 BDE      0.242000
     30 HAQ        -1.1250    0.7100   -4.0210 ho        1 BDE      0.242000
@<TRIPOS>BOND
     1    1    6 1   
     2    1   22 1   
     3    2    3 1   
     4    2   23 1   
     5    3   24 1   
     6    4    5 1   
     7    5   25 1   
     8    6    7 1   
     9    7    8 1   
    10    7    9 1   
    11    9   10 1   
    12    9   26 1   
    13   10   11 1   
    14   11   27 1   
    15   12   13 1   
    16   12   20 1   
    17   13   14 1   
    18   13   28 1   
    19   14   16 1   
    20   16   17 1   
    21   16   18 1   
    22   17   29 1   
    23   18   20 1   
    24   20   21 1   
    25   21   30 1   
@<TRIPOS>SUBSTRUCTURE
     1 BDE         1 TEMP              0 ****  ****    0 ROOT
