@<TRIPOS>MOLECULE
BDE
   31    32     1     0     0
SMALL
bcc


@<TRIPOS>ATOM
      1 CAE        -0.2920    1.4050    0.9910 ca        1 BDE     -0.005000
      2 CAF         0.8130    1.2610    0.1560 ca        1 BDE     -0.238300
      3 CAA         1.5280    0.0460    0.1850 ca        1 BDE      0.473200
      4 NAB         1.2010   -0.9850    0.9920 nb        1 BDE     -0.640000
      5 CAC         0.1350   -0.8440    1.7940 ca        1 BDE      0.448200
      6 CAD        -0.6580    0.3280    1.8260 ca        1 BDE     -0.331900
      7 CAG        -1.8090    0.5040    2.7000 c         1 BDE      0.571700
      8 OAU        -2.2660    1.5490    3.1460 o         1 BDE     -0.442100
      9 NAH        -2.5540   -0.7770    3.1000 ny        1 BDE     -0.365900
     10 NAI        -3.9440   -0.8310    2.9540 n2        1 BDE     -0.549400
     11 CAJ        -4.7380    0.0600    3.5030 ce        1 BDE      0.577800
     12 CAK        -6.1820    0.0310    3.3980 ca        1 BDE     -0.289900
     13 CAL        -6.8550    1.2120    3.7860 ca        1 BDE      0.015000
     14 CAM        -8.2290    1.3390    3.7190 ca        1 BDE     -0.108900
     15 BrAT       -9.0050    2.9550    4.2510 br        1 BDE     -0.001100
     16 CAN        -8.9970    0.2350    3.2500 ca        1 BDE      0.293100
     17 OAS       -10.3390    0.4170    3.1980 oh        1 BDE     -0.440100
     18 CAO        -8.3660   -0.9660    2.8710 ca        1 BDE     -0.251900
     19 BrAR       -9.3850   -2.4230    2.2670 br        1 BDE     -0.030100
     20 CAP        -6.9580   -1.0660    2.9490 ca        1 BDE      0.293100
     21 OAQ        -6.2920   -2.2050    2.6260 oh        1 BDE     -0.465100
     22 HAE        -0.8760    2.3410    1.0060 ha        1 BDE      0.175000
     23 HAF         1.1280    2.0770   -0.5120 ha        1 BDE      0.182000
     24 HAA         2.4130   -0.1150   -0.4640 h4        1 BDE      0.062100
     25 HAC        -0.0590   -1.7120    2.4520 h4        1 BDE      0.023100
     26 HAH        -2.2350   -1.5460    2.4820 hn        1 BDE      0.465800
     27 HAJ        -4.3540    0.9400    4.0810 h4        1 BDE      0.033800
     28 HAL        -6.2530    2.0670    4.1500 ha        1 BDE      0.164000
     29 HAS       -10.7730   -0.3950    2.8690 ho        1 BDE      0.459000
     30 HAQ        -6.9320   -2.8860    2.3360 ho        1 BDE      0.459000
     31 HAH2       -2.2790   -1.0010    4.0700 hn        1 BDE      0.465800
@<TRIPOS>BOND
     1    1    2 ar  
     2    1    6 ar  
     3    1   22 1   
     4    2    3 ar  
     5    2   23 1   
     6    3    4 ar  
     7    3   24 1   
     8    4    5 ar  
     9    5    6 ar  
    10    5   25 1   
    11    6    7 1   
    12    7    8 2   
    13    7    9 1   
    14    9   10 1   
    15    9   26 1   
    16    9   31 1   
    17   10   11 2   
    18   11   12 1   
    19   11   27 1   
    20   12   13 ar  
    21   12   20 ar  
    22   13   14 ar  
    23   13   28 1   
    24   14   15 1   
    25   14   16 ar  
    26   16   17 1   
    27   16   18 ar  
    28   17   29 1   
    29   18   19 1   
    30   18   20 ar  
    31   20   21 1   
    32   21   30 1   
@<TRIPOS>SUBSTRUCTURE
     1 BDE         1 TEMP              0 ****  ****    0 ROOT
