@<TRIPOS>MOLECULE
BDE
   31    32     1     0     0
SMALL
bcc


@<TRIPOS>ATOM
      1 CAE        -0.2890    1.3600    0.9520 ca        1 BDE     -0.005000
      2 CAF         0.8150    1.1940    0.1200 ca        1 BDE     -0.238300
      3 CAA         1.5250   -0.0220    0.1740 ca        1 BDE      0.473200
      4 NAB         1.1950   -1.0350    1.0030 nb        1 BDE     -0.640000
      5 CAC         0.1300   -0.8730    1.8020 ca        1 BDE      0.448200
      6 CAD        -0.6580    0.3030    1.8100 ca        1 BDE     -0.331900
      7 CAG        -1.8080    0.5020    2.6820 c         1 BDE      0.571700
      8 OAU        -2.2610    1.5580    3.1050 o         1 BDE     -0.442100
      9 NAH        -2.5570   -0.7680    3.1110 n4        1 BDE     -0.365900
     10 NAI        -3.9470   -0.8200    2.9710 n2        1 BDE     -0.549400
     11 CAJ        -4.7360    0.0850    3.5020 ce        1 BDE      0.577800
     12 CAK        -6.1810    0.0590    3.4030 ca        1 BDE     -0.289900
     13 CAL        -6.8480    1.2520    3.7650 ca        1 BDE      0.015000
     14 CAM        -8.2220    1.3820    3.6990 ca        1 BDE     -0.108900
     15 BRAT       -8.9900    3.0120    4.1950 br        1 BDE     -0.001100
     16 CAN        -8.9950    0.2700    3.2580 ca        1 BDE      0.293100
     17 OAS       -10.3370    0.4550    3.2060 oh        1 BDE     -0.440100
     18 CAO        -8.3690   -0.9420    2.9060 ca        1 BDE     -0.251900
     19 BRAR       -9.3950   -2.4090    2.3400 br        1 BDE     -0.030100
     20 CAP        -6.9620   -1.0450    2.9820 ca        1 BDE      0.293100
     21 OAQ        -6.3010   -2.1950    2.6850 oh        1 BDE     -0.465100
     22 HAE        -0.8690    2.2990    0.9480 ha        1 BDE      0.175000
     23 HAF         1.1320    1.9950   -0.5650 ha        1 BDE      0.182000
     24 HAA         2.4090   -0.2000   -0.4720 h4        1 BDE      0.062100
     25 HAC        -0.0660   -1.7250    2.4790 h4        1 BDE      0.023100
     26 HAH        -2.2420   -1.5510    2.5080 hn        1 BDE      0.465800
     27 HAJ        -4.3470    0.9770    4.0600 h4        1 BDE      0.033800
     28 HAL        -6.2420    2.1120    4.1070 ha        1 BDE      0.164000
     29 HAS       -10.7750   -0.3620    2.8980 ho        1 BDE      0.459000
     30 HAQ        -6.9440   -2.8790    2.4130 ho        1 BDE      0.459000
     31 HAH2       -2.2790   -0.9730    4.0840 hn        1 BDE      0.465800
@<TRIPOS>BOND
     1    1    2 ar  
     2    1    6 ar  
     3    1   22 1   
     4    2    3 ar  
     5    2   23 1   
     6    3    4 ar  
     7    3   24 1   
     8    4    5 ar  
     9    5    6 ar  
    10    5   25 1   
    11    6    7 1   
    12    7    8 2   
    13    7    9 1   
    14    9   10 1   
    15    9   26 1   
    16    9   31 1   
    17   10   11 2   
    18   11   12 1   
    19   11   27 1   
    20   12   13 ar  
    21   12   20 ar  
    22   13   14 ar  
    23   13   28 1   
    24   14   15 1   
    25   14   16 ar  
    26   16   17 1   
    27   16   18 ar  
    28   17   29 1   
    29   18   19 1   
    30   18   20 ar  
    31   20   21 1   
    32   21   30 1   
@<TRIPOS>SUBSTRUCTURE
     1 BDE         1 TEMP              0 ****  ****    0 ROOT
