@<TRIPOS>MOLECULE
BDE
   31    32     1     0     0
SMALL
bcc


@<TRIPOS>ATOM
      1 CAE        -0.2810    1.4020    1.0130 ca        1 BDE     -0.005000
      2 CAF         0.8230    1.2640    0.1760 ca        1 BDE     -0.238300
      3 CAA         1.5290    0.0440    0.1830 ca        1 BDE      0.473200
      4 NAB         1.1930   -1.0000    0.9710 nb        1 BDE     -0.640000
      5 CAC         0.1280   -0.8650    1.7750 ca        1 BDE      0.448200
      6 CAD        -0.6550    0.3130    1.8280 ca        1 BDE     -0.331900
      7 CAG        -1.8060    0.4820    2.7050 c         1 BDE      0.571700
      8 OAU        -2.2550    1.5220    3.1700 o         1 BDE     -0.442100
      9 NAH        -2.5610   -0.8000    3.0820 n4        1 BDE     -0.365900
     10 NAI        -3.9520   -0.8400    2.9370 n2        1 BDE     -0.549400
     11 CAJ        -4.7380    0.0470    3.5030 ce        1 BDE      0.577800
     12 CAK        -6.1820    0.0320    3.3990 ca        1 BDE     -0.289900
     13 CAL        -6.8450    1.2110    3.8100 ca        1 BDE      0.015000
     14 CAM        -8.2180    1.3490    3.7480 ca        1 BDE     -0.108900
     15 BRAT       -8.9800    2.9610    4.3100 br        1 BDE     -0.001100
     16 CAN        -8.9950    0.2610    3.2590 ca        1 BDE      0.293100
     17 OAS       -10.3360    0.4540    3.2120 oh        1 BDE     -0.440100
     18 CAO        -8.3740   -0.9380    2.8570 ca        1 BDE     -0.251900
     19 BRAR       -9.4060   -2.3750    2.2270 br        1 BDE     -0.030100
     20 CAP        -6.9670   -1.0510    2.9310 ca        1 BDE      0.293100
     21 OAQ        -6.3110   -2.1890    2.5860 oh        1 BDE     -0.465100
     22 HAE        -0.8580    2.3420    1.0440 ha        1 BDE      0.175000
     23 HAF         1.1450    2.0900   -0.4770 ha        1 BDE      0.182000
     24 HAA         2.4120   -0.1130   -0.4690 h4        1 BDE      0.062100
     25 HAC        -0.0730   -1.7420    2.4170 h4        1 BDE      0.023100
     26 HAH        -2.2490   -1.5600    2.4490 hn        1 BDE      0.465800
     27 HAJ        -4.3460    0.9130    4.0960 h4        1 BDE      0.033800
     28 HAL        -6.2350    2.0530    4.1890 ha        1 BDE      0.164000
     29 HAS       -10.7770   -0.3470    2.8690 ho        1 BDE      0.459000
     30 HAQ        -6.9560   -2.8590    2.2840 ho        1 BDE      0.459000
     31 HAH2       -2.2860   -1.0460    4.0470 hn        1 BDE      0.465800
@<TRIPOS>BOND
     1    1    2 ar  
     2    1    6 ar  
     3    1   22 1   
     4    2    3 ar  
     5    2   23 1   
     6    3    4 ar  
     7    3   24 1   
     8    4    5 ar  
     9    5    6 ar  
    10    5   25 1   
    11    6    7 1   
    12    7    8 2   
    13    7    9 1   
    14    9   10 1   
    15    9   26 1   
    16    9   31 1   
    17   10   11 2   
    18   11   12 1   
    19   11   27 1   
    20   12   13 ar  
    21   12   20 ar  
    22   13   14 ar  
    23   13   28 1   
    24   14   15 1   
    25   14   16 ar  
    26   16   17 1   
    27   16   18 ar  
    28   17   29 1   
    29   18   19 1   
    30   18   20 ar  
    31   20   21 1   
    32   21   30 1   
@<TRIPOS>SUBSTRUCTURE
     1 BDE         1 TEMP              0 ****  ****    0 ROOT
