@<TRIPOS>MOLECULE
BDF
   24    24     1     0     0
SMALL
bcc


@<TRIPOS>ATOM
      1 C1          1.5430   -0.2160    0.0790 c3        1 BDF      0.118400
      2 C2          0.0270    0.0640    0.1080 c3        1 BDF      0.259600
      3 C3         -0.5310    0.0580    1.5490 c3        1 BDF      0.110100
      4 C4         -2.0690    0.0920    1.5260 c3        1 BDF      0.087100
      5 C5         -2.6130   -1.0040    0.5920 c3        1 BDF      0.075100
      6 C6         -1.9900   -0.8590   -0.7940 c3        1 BDF      0.103400
      7 O1          2.0460   -0.0000   -1.2200 oh        1 BDF     -0.596800
      8 O2         -0.3020    1.2990   -0.4800 oh        1 BDF     -0.620800
      9 O3          0.0140    1.1320    2.2800 oh        1 BDF     -0.573800
     10 O4         -2.5990   -0.0420    2.8250 oh        1 BDF     -0.575800
     11 O5         -2.3760   -2.2840    1.1520 oh        1 BDF     -0.594800
     12 O6         -0.5690   -0.9280   -0.7210 os        1 BDF     -0.459600
     13 H11         1.7420   -1.2610    0.4270 h1        1 BDF      0.074700
     14 H12         2.0620    0.5320    0.7370 h1        1 BDF      0.074700
     15 H3         -0.1680   -0.8660    2.0810 h1        1 BDF      0.085700
     16 H4         -2.4170    1.1040    1.1710 h1        1 BDF      0.095700
     17 H5         -3.7350   -0.9270    0.5350 h1        1 BDF      0.098700
     18 H61        -2.3000    0.1130   -1.2570 h1        1 BDF      0.073200
     19 H62        -2.2670   -1.7230   -1.4540 h1        1 BDF      0.073200
     20 HO1         1.6650   -0.6830   -1.7890 ho        1 BDF      0.415000
     21 HO2         0.2670    1.4170   -1.2550 ho        1 BDF      0.435000
     22 HO3        -0.3320    1.9480    1.8920 ho        1 BDF      0.420000
     23 HO4        -2.4640   -0.9610    3.0970 ho        1 BDF      0.414000
     24 HO5        -1.4500   -2.5040    0.9810 ho        1 BDF      0.408000
@<TRIPOS>BOND
     1    1    2 1   
     2    1    7 1   
     3    1   13 1   
     4    1   14 1   
     5    2    3 1   
     6    2    8 1   
     7    2   12 1   
     8    3    4 1   
     9    3    9 1   
    10    3   15 1   
    11    4    5 1   
    12    4   10 1   
    13    4   16 1   
    14    5    6 1   
    15    5   11 1   
    16    5   17 1   
    17    6   12 1   
    18    6   18 1   
    19    6   19 1   
    20    7   20 1   
    21    8   21 1   
    22    9   22 1   
    23   10   23 1   
    24   11   24 1   
@<TRIPOS>SUBSTRUCTURE
     1 BDF         1 TEMP              0 ****  ****    0 ROOT
