@<TRIPOS>MOLECULE
BDF
   24    24     1     0     0
SMALL
bcc


@<TRIPOS>ATOM
      1 C1          1.4320    0.9540   -0.7980 c3        1 BDF      0.086400
      2 C2         -0.0800    0.9540   -0.7980 c3        1 BDF      0.321600
      3 C3         -0.5700    0.9540    0.6370 c3        1 BDF      0.142100
      4 C4         -0.2860   -0.3290    1.3310 c3        1 BDF      0.148100
      5 C5         -0.7710   -1.5080    0.5570 c3        1 BDF      0.069100
      6 C6         -0.2810   -1.4970   -0.8840 c3        1 BDF      0.111400
      7 O1          1.9030    1.4620   -2.0270 oh        1 BDF     -0.601800
      8 O2         -0.5260    2.1010   -1.4210 oh        1 BDF     -0.603800
      9 O3         -1.9900    1.1820    0.6440 oh        1 BDF     -0.598800
     10 O4          1.1470   -0.4520    1.5230 oh        1 BDF     -0.610800
     11 O5         -0.3070   -2.7030    1.1950 oh        1 BDF     -0.606800
     12 O6         -0.5600   -0.2260   -1.5620 os        1 BDF     -0.425600
     13 H11         1.7580    0.0420   -0.6770 h1        1 BDF      0.052200
     14 H12         1.7580    1.5150   -0.0680 h1        1 BDF      0.052200
     15 H3         -0.1300    1.6790    1.1210 h1        1 BDF      0.067700
     16 H4         -0.7230   -0.3210    2.2040 h1        1 BDF      0.072700
     17 H5         -1.7480   -1.5070    0.5590 h1        1 BDF      0.074700
     18 H61        -0.7210   -2.2180   -1.3720 h1        1 BDF      0.058700
     19 H62         0.6820   -1.6530   -0.8900 h1        1 BDF      0.058700
     20 HO1         2.7820    1.5760   -1.9830 ho        1 BDF      0.408000
     21 HO2        -0.9240    1.8870   -2.1850 ho        1 BDF      0.449000
     22 HO3        -2.1750    1.8790    1.1610 ho        1 BDF      0.436000
     23 HO4         1.3240   -0.5240    2.3890 ho        1 BDF      0.428000
     24 HO5        -0.9930   -3.2460    1.3420 ho        1 BDF      0.412000
@<TRIPOS>BOND
     1    1    2 1   
     2    1    7 1   
     3    1   13 1   
     4    1   14 1   
     5    2    3 1   
     6    2    8 1   
     7    2   12 1   
     8    3    4 1   
     9    3    9 1   
    10    3   15 1   
    11    4    5 1   
    12    4   10 1   
    13    4   16 1   
    14    5    6 1   
    15    5   11 1   
    16    5   17 1   
    17    6   12 1   
    18    6   18 1   
    19    6   19 1   
    20    7   20 1   
    21    8   21 1   
    22    9   22 1   
    23   10   23 1   
    24   11   24 1   
@<TRIPOS>SUBSTRUCTURE
     1 BDF         1 TEMP              0 ****  ****    0 ROOT
