@<TRIPOS>MOLECULE
BDF
   24    24     1     0     0
SMALL
bcc


@<TRIPOS>ATOM
      1 C1          1.5510   -0.2390    0.1230 c3        1 BDF      0.118400
      2 C2          0.0390    0.0620    0.1310 c3        1 BDF      0.259600
      3 C3         -0.5460    0.0310    1.5610 c3        1 BDF      0.110100
      4 C4         -2.0830    0.0860    1.5100 c3        1 BDF      0.087100
      5 C5         -2.6240   -0.9810    0.5420 c3        1 BDF      0.075100
      6 C6         -1.9730   -0.8120   -0.8290 c3        1 BDF      0.103400
      7 O1          2.0810   -0.0000   -1.1610 oh        1 BDF     -0.596800
      8 O2         -0.2630    1.3140   -0.4340 oh        1 BDF     -0.620800
      9 O3         -0.0010    1.0800    2.3260 oh        1 BDF     -0.573800
     10 O4         -2.6390   -0.0700    2.7960 oh        1 BDF     -0.575800
     11 O5         -2.4140   -2.2760    1.0760 oh        1 BDF     -0.594800
     12 O6         -0.5550   -0.9030   -0.7310 os        1 BDF     -0.459600
     13 H11         2.0670    0.4870    0.8070 h1        1 BDF      0.074700
     14 H12         1.7300   -1.2940    0.4510 h1        1 BDF      0.074700
     15 H3         -0.2050   -0.9100    2.0780 h1        1 BDF      0.085700
     16 H4         -2.4110    1.1110    1.1730 h1        1 BDF      0.095700
     17 H5         -3.7440   -0.8880    0.4670 h1        1 BDF      0.098700
     18 H61        -2.2500   -1.6570   -1.5130 h1        1 BDF      0.073200
     19 H62        -2.2620    0.1740   -1.2750 h1        1 BDF      0.073200
     20 HO1         1.7020   -0.6640   -1.7530 ho        1 BDF      0.415000
     21 HO2         0.3220    1.4420   -1.1960 ho        1 BDF      0.435000
     22 HO3        -0.3280    1.9100    1.9500 ho        1 BDF      0.420000
     23 HO4        -2.5210   -0.9960    3.0500 ho        1 BDF      0.414000
     24 HO5        -1.4880   -2.5050    0.9180 ho        1 BDF      0.408000
@<TRIPOS>BOND
     1    1    2 1   
     2    1    7 1   
     3    1   13 1   
     4    1   14 1   
     5    2    3 1   
     6    2    8 1   
     7    2   12 1   
     8    3    4 1   
     9    3    9 1   
    10    3   15 1   
    11    4    5 1   
    12    4   10 1   
    13    4   16 1   
    14    5    6 1   
    15    5   11 1   
    16    5   17 1   
    17    6   12 1   
    18    6   18 1   
    19    6   19 1   
    20    7   20 1   
    21    8   21 1   
    22    9   22 1   
    23   10   23 1   
    24   11   24 1   
@<TRIPOS>SUBSTRUCTURE
     1 BDF         1 TEMP              0 ****  ****    0 ROOT
