@<TRIPOS>MOLECULE
BDF
   24    24     1     0     0
SMALL
bcc


@<TRIPOS>ATOM
      1 C1          0.4620    0.9460    2.0540 c3        1 BDF      0.118400
      2 C2          0.1620   -0.0330    0.9010 c3        1 BDF      0.259600
      3 C3          0.9540    0.3240   -0.3770 c3        1 BDF      0.110100
      4 C4          0.4500   -0.5100   -1.5680 c3        1 BDF      0.087100
      5 C5         -1.0820   -0.4100   -1.6790 c3        1 BDF      0.075100
      6 C6         -1.7240   -0.8110   -0.3530 c3        1 BDF      0.103400
      7 O1         -0.1150    0.4700    3.2490 oh        1 BDF     -0.596800
      8 O2          0.4590   -1.3660    1.2370 oh        1 BDF     -0.620800
      9 O3          2.3330    0.1500   -0.1510 oh        1 BDF     -0.573800
     10 O4          1.0710   -0.1090   -2.7670 oh        1 BDF     -0.575800
     11 O5         -1.4580    0.8950   -2.0800 oh        1 BDF     -0.594800
     12 O6         -1.2480    0.0100    0.7090 os        1 BDF     -0.459600
     13 H11         0.0820    1.9660    1.7940 h1        1 BDF      0.074700
     14 H12         1.5700    0.9630    2.2340 h1        1 BDF      0.074700
     15 H3          0.8330    1.4230   -0.5900 h1        1 BDF      0.085700
     16 H4          0.7540   -1.5860   -1.4270 h1        1 BDF      0.095700
     17 H5         -1.4430   -1.0740   -2.5140 h1        1 BDF      0.098700
     18 H61        -1.5080   -1.8870   -0.1290 h1        1 BDF      0.073200
     19 H62        -2.8290   -0.6200   -0.3660 h1        1 BDF      0.073200
     20 HO1        -1.0740    0.5150    3.1400 ho        1 BDF      0.415000
     21 HO2         0.1970   -1.5020    2.1600 ho        1 BDF      0.435000
     22 HO3         2.4880   -0.7970   -0.0300 ho        1 BDF      0.420000
     23 HO4         0.7010    0.7530   -3.0080 ho        1 BDF      0.414000
     24 HO5        -1.4110    1.4610   -1.2980 ho        1 BDF      0.408000
@<TRIPOS>BOND
     1    1    2 1   
     2    1    7 1   
     3    1   13 1   
     4    1   14 1   
     5    2    3 1   
     6    2    8 1   
     7    2   12 1   
     8    3    4 1   
     9    3    9 1   
    10    3   15 1   
    11    4    5 1   
    12    4   10 1   
    13    4   16 1   
    14    5    6 1   
    15    5   11 1   
    16    5   17 1   
    17    6   12 1   
    18    6   18 1   
    19    6   19 1   
    20    7   20 1   
    21    8   21 1   
    22    9   22 1   
    23   10   23 1   
    24   11   24 1   
@<TRIPOS>SUBSTRUCTURE
     1 BDF         1 TEMP              0 ****  ****    0 ROOT
