@<TRIPOS>MOLECULE
BDG
   26    26     1     0     0
SMALL
bcc


@<TRIPOS>ATOM
      1 C5         -0.0800    0.1370    1.1590 c3        1 BDG      0.141100
      2 O5          1.0600   -0.6470    0.7900 os        1 BDG     -0.452600
      3 C1          1.5400   -0.4260   -0.5170 c3        1 BDG      0.296900
      4 O1          2.0410    0.8900   -0.5510 oh        1 BDG     -0.634800
      5 C2          0.4690   -0.5810   -1.6310 c3        1 BDG      0.122500
      6 N2          0.9400   -0.2340   -2.9540 n3        1 BDG     -0.903800
      7 C3         -0.7900    0.2270   -1.2450 c3        1 BDG      0.114100
      8 O3         -1.8940   -0.0970   -2.0740 oh        1 BDG     -0.612800
      9 C4         -1.2320   -0.1410    0.1830 c3        1 BDG      0.123100
     10 O4         -2.3290    0.6600    0.5840 oh        1 BDG     -0.595800
     11 C6         -0.4660   -0.3000    2.5810 c3        1 BDG      0.165800
     12 N6          0.5280    0.0500    3.5660 n3        1 BDG     -0.912800
     13 H5          0.1930    1.2270    1.1260 h1        1 BDG      0.079700
     14 H1          2.3680   -1.1840   -0.6410 h2        1 BDG      0.066700
     15 HO1         2.5940    1.0120    0.2320 ho        1 BDG      0.427000
     16 H2          0.1800   -1.6750   -1.6450 h1        1 BDG      0.082700
     17 HN21        1.2410    0.7220   -2.9780 hn        1 BDG      0.361300
     18 HN22        1.7040   -0.8250   -3.2160 hn        1 BDG      0.361300
     19 H3         -0.5790    1.3320   -1.3040 h1        1 BDG      0.064700
     20 HO3        -1.6270    0.0560   -2.9890 ho        1 BDG      0.428000
     21 H4         -1.5250   -1.2280    0.2170 h1        1 BDG      0.056700
     22 HO4        -2.9960    0.5790   -0.1130 ho        1 BDG      0.425000
     23 H61        -0.6830   -1.4090    2.5510 h1        1 BDG      0.046200
     24 H62        -1.4250    0.2360    2.8380 h1        1 BDG      0.046200
     25 HN61        0.2730   -0.3240    4.4590 hn        1 BDG      0.352300
     26 HN62        1.4260   -0.3050    3.3040 hn        1 BDG      0.352300
@<TRIPOS>BOND
     1    1    2 1   
     2    1    9 1   
     3    1   11 1   
     4    1   13 1   
     5    2    3 1   
     6    3    4 1   
     7    3    5 1   
     8    3   14 1   
     9    4   15 1   
    10    5    6 1   
    11    5    7 1   
    12    5   16 1   
    13    6   17 1   
    14    6   18 1   
    15    7    8 1   
    16    7    9 1   
    17    7   19 1   
    18    8   20 1   
    19    9   10 1   
    20    9   21 1   
    21   10   22 1   
    22   11   12 1   
    23   11   23 1   
    24   11   24 1   
    25   12   25 1   
    26   12   26 1   
@<TRIPOS>SUBSTRUCTURE
     1 BDG         1 TEMP              0 ****  ****    0 ROOT
