@<TRIPOS>MOLECULE
BDG
   26    26     1     0     0
SMALL
bcc


@<TRIPOS>ATOM
      1 C5         -0.5930   -0.7730   -0.7410 c3        1 BDG      0.120100
      2 O5          0.4620   -1.2590   -0.1580 os        1 BDG     -0.441600
      3 C1          1.4190   -0.5990    0.3930 c3        1 BDG      0.342900
      4 O1          2.1500   -1.4990    1.3490 oh        1 BDG     -0.586800
      5 C2          0.8840    0.6160    1.1580 c3        1 BDG      0.126500
      6 N2          1.6100    0.7540    2.3610 n3        1 BDG     -0.912800
      7 C3         -0.6420    0.4930    1.4920 c3        1 BDG      0.146100
      8 O3         -1.1020    1.5490    2.1190 oh        1 BDG     -0.607800
      9 C4         -1.1390    0.4340    0.0200 c3        1 BDG      0.090100
     10 O4         -2.5330    0.3700    0.0190 oh        1 BDG     -0.607800
     11 C6         -0.2050   -0.3210   -2.2280 c3        1 BDG      0.124800
     12 N6         -0.9740   -1.0680   -3.1730 n3        1 BDG     -0.928800
     13 H5         -1.3160   -1.4950   -0.7870 h1        1 BDG      0.087700
     14 H1          2.0420   -0.2930   -0.3050 h2        1 BDG      0.066700
     15 HO1         2.7670   -1.9760    0.9020 ho        1 BDG      0.434000
     16 H2          1.0250    1.4380    0.6010 h1        1 BDG      0.038700
     17 HN21        1.1850    1.3580    2.9020 hn        1 BDG      0.364800
     18 HN22        2.4860    1.0660    2.1670 hn        1 BDG      0.364800
     19 H3         -0.8350   -0.3160    1.9610 h1        1 BDG      0.073700
     20 HO3        -1.6350    1.2800    2.8280 ho        1 BDG      0.424000
     21 H4         -0.8550    1.2640   -0.4470 h1        1 BDG      0.054700
     22 HO4        -2.8460    1.0660   -0.3390 ho        1 BDG      0.428000
     23 H61        -0.3890    0.6130   -2.3350 h1        1 BDG      0.041700
     24 H62         0.7720   -0.4900   -2.3850 h1        1 BDG      0.041700
     25 HN61       -0.4670   -1.7080   -3.5250 hn        1 BDG      0.356300
     26 HN62       -1.2730   -0.5020   -3.8490 hn        1 BDG      0.356300
@<TRIPOS>BOND
     1    1    2 1   
     2    1    9 1   
     3    1   11 1   
     4    1   13 1   
     5    2    3 1   
     6    3    4 1   
     7    3    5 1   
     8    3   14 1   
     9    4   15 1   
    10    5    6 1   
    11    5    7 1   
    12    5   16 1   
    13    6   17 1   
    14    6   18 1   
    15    7    8 1   
    16    7    9 1   
    17    7   19 1   
    18    8   20 1   
    19    9   10 1   
    20    9   21 1   
    21   10   22 1   
    22   11   12 1   
    23   11   23 1   
    24   11   24 1   
    25   12   25 1   
    26   12   26 1   
@<TRIPOS>SUBSTRUCTURE
     1 BDG         1 TEMP              0 ****  ****    0 ROOT
