@<TRIPOS>MOLECULE
BDH
   31    31     1     0     0
SMALL
bcc


@<TRIPOS>ATOM
      1 O1         -0.7530   -1.7670    4.7540 o         1 BDH     -0.847800
      2 O2          1.3260   -0.9480    4.7970 o         1 BDH     -0.847800
      3 O3          0.7830    1.1280    0.4410 o         1 BDH     -0.717100
      4 O4         -3.0050    1.2420   -2.6110 o         1 BDH     -0.832300
      5 O5         -3.2850   -0.6350   -1.4230 o         1 BDH     -0.832300
      6 N1          0.2900    1.3180    3.3800 n3        1 BDH     -0.907800
      7 N2         -0.6980   -0.4210   -0.3840 n         1 BDH     -0.524900
      8 C1         -0.2190   -0.0170    3.1600 c3        1 BDH      0.048500
      9 C2          0.2690   -0.7320    1.8870 c3        1 BDH     -0.169400
     10 C3          0.1060    0.0770    0.6150 c         1 BDH      0.656100
     11 C4          0.1470   -0.9860    4.3410 c         1 BDH      0.914600
     12 C5         -1.0300    0.3000   -1.5920 c3        1 BDH     -0.052300
     13 C7         -2.5810    0.3020   -1.8860 c         1 BDH      0.910600
     14 CB         -0.3960   -0.2980   -2.8590 c3        1 BDH     -0.017100
     15 CG          1.0580   -0.1200   -3.0340 cc        1 BDH     -0.157900
     16 ND1         1.9070    0.6020   -2.2020 na        1 BDH     -0.284900
     17 CD2         1.8780   -0.6090   -4.0850 cd        1 BDH      0.224200
     18 CE1         3.1880    0.5210   -2.7540 cc        1 BDH      0.336400
     19 NE2         3.1940   -0.2040   -3.8990 nd        1 BDH     -0.705000
     20 HN11        1.1650    1.2590    3.8720 hn        1 BDH      0.343800
     21 HN12        0.4510    1.7830    2.5050 hn        1 BDH      0.343800
     22 HN2        -1.3770   -1.1120   -0.1350 hn        1 BDH      0.328500
     23 H1         -1.3420    0.0630    3.1050 h1        1 BDH      0.053700
     24 H21        -0.2710   -1.7130    1.8290 hc        1 BDH      0.065700
     25 H22         1.3660   -0.9450    1.9950 hc        1 BDH      0.065700
     26 H5         -0.7060    1.3750   -1.4850 h1        1 BDH      0.066700
     27 HB1        -0.9110    0.1980   -3.7310 hc        1 BDH      0.066200
     28 HB2        -0.6250   -1.3970   -2.9090 hc        1 BDH      0.066200
     29 HD1         1.6430    1.0480   -1.3510 hn        1 BDH      0.346700
     30 HD2         1.5760   -1.2160   -4.9330 h4        1 BDH      0.018100
     31 HE1         4.0550    0.9940   -2.2890 h5        1 BDH      0.040100
@<TRIPOS>BOND
     1    1   11 1   
     2    2   11 1   
     3    3   10 2   
     4    4   13 1   
     5    5   13 1   
     6    6    8 1   
     7    6   20 1   
     8    6   21 1   
     9    7   10 1   
    10    7   12 1   
    11    7   22 1   
    12    8    9 1   
    13    8   11 1   
    14    8   23 1   
    15    9   10 1   
    16    9   24 1   
    17    9   25 1   
    18   12   13 1   
    19   12   14 1   
    20   12   26 1   
    21   14   15 1   
    22   14   27 1   
    23   14   28 1   
    24   15   16 1   
    25   15   17 2   
    26   16   18 1   
    27   16   29 1   
    28   17   19 1   
    29   17   30 1   
    30   18   19 2   
    31   18   31 1   
@<TRIPOS>SUBSTRUCTURE
     1 BDH         1 TEMP              0 ****  ****    0 ROOT
