@<TRIPOS>MOLECULE
BDH
   33    33     1     0     0
SMALL
bcc


@<TRIPOS>ATOM
      1 O1          1.1750   -1.3320    0.4040 o         1 BDH     -0.739800
      2 O2          3.2630   -0.9260    1.2300 o         1 BDH     -0.739800
      3 O3          3.3320   -0.1740   -3.8820 o         1 BDH     -0.487100
      4 O4          4.2470   -3.8610   -7.3750 o         1 BDH     -0.744300
      5 O5          2.1760   -3.0170   -6.9570 o         1 BDH     -0.744300
      6 N1          4.1990    0.1170   -1.0350 n4        1 BDH     -0.811600
      7 N2          2.6910   -2.3410   -4.4630 n4        1 BDH     -0.650800
      8 C1          2.8140   -0.4170   -1.1040 c3        1 BDH     -0.099500
      9 C2          2.6460   -1.5990   -2.0360 c3        1 BDH     -0.167400
     10 C3          2.9210   -1.2600   -3.4740 c         1 BDH      0.539100
     11 C4          2.3550   -0.9540    0.3730 c         1 BDH      0.949600
     12 C5          3.8950   -2.7120   -5.2790 c3        1 BDH     -0.075500
     13 C7          3.3800   -3.2730   -6.7140 c         1 BDH      0.944600
     14 CB          4.7930   -3.7470   -4.6300 c3        1 BDH     -0.029100
     15 CG          5.4470   -3.2500   -3.4040 cc        1 BDH     -0.208900
     16 ND1         5.8000   -4.0420   -2.3050 na        1 BDH     -0.308900
     17 CD2         5.8270   -1.9330   -3.0590 cd        1 BDH      0.225200
     18 CE1         6.3670   -3.1920   -1.3510 cc        1 BDH      0.415400
     19 NE2         6.3840   -1.9110   -1.7830 nd        1 BDH     -0.712000
     20 HN11        4.1630    1.0860   -0.7180 hn        1 BDH      0.456467
     21 HN12        4.6790    0.0630   -1.9340 hn        1 BDH      0.456467
     22 HN2         2.3330   -3.1770   -3.9960 hn        1 BDH      0.474800
     23 H1          2.1220    0.4180   -1.3940 hx        1 BDH      0.104700
     24 H21         1.5760   -1.9440   -1.9050 hc        1 BDH      0.131200
     25 H22         3.3180   -2.4480   -1.7270 hc        1 BDH      0.131200
     26 H5          4.4610   -1.7650   -5.4970 hx        1 BDH      0.104700
     27 HB1         4.2230   -4.6950   -4.4360 hc        1 BDH      0.104700
     28 HB2         5.5760   -4.0000   -5.4090 hc        1 BDH      0.104700
     29 HD1         5.7250   -5.0250   -2.2530 hn        1 BDH      0.316700
     30 HD2         5.7830   -1.0410   -3.6870 h4        1 BDH      0.047100
     31 HE1         6.7380   -3.5480   -0.3820 h5        1 BDH      0.081100
     32 H13         4.7050   -0.4310   -0.3140 hn        1 BDH      0.456467
     33 H221        1.9800   -2.0480   -5.1840 hn        1 BDH      0.474800
@<TRIPOS>BOND
     1    1   11 1   
     2    2   11 1   
     3    3   10 2   
     4    4   13 1   
     5    5   13 1   
     6    6    8 1   
     7    6   20 1   
     8    6   21 1   
     9    6   32 1   
    10    7   10 1   
    11    7   12 1   
    12    7   22 1   
    13    7   33 1   
    14    8    9 1   
    15    8   11 1   
    16    8   23 1   
    17    9   10 1   
    18    9   24 1   
    19    9   25 1   
    20   12   13 1   
    21   12   14 1   
    22   12   26 1   
    23   14   15 1   
    24   14   27 1   
    25   14   28 1   
    26   15   16 1   
    27   15   17 2   
    28   16   18 1   
    29   16   29 1   
    30   17   19 1   
    31   17   30 1   
    32   18   19 2   
    33   18   31 1   
@<TRIPOS>SUBSTRUCTURE
     1 BDH         1 TEMP              0 ****  ****    0 ROOT
