@<TRIPOS>MOLECULE
BDH
   31    28     1     0     0
SMALL
bcc


@<TRIPOS>ATOM
      1 O1         -4.3630   -0.4930    1.9080 o         1 BDH     -0.849300
      2 O2         -4.5420    1.0840    0.4120 o         1 BDH     -0.849300
      3 O3         -0.9800    1.6710    0.2770 o         1 BDH     -0.678100
      4 O4          0.1800    1.1130   -2.4320 o         1 BDH     -0.839300
      5 O5         -0.8230   -0.8060   -2.1700 o         1 BDH     -0.839300
      6 N1         -3.3640    1.7650    3.4590 n3        1 BDH     -0.909800
      7 N2         -0.0210   -0.3800    0.5750 n         1 BDH     -0.544900
      8 C1         -2.9210    1.4130    2.1540 c3        1 BDH      0.049500
      9 C2         -1.6690    0.5720    2.2570 c3        1 BDH     -0.170400
     10 C3         -0.8840    0.6760    0.9680 c         1 BDH      0.649100
     11 C4         -4.0010    0.6230    1.4510 c         1 BDH      0.913600
     12 C5          0.8420   -0.2140   -0.5400 c3        1 BDH     -0.014300
     13 C7          0.0180    0.0470   -1.7810 c         1 BDH      0.909600
     14 CB          1.6620   -1.4690   -0.7340 c3        1 BDH     -0.029200
     15 CG          2.8390   -1.1680   -1.6350 ce        1 BDH      0.362400
     16 ND1         2.8460   -1.2460   -2.9680 n1        1 BDH     -0.982500
     17 CD2         4.0970   -0.8200   -1.2250 c1        1 BDH      0.049500
     18 CE1         4.0970   -0.9490   -3.3980 cg        1 BDH      0.217800
     19 NE2         4.8630   -0.6880   -2.3110 ne        1 BDH     -0.456400
     20 HN11       -4.2270    1.4800    3.5760 hn        1 BDH      0.344300
     21 HN12       -3.3270    2.6750    3.5590 hn        1 BDH      0.344300
     22 HN2        -0.0070   -1.1580    1.0510 hn        1 BDH      0.327500
     23 H1         -2.7270    2.2240    1.6450 h1        1 BDH      0.050700
     24 H21        -1.9150   -0.3610    2.4150 hc        1 BDH      0.062700
     25 H22        -1.1200    0.8940    3.0000 hc        1 BDH      0.062700
     26 H5          1.4390    0.5440   -0.3800 h1        1 BDH      0.060700
     27 HB1         1.9880   -1.7830    0.1340 hc        1 BDH      0.059700
     28 HB2         1.1060   -2.1620   -1.1440 hc        1 BDH      0.059700
     29 HD1         2.1350   -1.4600   -3.4960 DU        1 BDH      0.213000
     30 HD2         4.3850   -0.6910   -0.3010 DU        1 BDH      0.213000
     31 HE1         4.3950   -0.9330   -4.3270 DU        1 BDH      0.213000
@<TRIPOS>BOND
     1    1   11 1   
     2    2   11 1   
     3    3   10 2   
     4    4   13 1   
     5    5   13 1   
     6    6    8 1   
     7    6   20 1   
     8    6   21 1   
     9    7   10 1   
    10    7   12 1   
    11    7   22 1   
    12    8    9 1   
    13    8   11 1   
    14    8   23 1   
    15    9   10 1   
    16    9   24 1   
    17    9   25 1   
    18   12   13 1   
    19   12   14 1   
    20   12   26 1   
    21   14   15 1   
    22   14   27 1   
    23   14   28 1   
    24   15   16 1   
    25   15   17 2   
    26   16   18 3   
    27   17   19 2   
    28   18   19 1   
@<TRIPOS>SUBSTRUCTURE
     1 BDH         1 TEMP              0 ****  ****    0 ROOT
