@<TRIPOS>MOLECULE
BDH
   33    33     1     0     0
SMALL
bcc


@<TRIPOS>ATOM
      1 O1          1.1000   -1.2610    0.3210 o         1 BDH     -0.739800
      2 O2          3.1710   -0.8760    1.1980 o         1 BDH     -0.739800
      3 O3          3.3850   -0.1770   -3.9180 o         1 BDH     -0.487100
      4 O4          4.3400   -3.9110   -7.3490 o         1 BDH     -0.744300
      5 O5          2.2700   -3.0340   -6.9930 o         1 BDH     -0.744300
      6 N1          4.1810    0.1310   -1.0520 n4        1 BDH     -0.811600
      7 N2          2.7290   -2.3410   -4.4940 n4        1 BDH     -0.650800
      8 C1          2.7910   -0.3850   -1.1510 c3        1 BDH     -0.099500
      9 C2          2.6310   -1.5730   -2.0760 c3        1 BDH     -0.167400
     10 C3          2.9490   -1.2530   -3.5100 c         1 BDH      0.539100
     11 C4          2.2860   -0.9000    0.3180 c         1 BDH      0.949600
     12 C5          3.9490   -2.7360   -5.2750 c3        1 BDH     -0.075500
     13 C7          3.4640   -3.3040   -6.7170 c         1 BDH      0.944600
     14 CB          4.8150   -3.7760   -4.5920 c3        1 BDH     -0.029100
     15 CG          5.4430   -3.2770   -3.3540 cc        1 BDH     -0.208900
     16 ND1         5.7560   -4.0630   -2.2390 na        1 BDH     -0.308900
     17 CD2         5.8320   -1.9610   -3.0120 cd        1 BDH      0.225200
     18 CE1         6.3100   -3.2100   -1.2780 cc        1 BDH      0.415400
     19 NE2         6.3560   -1.9350   -1.7220 nd        1 BDH     -0.712000
     20 HN11        4.6600   -0.4170   -0.3120 hn        1 BDH      0.456467
     21 HN12        4.6850    0.0610   -1.9370 hn        1 BDH      0.456467
     22 HN2         2.0420   -2.0450   -5.2360 hn        1 BDH      0.474800
     23 H1          2.1190    0.4580   -1.4690 hx        1 BDH      0.104700
     24 H21         3.2820   -2.4280   -1.7410 hc        1 BDH      0.131200
     25 H22         1.5530   -1.9030   -1.9700 hc        1 BDH      0.131200
     26 H5          4.5340   -1.7990   -5.4870 hx        1 BDH      0.104700
     27 HB1         4.2270   -4.7150   -4.4040 hc        1 BDH      0.104700
     28 HB2         5.6150   -4.0480   -5.3480 hc        1 BDH      0.104700
     29 HD1         5.6660   -5.0440   -2.1800 hn        1 BDH      0.316700
     30 HD2         5.8180   -1.0760   -3.6490 h4        1 BDH      0.047100
     31 HE1         6.6500   -3.5620   -0.2960 h5        1 BDH      0.081100
     32 H13         4.1510    1.1040   -0.7440 hn        1 BDH      0.456467
     33 H221        2.3480   -3.1670   -4.0280 hn        1 BDH      0.474800
@<TRIPOS>BOND
     1    1   11 1   
     2    2   11 1   
     3    3   10 2   
     4    4   13 1   
     5    5   13 1   
     6    6    8 1   
     7    6   20 1   
     8    6   21 1   
     9    6   32 1   
    10    7   10 1   
    11    7   12 1   
    12    7   22 1   
    13    7   33 1   
    14    8    9 1   
    15    8   11 1   
    16    8   23 1   
    17    9   10 1   
    18    9   24 1   
    19    9   25 1   
    20   12   13 1   
    21   12   14 1   
    22   12   26 1   
    23   14   15 1   
    24   14   27 1   
    25   14   28 1   
    26   15   16 1   
    27   15   17 2   
    28   16   18 1   
    29   16   29 1   
    30   17   19 1   
    31   17   30 1   
    32   18   19 2   
    33   18   31 1   
@<TRIPOS>SUBSTRUCTURE
     1 BDH         1 TEMP              0 ****  ****    0 ROOT
