@<TRIPOS>MOLECULE
BDH
   33    33     1     0     0
SMALL
bcc


@<TRIPOS>ATOM
      1 O1          1.0710   -1.2790    0.3000 o         1 BDH     -0.739800
      2 O2          3.1340   -0.9030    1.1990 o         1 BDH     -0.739800
      3 O3          3.3960   -0.1680   -3.9090 o         1 BDH     -0.487100
      4 O4          4.3790   -3.8790   -7.3580 o         1 BDH     -0.744300
      5 O5          2.3070   -3.0020   -7.0160 o         1 BDH     -0.744300
      6 N1          4.1660    0.1190   -1.0340 nz        1 BDH     -0.811600
      7 N2          2.7430   -2.3270   -4.5080 ny        1 BDH     -0.650800
      8 C1          2.7760   -0.3950   -1.1500 c3        1 BDH     -0.099500
      9 C2          2.6230   -1.5760   -2.0850 c3        1 BDH     -0.167400
     10 C3          2.9550   -1.2460   -3.5130 c         1 BDH      0.539100
     11 C4          2.2570   -0.9190    0.3110 c         1 BDH      0.949600
     12 C5          3.9700   -2.7190   -5.2790 c3        1 BDH     -0.075500
     13 C7          3.4980   -3.2760   -6.7300 c         1 BDH      0.944600
     14 CB          4.8280   -3.7640   -4.5960 c3        1 BDH     -0.029100
     15 CG          5.4450   -3.2740   -3.3480 cc        1 BDH     -0.208900
     16 ND1         5.7470   -4.0680   -2.2350 na        1 BDH     -0.308900
     17 CD2         5.8330   -1.9620   -2.9940 cd        1 BDH      0.225200
     18 CE1         6.2930   -3.2240   -1.2640 cc        1 BDH      0.415400
     19 NE2         6.3450   -1.9450   -1.6980 nd        1 BDH     -0.712000
     20 HN11        4.1340    1.0890   -0.7200 hn        1 BDH      0.456467
     21 HN12        4.6370   -0.4350   -0.2930 hn        1 BDH      0.456467
     22 HN2         2.0630   -2.0250   -5.2530 hn        1 BDH      0.474800
     23 H1          2.1080    0.4510   -1.4680 hx        1 BDH      0.104700
     24 H21         3.2710   -2.4350   -1.7500 hc        1 BDH      0.131200
     25 H22         1.5440   -1.9050   -1.9910 hc        1 BDH      0.131200
     26 H5          4.5580   -1.7810   -5.4790 hx        1 BDH      0.104700
     27 HB1         4.2370   -4.7040   -4.4190 hc        1 BDH      0.104700
     28 HB2         5.6350   -4.0320   -5.3460 hc        1 BDH      0.104700
     29 HD1         5.6550   -5.0500   -2.1840 hn        1 BDH      0.316700
     30 HD2         5.8250   -1.0720   -3.6240 h4        1 BDH      0.047100
     31 HE1         6.6240   -3.5830   -0.2810 h5        1 BDH      0.081100
     32 H13         4.6780    0.0540   -1.9150 hn        1 BDH      0.456467
     33 H221        2.3560   -3.1550   -4.0510 hn        1 BDH      0.474800
@<TRIPOS>BOND
     1    1   11 1   
     2    2   11 1   
     3    3   10 2   
     4    4   13 1   
     5    5   13 1   
     6    6    8 1   
     7    6   20 1   
     8    6   21 1   
     9    6   32 1   
    10    7   10 1   
    11    7   12 1   
    12    7   22 1   
    13    7   33 1   
    14    8    9 1   
    15    8   11 1   
    16    8   23 1   
    17    9   10 1   
    18    9   24 1   
    19    9   25 1   
    20   12   13 1   
    21   12   14 1   
    22   12   26 1   
    23   14   15 1   
    24   14   27 1   
    25   14   28 1   
    26   15   16 1   
    27   15   17 2   
    28   16   18 1   
    29   16   29 1   
    30   17   19 1   
    31   17   30 1   
    32   18   19 2   
    33   18   31 1   
@<TRIPOS>SUBSTRUCTURE
     1 BDH         1 TEMP              0 ****  ****    0 ROOT
