@<TRIPOS>MOLECULE
BDI
   27    28     1     0     0
SMALL
bcc


@<TRIPOS>ATOM
      1 N1         -0.3190    0.6410   -0.0220 nc        1 BDI     -0.599000
      2 C1          0.9330    0.1280   -0.2240 cd        1 BDI      0.427800
      3 C6          1.6910    0.1490   -1.5090 c3        1 BDI     -0.116700
      4 C7          2.0070   -1.2510   -1.9960 c3        1 BDI     -0.083400
      5 C8          2.7180   -1.2040   -3.3330 c3        1 BDI     -0.080400
      6 C9          3.0520   -2.5890   -3.8250 c3        1 BDI     -0.094100
      7 N2          1.4610   -0.4340    0.9570 na        1 BDI     -0.258900
      8 C2          0.4960   -0.2650    1.9330 cd        1 BDI     -0.252200
      9 C4          0.4730   -0.6690    3.3380 c         1 BDI      0.710100
     10 N5         -0.6430   -0.1790    4.0770 n         1 BDI     -0.389500
     11 N4         -1.8070    0.1830    3.4350 n         1 BDI     -0.407500
     12 C5         -1.7810    0.7430    2.1120 c         1 BDI      0.604000
     13 O1         -2.7600    1.3920    1.7260 o         1 BDI     -0.561500
     14 C3         -0.5980    0.4010    1.3140 cc        1 BDI      0.301800
     15 O3          1.3690   -1.3110    3.9080 o         1 BDI     -0.601500
     16 HC61        1.0810    0.6900   -2.2830 hc        1 BDI      0.076700
     17 HC62        2.6410    0.7300   -1.3620 hc        1 BDI      0.076700
     18 HC71        1.0580   -1.8400   -2.0950 hc        1 BDI      0.046700
     19 HC72        2.6540   -1.7840   -1.2490 hc        1 BDI      0.046700
     20 HC81        3.6590   -0.6010   -3.2360 hc        1 BDI      0.043200
     21 HC82        2.0660   -0.6840   -4.0840 hc        1 BDI      0.043200
     22 HC91        3.5710   -2.5340   -4.8120 hc        1 BDI      0.036700
     23 HC92        3.7230   -3.1150   -3.1030 hc        1 BDI      0.036700
     24 HC93        2.1240   -3.1990   -3.9470 hc        1 BDI      0.036700
     25 HN2         2.3380   -0.8740    1.0720 hn        1 BDI      0.325700
     26 HN5        -0.8690   -0.7790    4.8610 hn        1 BDI      0.316500
     27 HN4        -2.3640    0.7490    4.0660 hn        1 BDI      0.312500
@<TRIPOS>BOND
     1    1    2 2   
     2    1   14 1   
     3    2    3 1   
     4    2    7 1   
     5    3    4 1   
     6    3   16 1   
     7    3   17 1   
     8    4    5 1   
     9    4   18 1   
    10    4   19 1   
    11    5    6 1   
    12    5   20 1   
    13    5   21 1   
    14    6   22 1   
    15    6   23 1   
    16    6   24 1   
    17    7    8 1   
    18    7   25 1   
    19    8    9 1   
    20    8   14 2   
    21    9   10 1   
    22    9   15 2   
    23   10   11 1   
    24   10   26 1   
    25   11   12 1   
    26   11   27 1   
    27   12   13 2   
    28   12   14 1   
@<TRIPOS>SUBSTRUCTURE
     1 BDI         1 TEMP              0 ****  ****    0 ROOT
