@<TRIPOS>MOLECULE
BDI
   27    23     1     0     0
SMALL
bcc


@<TRIPOS>ATOM
      1 N1         -1.2090    0.4880    0.2150 n2        1 BDI     -0.109000
      2 C1          0.1390    0.4290    0.2100 c1        1 BDI     -0.018000
      3 C6          0.9050    0.7170   -1.1180 c2        1 BDI     -0.101000
      4 C7          1.0060   -0.5820   -1.9480 c3        1 BDI     -0.162000
      5 C8          1.9240   -0.3480   -3.1560 c3        1 BDI     -0.159000
      6 C9          1.8120   -1.5150   -4.1060 c3        1 BDI     -0.212000
      7 N2          0.5620    0.3880    1.4980 n2        1 BDI     -0.109000
      8 C2         -0.5390    0.4210    2.3060 c1        1 BDI     -0.128500
      9 C4         -0.6790    0.4210    3.7000 c1        1 BDI      0.349000
     10 N5         -1.9220    0.4840    4.2640 n2        1 BDI     -0.245000
     11 N4         -3.0350    0.5460    3.4660 n2        1 BDI     -0.245000
     12 C5         -2.9030    0.5460    2.1020 c1        1 BDI      0.349000
     13 O1         -3.8940    0.5430    1.3950 o         1 BDI     -0.306000
     14 C3         -1.6280    0.4820    1.5220 c1        1 BDI     -0.128500
     15 O3          0.3200    0.3650    4.4170 o         1 BDI     -0.306000
     16 HC61        0.4230    1.3980   -1.6320 ha        1 BDI      0.116000
     17 HC62        1.8110    1.0430   -0.9100 ha        1 BDI      0.116000
     18 HC71        0.1130   -0.8400   -2.2610 hc        1 BDI      0.086000
     19 HC72        1.3800   -1.3060   -1.3850 hc        1 BDI      0.086000
     20 HC81        2.8480   -0.2640   -2.8510 hc        1 BDI      0.082500
     21 HC82        1.6570    0.4700   -3.6140 hc        1 BDI      0.082500
     22 HC91        0.8870   -1.5980   -4.4120 hc        1 BDI      0.076000
     23 HC92        2.3990   -1.3670   -4.8770 hc        1 BDI      0.076000
     24 HC93        2.0790   -2.3390   -3.6440 hc        1 BDI      0.076000
     25 HN2         1.4400    0.3450    1.7790 DU        1 BDI      0.276000
     26 HN5        -2.0140    0.4840    5.1880 hn        1 BDI      0.228000
     27 HN4        -3.8800    0.5890    3.8510 hn        1 BDI      0.228000
@<TRIPOS>BOND
     1    1    2 1   
     2    1   14 1   
     3    2    7 1   
     4    3    4 1   
     5    3   16 1   
     6    3   17 1   
     7    4    5 1   
     8    4   18 1   
     9    4   19 1   
    10    5    6 1   
    11    5   20 1   
    12    5   21 1   
    13    6   22 1   
    14    6   23 1   
    15    6   24 1   
    16    7    8 1   
    17    8   14 1   
    18    9   10 1   
    19    9   15 1   
    20   10   26 1   
    21   11   12 1   
    22   11   27 1   
    23   12   13 1   
@<TRIPOS>SUBSTRUCTURE
     1 BDI         1 TEMP              0 ****  ****    0 ROOT
