@<TRIPOS>MOLECULE
BDI
   27    28     1     0     0
SMALL
bcc


@<TRIPOS>ATOM
      1 N1          1.0230    1.1170    0.1670 nc        1 BDI     -0.599000
      2 C1          0.0200    0.7000    1.0000 cd        1 BDI      0.427800
      3 C6         -0.0950    1.0140    2.4540 c3        1 BDI     -0.116700
      4 C7         -0.0790   -0.2420    3.3020 c3        1 BDI     -0.083400
      5 C8         -0.1320    0.1050    4.7750 c3        1 BDI     -0.080400
      6 C9         -0.1300   -1.1350    5.6310 c3        1 BDI     -0.094100
      7 N2         -0.9370   -0.0750    0.3150 na        1 BDI     -0.258900
      8 C2         -0.5120   -0.1470   -0.9990 cd        1 BDI     -0.252200
      9 C4         -1.0830   -0.8340   -2.1550 c         1 BDI      0.710100
     10 N5         -0.4380   -0.5470   -3.3940 n         1 BDI     -0.389500
     11 N4          0.8650   -0.1000   -3.4200 n         1 BDI     -0.407500
     12 C5          1.3890    0.7230   -2.3650 c         1 BDI      0.604000
     13 O1          2.3960    1.4030   -2.5920 o         1 BDI     -0.561500
     14 C3          0.7000    0.5950   -1.0750 cc        1 BDI      0.301800
     15 O3         -2.0980   -1.5490   -2.1280 o         1 BDI     -0.601500
     16 HC61       -1.0470    1.5850    2.6290 hc        1 BDI      0.076700
     17 HC62        0.7580    1.6830    2.7520 hc        1 BDI      0.076700
     18 HC71        0.8520   -0.8310    3.0870 hc        1 BDI      0.046700
     19 HC72       -0.9540   -0.8950    3.0420 hc        1 BDI      0.046700
     20 HC81       -1.0540    0.7090    4.9860 hc        1 BDI      0.043200
     21 HC82        0.7510    0.7470    5.0390 hc        1 BDI      0.043200
     22 HC91       -0.1640   -0.8570    6.7130 hc        1 BDI      0.036700
     23 HC92       -1.0160   -1.7740    5.4030 hc        1 BDI      0.036700
     24 HC93        0.7930   -1.7370    5.4510 hc        1 BDI      0.036700
     25 HN2        -1.7460   -0.4990    0.6910 hn        1 BDI      0.325700
     26 HN5        -0.5430   -1.3040   -4.0580 hn        1 BDI      0.316500
     27 HN4         1.0520    0.3020   -4.3320 hn        1 BDI      0.312500
@<TRIPOS>BOND
     1    1    2 2   
     2    1   14 1   
     3    2    3 1   
     4    2    7 1   
     5    3    4 1   
     6    3   16 1   
     7    3   17 1   
     8    4    5 1   
     9    4   18 1   
    10    4   19 1   
    11    5    6 1   
    12    5   20 1   
    13    5   21 1   
    14    6   22 1   
    15    6   23 1   
    16    6   24 1   
    17    7    8 1   
    18    7   25 1   
    19    8    9 1   
    20    8   14 2   
    21    9   10 1   
    22    9   15 2   
    23   10   11 1   
    24   10   26 1   
    25   11   12 1   
    26   11   27 1   
    27   12   13 2   
    28   12   14 1   
@<TRIPOS>SUBSTRUCTURE
     1 BDI         1 TEMP              0 ****  ****    0 ROOT
