@<TRIPOS>MOLECULE
BDI
   27    28     1     0     0
SMALL
bcc


@<TRIPOS>ATOM
      1 N1         -0.3840    0.5710   -0.0730 nc        1 BDI     -0.599000
      2 C1          0.8940    0.1150   -0.2510 cd        1 BDI      0.427800
      3 C6          1.6590    0.1330   -1.5310 c3        1 BDI     -0.116700
      4 C7          2.0470   -1.2650   -1.9710 c3        1 BDI     -0.083400
      5 C8          2.7660   -1.2270   -3.3040 c3        1 BDI     -0.080400
      6 C9          3.1710   -2.6080   -3.7480 c3        1 BDI     -0.094100
      7 N2          1.4410   -0.3790    0.9510 na        1 BDI     -0.258900
      8 C2          0.4620   -0.2270    1.9160 cd        1 BDI     -0.252200
      9 C4          0.4670   -0.5390    3.3440 c         1 BDI      0.710100
     10 N5         -0.7950   -0.3790    3.9890 ns        1 BDI     -0.389500
     11 N4         -1.7550    0.4540    3.4590 ns        1 BDI     -0.407500
     12 C5         -1.8780    0.6350    2.0390 c         1 BDI      0.604000
     13 O1         -2.9470    1.0640    1.5900 o         1 BDI     -0.561500
     14 C3         -0.6590    0.3640    1.2680 cc        1 BDI      0.302800
     15 O3          1.4380   -0.9930    3.9700 o         1 BDI     -0.601500
     16 HC61        1.0290    0.6180   -2.3260 hc        1 BDI      0.076700
     17 HC62        2.5790    0.7640   -1.3980 hc        1 BDI      0.076700
     18 HC71        1.1290   -1.9030   -2.0570 hc        1 BDI      0.046700
     19 HC72        2.7130   -1.7410   -1.2030 hc        1 BDI      0.046700
     20 HC81        3.6760   -0.5750   -3.2210 hc        1 BDI      0.043200
     21 HC82        2.0960   -0.7630   -4.0750 hc        1 BDI      0.043200
     22 HC91        3.6940   -2.5590   -4.7340 hc        1 BDI      0.036700
     23 HC92        3.8600   -3.0770   -3.0050 hc        1 BDI      0.036700
     24 HC93        2.2740   -3.2660   -3.8580 hc        1 BDI      0.036700
     25 HN2         2.3380   -0.7720    1.0850 hn        1 BDI      0.325700
     26 HN5        -0.6900   -0.1800    4.9770 hn        1 BDI      0.316500
     27 HN4        -2.6480    0.2330    3.8840 hn        1 BDI      0.312500
@<TRIPOS>BOND
     1    1    2 2   
     2    1   14 1   
     3    2    3 1   
     4    2    7 1   
     5    3    4 1   
     6    3   16 1   
     7    3   17 1   
     8    4    5 1   
     9    4   18 1   
    10    4   19 1   
    11    5    6 1   
    12    5   20 1   
    13    5   21 1   
    14    6   22 1   
    15    6   23 1   
    16    6   24 1   
    17    7    8 1   
    18    7   25 1   
    19    8    9 1   
    20    8   14 2   
    21    9   10 1   
    22    9   15 2   
    23   10   11 1   
    24   10   26 1   
    25   11   12 1   
    26   11   27 1   
    27   12   13 2   
    28   12   14 1   
@<TRIPOS>SUBSTRUCTURE
     1 BDI         1 TEMP              0 ****  ****    0 ROOT
