@<TRIPOS>MOLECULE
BDJ
   31    32     1     0     0
SMALL
bcc


@<TRIPOS>ATOM
      1 C1         -1.4680   -1.4800    0.2510 c2        1 BDJ      0.621800
      2 N1         -2.5170   -1.4550   -0.7510 nh        1 BDJ     -0.758200
      3 O1         -2.4060    1.9130    0.5100 o         1 BDJ     -0.594500
      4 C2         -2.2990    0.7070    0.2720 c         1 BDJ      0.694500
      5 N2         -1.3490   -0.1580    0.8400 n         1 BDJ     -0.448300
      6 C3         -3.1980   -0.1400   -0.6770 c3        1 BDJ      0.116200
      7 N3         -0.7770   -2.5470    0.5110 n2        1 BDJ     -0.820100
      8 C4         -3.2450    0.5400   -2.0450 c3        1 BDJ     -0.097600
      9 C5         -4.6060   -0.1960   -0.0880 c3        1 BDJ     -0.097600
     10 C6         -0.2160    0.2760    1.6060 c3        1 BDJ      0.145300
     11 C7          1.0200    0.5930    0.8120 ca        1 BDJ     -0.118300
     12 C8          1.0590    1.7460    0.0220 ca        1 BDJ     -0.110000
     13 C9          2.2130    2.0660   -0.6900 ca        1 BDJ     -0.121000
     14 C10         3.3360    1.2410   -0.6190 ca        1 BDJ     -0.115000
     15 C11         3.2920    0.0890    0.1710 ca        1 BDJ      0.016400
     16 C12         2.1360   -0.2430    0.8860 ca        1 BDJ     -0.111000
     17 CL1         4.6550   -0.9220    0.2650 cl        1 BDJ     -0.090400
     18 H1         -3.1390   -2.2360   -0.6930 hn        1 BDJ      0.414800
     19 H2         -0.0230   -2.4300    1.1530 hn        1 BDJ      0.403400
     20 H3         -3.9350   -0.0140   -2.7240 hc        1 BDJ      0.056033
     21 H4         -3.6190    1.5840   -1.9090 hc        1 BDJ      0.056033
     22 H5         -2.2330    0.5750   -2.5130 hc        1 BDJ      0.056033
     23 H6         -4.6070   -0.6860    0.9150 hc        1 BDJ      0.056033
     24 H7         -4.9940    0.8460    0.0250 hc        1 BDJ      0.056033
     25 H8         -5.2860   -0.7620   -0.7690 hc        1 BDJ      0.056033
     26 H9         -0.5330    1.2120    2.1580 h1        1 BDJ      0.073200
     27 H10         0.0190   -0.5190    2.3710 h1        1 BDJ      0.073200
     28 H11         0.1710    2.3980   -0.0320 ha        1 BDJ      0.153000
     29 H12         2.2420    2.9730   -1.3120 ha        1 BDJ      0.141000
     30 H13         4.2470    1.4960   -1.1810 ha        1 BDJ      0.149000
     31 H14         2.1090   -1.1550    1.5020 ha        1 BDJ      0.145000
@<TRIPOS>BOND
     1    1    2 1   
     2    1    5 1   
     3    1    7 2   
     4    2    6 1   
     5    2   18 1   
     6    3    4 2   
     7    4    5 1   
     8    4    6 1   
     9    5   10 1   
    10    6    8 1   
    11    6    9 1   
    12    7   19 1   
    13    8   20 1   
    14    8   21 1   
    15    8   22 1   
    16    9   23 1   
    17    9   24 1   
    18    9   25 1   
    19   10   11 1   
    20   10   26 1   
    21   10   27 1   
    22   11   12 ar  
    23   11   16 ar  
    24   12   13 ar  
    25   12   28 1   
    26   13   14 ar  
    27   13   29 1   
    28   14   15 ar  
    29   14   30 1   
    30   15   16 ar  
    31   15   17 1   
    32   16   31 1   
@<TRIPOS>SUBSTRUCTURE
     1 BDJ         1 TEMP              0 ****  ****    0 ROOT
