@<TRIPOS>MOLECULE
BDJ
   31    32     1     0     0
SMALL
bcc


@<TRIPOS>ATOM
      1 C1          0.0090   -0.0100   -0.0970 c2        1 BDJ      0.618800
      2 N1          1.4670    0.0610   -0.0380 nh        1 BDJ     -0.800200
      3 O1          0.3860    0.0970    3.4010 o         1 BDJ     -0.592500
      4 C2          0.5240    0.0720    2.1750 c         1 BDJ      0.691500
      5 N2         -0.5210    0.0630    1.2400 n         1 BDJ     -0.406300
      6 C3          1.8700    0.0730    1.3880 c3        1 BDJ      0.113200
      7 N3         -0.7510   -0.0430   -1.1500 n2        1 BDJ     -0.830100
      8 C4          2.6820   -1.1470    1.8170 c3        1 BDJ     -0.095100
      9 C5          2.6380    1.3460    1.7450 c3        1 BDJ     -0.095100
     10 C6         -1.9160   -0.0530    1.5630 c3        1 BDJ      0.160300
     11 C7         -2.4190   -1.4660    1.6690 ca        1 BDJ     -0.116300
     12 C8         -2.2390   -2.1810    2.8590 ca        1 BDJ     -0.114000
     13 C9         -2.7350   -3.4780    2.9750 ca        1 BDJ     -0.129000
     14 C10        -3.4080   -4.0730    1.9090 ca        1 BDJ     -0.117000
     15 C11        -3.5780   -3.3570    0.7200 ca        1 BDJ      0.008400
     16 C12        -3.0840   -2.0550    0.5910 ca        1 BDJ     -0.099000
     17 CL1        -4.3930   -4.0790   -0.5880 cl        1 BDJ     -0.096400
     18 H1          1.9040   -0.6770   -0.5530 hn        1 BDJ      0.394800
     19 H2         -0.2670   -0.0620   -2.0220 hn        1 BDJ      0.409400
     20 H3          3.6760   -1.1450    1.3090 hc        1 BDJ      0.055533
     21 H4          2.8400   -1.1050    2.9230 hc        1 BDJ      0.055533
     22 H5          2.1500   -2.0970    1.5700 hc        1 BDJ      0.055533
     23 H6          3.6330    1.3470    1.2390 hc        1 BDJ      0.055533
     24 H7          2.7860    1.3740    2.8520 hc        1 BDJ      0.055533
     25 H8          2.0750    2.2570    1.4310 hc        1 BDJ      0.055533
     26 H9         -2.5130    0.5010    0.7830 h1        1 BDJ      0.080700
     27 H10        -2.0620    0.4590    2.5610 h1        1 BDJ      0.080700
     28 H11        -1.7020   -1.7120    3.6990 ha        1 BDJ      0.151000
     29 H12        -2.5960   -4.0370    3.9120 ha        1 BDJ      0.139000
     30 H13        -3.8020   -5.0960    2.0030 ha        1 BDJ      0.146000
     31 H14        -3.2100   -1.4970   -0.3510 ha        1 BDJ      0.163000
@<TRIPOS>BOND
     1    1    2 1   
     2    1    5 1   
     3    1    7 2   
     4    2    6 1   
     5    2   18 1   
     6    3    4 2   
     7    4    5 1   
     8    4    6 1   
     9    5   10 1   
    10    6    8 1   
    11    6    9 1   
    12    7   19 1   
    13    8   20 1   
    14    8   21 1   
    15    8   22 1   
    16    9   23 1   
    17    9   24 1   
    18    9   25 1   
    19   10   11 1   
    20   10   26 1   
    21   10   27 1   
    22   11   12 ar  
    23   11   16 ar  
    24   12   13 ar  
    25   12   28 1   
    26   13   14 ar  
    27   13   29 1   
    28   14   15 ar  
    29   14   30 1   
    30   15   16 ar  
    31   15   17 1   
    32   16   31 1   
@<TRIPOS>SUBSTRUCTURE
     1 BDJ         1 TEMP              0 ****  ****    0 ROOT
