@<TRIPOS>MOLECULE
BDJ
   31    32     1     0     0
SMALL
bcc


@<TRIPOS>ATOM
      1 C1          0.0070   -0.0070   -0.0950 c2        1 BDJ      0.618800
      2 N1          1.4670    0.0600   -0.0390 nu        1 BDJ     -0.800200
      3 O1          0.3920    0.0910    3.4020 o         1 BDJ     -0.592500
      4 C2          0.5280    0.0680    2.1750 c         1 BDJ      0.691500
      5 N2         -0.5190    0.0630    1.2430 n         1 BDJ     -0.406300
      6 C3          1.8720    0.0690    1.3860 c3        1 BDJ      0.113200
      7 N3         -0.7540   -0.0370   -1.1470 n2        1 BDJ     -0.830100
      8 C4          2.6830   -1.1540    1.8110 c3        1 BDJ     -0.095100
      9 C5          2.6440    1.3390    1.7440 c3        1 BDJ     -0.095100
     10 C6         -1.9140   -0.0510    1.5680 c3        1 BDJ      0.160300
     11 C7         -2.4200   -1.4630    1.6730 ca        1 BDJ     -0.116300
     12 C8         -2.2370   -2.1800    2.8590 ca        1 BDJ     -0.114000
     13 C9         -2.7360   -3.4770    2.9740 ca        1 BDJ     -0.129000
     14 C10        -3.4130   -4.0680    1.9080 ca        1 BDJ     -0.117000
     15 C11        -3.5850   -3.3490    0.7210 ca        1 BDJ      0.008400
     16 C12        -3.0890   -2.0480    0.5950 ca        1 BDJ     -0.099000
     17 Cl1        -4.4050   -4.0660   -0.5850 cl        1 BDJ     -0.096400
     18 H1          1.9010   -0.6780   -0.5570 hn        1 BDJ      0.394800
     19 H2         -0.2720   -0.0550   -2.0200 hn        1 BDJ      0.409400
     20 H3          2.1480   -2.1020    1.5630 hc        1 BDJ      0.055533
     21 H4          2.8430   -1.1150    2.9160 hc        1 BDJ      0.055533
     22 H5          3.6760   -1.1540    1.3010 hc        1 BDJ      0.055533
     23 H6          2.0820    2.2520    1.4330 hc        1 BDJ      0.055533
     24 H7          2.7930    1.3650    2.8500 hc        1 BDJ      0.055533
     25 H8          3.6380    1.3390    1.2360 hc        1 BDJ      0.055533
     26 H9         -2.0570    0.4590    2.5680 h1        1 BDJ      0.080700
     27 H10        -2.5120    0.5070    0.7900 h1        1 BDJ      0.080700
     28 H11        -1.6960   -1.7140    3.6990 ha        1 BDJ      0.151000
     29 H12        -2.5950   -4.0390    3.9090 ha        1 BDJ      0.139000
     30 H13        -3.8080   -5.0910    2.0020 ha        1 BDJ      0.146000
     31 H14        -3.2170   -1.4870   -0.3460 ha        1 BDJ      0.163000
@<TRIPOS>BOND
     1    1    2 1   
     2    1    5 1   
     3    1    7 2   
     4    2    6 1   
     5    2   18 1   
     6    3    4 2   
     7    4    5 1   
     8    4    6 1   
     9    5   10 1   
    10    6    8 1   
    11    6    9 1   
    12    7   19 1   
    13    8   20 1   
    14    8   21 1   
    15    8   22 1   
    16    9   23 1   
    17    9   24 1   
    18    9   25 1   
    19   10   11 1   
    20   10   26 1   
    21   10   27 1   
    22   11   12 ar  
    23   11   16 ar  
    24   12   13 ar  
    25   12   28 1   
    26   13   14 ar  
    27   13   29 1   
    28   14   15 ar  
    29   14   30 1   
    30   15   16 ar  
    31   15   17 1   
    32   16   31 1   
@<TRIPOS>SUBSTRUCTURE
     1 BDJ         1 TEMP              0 ****  ****    0 ROOT
