@<TRIPOS>MOLECULE
BDJ
   31    27     1     0     0
SMALL
bcc


@<TRIPOS>ATOM
      1 C1          0.5020   -0.6010   -1.7530 c1        1 BDJ      0.166000
      2 N1          1.9360   -0.5670   -1.7290 n2        1 BDJ     -0.285000
      3 O1          1.1990   -1.6440    1.4560 o         1 BDJ     -0.310000
      4 C2          1.1710   -1.1130    0.3740 c1        1 BDJ      0.295000
      5 N2          0.0500   -1.0160   -0.4700 n2        1 BDJ     -0.286000
      6 C3          2.3560   -0.5400   -0.3620 c3        1 BDJ      0.004000
      7 N3         -0.2590   -0.3010   -2.7810 n1        1 BDJ     -0.296000
      8 C4          2.6270    0.8900    0.0870 c3        1 BDJ     -0.214000
      9 C5          3.5420   -1.4810   -0.1960 c3        1 BDJ     -0.214000
     10 C6         -1.3160   -1.3140   -0.1070 c3        1 BDJ      0.031000
     11 C7         -1.9870   -0.0530    0.4300 c2        1 BDJ     -0.111000
     12 C8         -2.5820    0.8320   -0.4430 c2        1 BDJ     -0.100000
     13 C9         -3.2750    1.9270    0.0440 c1        1 BDJ     -0.130000
     14 C10        -3.3710    2.1350    1.4110 c1        1 BDJ     -0.116000
     15 C11        -2.7770    1.2530    2.2870 c1        1 BDJ     -0.068000
     16 C12        -2.0820    0.1540    1.8000 c1        1 BDJ     -0.109000
     17 CL1        -2.9070    1.5090    3.9940 cl        1 BDJ     -0.018000
     18 H1          2.4790   -0.5930   -2.4500 hn        1 BDJ      0.190000
     19 H2          0.1180   -0.0450   -3.5640 DU        1 BDJ      0.164000
     20 H3          2.8680    0.8950    1.0430 hc        1 BDJ      0.095167
     21 H4          1.8230    1.4330   -0.0500 hc        1 BDJ      0.095167
     22 H5          3.3640    1.2610   -0.4370 hc        1 BDJ      0.095167
     23 H6          4.2920   -1.1530   -0.7250 hc        1 BDJ      0.095167
     24 H7          3.2920   -2.3810   -0.5040 hc        1 BDJ      0.095167
     25 H8          3.8020   -1.5190    0.7550 hc        1 BDJ      0.095167
     26 H9         -1.3270   -2.0150    0.5870 h1        1 BDJ      0.119500
     27 H10        -1.8040   -1.6310   -0.9010 h1        1 BDJ      0.119500
     28 H11        -2.5160    0.6870   -1.3960 ha        1 BDJ      0.152000
     29 H12        -3.6910    2.5440   -0.5680 ha        1 BDJ      0.138000
     30 H13        -3.8630    2.9130    1.7560 ha        1 BDJ      0.146000
     31 H14        -1.6660   -0.4640    2.4110 ha        1 BDJ      0.162000
@<TRIPOS>BOND
     1    1    5 1   
     2    1    7 1   
     3    2    6 1   
     4    2   18 1   
     5    3    4 1   
     6    4    6 1   
     7    5   10 1   
     8    6    8 1   
     9    6    9 1   
    10    8   20 1   
    11    8   21 1   
    12    8   22 1   
    13    9   23 1   
    14    9   24 1   
    15    9   25 1   
    16   10   11 1   
    17   10   26 1   
    18   10   27 1   
    19   11   12 1   
    20   11   16 1   
    21   12   13 1   
    22   12   28 1   
    23   13   29 1   
    24   14   15 1   
    25   14   30 1   
    26   15   17 1   
    27   16   31 1   
@<TRIPOS>SUBSTRUCTURE
     1 BDJ         1 TEMP              0 ****  ****    0 ROOT
