@<TRIPOS>MOLECULE
BDJ
   31    32     1     0     0
SMALL
bcc


@<TRIPOS>ATOM
      1 C1         -0.0130   -0.0070   -0.1100 c2        1 BDJ      0.611800
      2 N1          1.4420   -0.1290   -0.0320 nh        1 BDJ     -0.800200
      3 O1          0.3400    0.1010    3.3890 o         1 BDJ     -0.588500
      4 C2          0.4860    0.0730    2.1640 c         1 BDJ      0.688500
      5 N2         -0.5510    0.1640    1.2180 n         1 BDJ     -0.397300
      6 C3          1.8370   -0.0200    1.3920 c3        1 BDJ      0.112200
      7 N3         -0.7640   -0.0790   -1.1670 n2        1 BDJ     -0.825100
      8 C4          2.5800   -1.2690    1.8660 c3        1 BDJ     -0.095600
      9 C5          2.6690    1.2190    1.7170 c3        1 BDJ     -0.095600
     10 C6         -1.9440   -0.0080    1.5340 c3        1 BDJ      0.154300
     11 C7         -2.4050   -1.4340    1.6590 ca        1 BDJ     -0.118300
     12 C8         -2.1850   -2.1330    2.8500 ca        1 BDJ     -0.113000
     13 C9         -2.6440   -3.4420    2.9860 ca        1 BDJ     -0.129000
     14 C10        -3.3210   -4.0630    1.9380 ca        1 BDJ     -0.116000
     15 C11        -3.5310   -3.3620    0.7460 ca        1 BDJ      0.009400
     16 C12        -3.0740   -2.0490    0.5980 ca        1 BDJ     -0.096000
     17 CL1        -4.3520   -4.1150   -0.5400 cl        1 BDJ     -0.096400
     18 H1          1.9120    0.5370   -0.6120 hn        1 BDJ      0.394800
     19 H2         -0.2760   -0.1760   -2.0310 hn        1 BDJ      0.409400
     20 H3          2.0040   -2.1950    1.6280 hc        1 BDJ      0.055700
     21 H4          2.7190   -1.2030    2.9720 hc        1 BDJ      0.055700
     22 H5          3.5780   -1.3310    1.3710 hc        1 BDJ      0.055700
     23 H6          2.1540    2.1520    1.3850 hc        1 BDJ      0.055700
     24 H7          3.6650    1.1560    1.2170 hc        1 BDJ      0.055700
     25 H8          2.8220    1.2720    2.8230 hc        1 BDJ      0.055700
     26 H9         -2.5520    0.5160    0.7410 h1        1 BDJ      0.080700
     27 H10        -2.1120    0.5140    2.5230 h1        1 BDJ      0.080700
     28 H11        -1.6430   -1.6430    3.6760 ha        1 BDJ      0.151000
     29 H12        -2.4720   -3.9890    3.9250 ha        1 BDJ      0.138000
     30 H13        -3.6850   -5.0960    2.0470 ha        1 BDJ      0.146000
     31 H14        -3.2290   -1.5040   -0.3470 ha        1 BDJ      0.162000
@<TRIPOS>BOND
     1    1    2 1   
     2    1    5 1   
     3    1    7 2   
     4    2    6 1   
     5    2   18 1   
     6    3    4 2   
     7    4    5 1   
     8    4    6 1   
     9    5   10 1   
    10    6    8 1   
    11    6    9 1   
    12    7   19 1   
    13    8   20 1   
    14    8   21 1   
    15    8   22 1   
    16    9   23 1   
    17    9   24 1   
    18    9   25 1   
    19   10   11 1   
    20   10   26 1   
    21   10   27 1   
    22   11   12 ar  
    23   11   16 ar  
    24   12   13 ar  
    25   12   28 1   
    26   13   14 ar  
    27   13   29 1   
    28   14   15 ar  
    29   14   30 1   
    30   15   16 ar  
    31   15   17 1   
    32   16   31 1   
@<TRIPOS>SUBSTRUCTURE
     1 BDJ         1 TEMP              0 ****  ****    0 ROOT
