@<TRIPOS>MOLECULE
BDK
   67    61     1     0     0
SMALL
bcc


@<TRIPOS>ATOM
      1 C1         -1.4530    0.5290   -1.4610 c3        1 BDK      0.247600
      2 C2          0.0510    0.2390   -1.5350 c         1 BDK      0.553100
      3 C3          0.8970    0.2960   -0.2790 c3        1 BDK     -0.026000
      4 C4          1.5100    1.6840   -0.1430 c3        1 BDK     -0.068700
      5 C5          1.6330    2.3220   -1.5230 c3        1 BDK     -0.100600
      6 C6          0.6060    2.5620    0.7510 c3        1 BDK     -0.100600
      7 C7          2.7600   -0.9330    0.7830 c1        1 BDK      0.527500
      8 C8          4.0900   -1.6840    0.6060 c2        1 BDK      0.367800
      9 C9          3.8600   -2.2610    2.9550 c1        1 BDK      0.552500
     10 C10         4.4010   -2.5280    4.1890 c1        1 BDK     -0.019200
     11 C11         5.7670   -2.4950    4.3620 c1        1 BDK     -0.047500
     12 C12         6.0240   -1.9350    2.0940 c1        1 BDK      0.496800
     13 C13         6.8700   -1.6430    1.0020 c1        1 BDK     -0.203400
     14 C14         7.5470   -2.6260    0.1630 cg        1 BDK     -0.150000
     15 C15         8.5940   -1.8580   -0.7630 cg        1 BDK     -0.150000
     16 C16         8.5200   -0.4450   -0.4600 c1        1 BDK     -0.203400
     17 C17        -2.1750   -0.2230   -2.5930 c         1 BDK      0.637100
     18 C18        -4.6850   -0.0120   -2.4860 c3        1 BDK      0.081000
     19 C19        -5.5040    1.2880   -2.2980 c3        1 BDK      0.141800
     20 C20        -7.6410    1.6650   -1.7510 c3        1 BDK      0.130800
     21 C21        -8.7730    1.5370   -0.7450 c3        1 BDK      0.107900
     22 C22        -7.2710    0.8490    0.8350 c3        1 BDK      0.107900
     23 C23        -6.1510    0.9800   -0.1810 c3        1 BDK      0.130800
     24 N1          1.9250   -0.6670   -0.3630 n3        1 BDK     -0.413400
     25 N2          4.6650   -1.9680    1.9180 n1        1 BDK     -0.402400
     26 N3          6.5650   -2.2030    3.3300 n1        1 BDK     -0.483800
     27 N4          3.5450   -2.8350    5.2970 n3        1 BDK     -0.763400
     28 N5         -3.4230    0.3010   -3.1350 n         1 BDK     -0.530900
     29 N6         -6.6070    1.0410   -1.3620 n3        1 BDK     -0.724600
     30 O1          0.5630   -0.0470   -2.6000 o         1 BDK     -0.457100
     31 O2          2.3790   -0.6360    1.8880 o         1 BDK     -0.590500
     32 O3          2.6650   -2.4070    2.7720 o         1 BDK     -0.604500
     33 O4         -1.7260   -1.2820   -3.0050 o         1 BDK     -0.611100
     34 O5         -8.5880    0.3450    0.2130 os        1 BDK     -0.418600
     35 F1         -1.9290    0.1200   -0.2800 f         1 BDK     -0.215800
     36 F2         -1.6610    1.8430   -1.5960 f         1 BDK     -0.215800
     37 S1          7.4430   -0.2480    0.6530 ss        1 BDK      0.252800
     38 H3          0.3360    0.1080    0.5010 h1        1 BDK      0.114700
     39 H4          2.3960    1.6110    0.2620 hc        1 BDK      0.061700
     40 H51         2.0600    1.6810   -2.1450 hc        1 BDK      0.043867
     41 H52         0.7390    2.5570   -1.8560 hc        1 BDK      0.043867
     42 H53         2.1840    3.1340   -1.4600 hc        1 BDK      0.043867
     43 H61         1.0900    3.3970    0.9920 hc        1 BDK      0.043867
     44 H62         0.3750    2.0690    1.5690 hc        1 BDK      0.043867
     45 H63        -0.2180    2.7890    0.2620 hc        1 BDK      0.043867
     46 H81         4.7110   -1.1310    0.0900 h4        1 BDK      0.010300
     47 H82         3.9320   -2.5200    0.1340 h4        1 BDK      0.010300
     48 H11         6.1540   -2.6850    5.2410 ha        1 BDK      0.113500
     49 H14         7.3870   -3.5880    0.1680 DU        1 BDK      0.163667
     50 H15         9.1840   -2.2700   -1.4210 DU        1 BDK      0.163667
     51 H16         9.0550    0.2660   -0.8810 DU        1 BDK      0.163667
     52 H181       -5.1920   -0.6410   -3.0430 h1        1 BDK      0.074200
     53 H182       -4.5100   -0.4170   -1.6130 h1        1 BDK      0.074200
     54 H191       -5.8670    1.5710   -3.1600 h1        1 BDK      0.043700
     55 H192       -4.9240    1.9900   -1.9420 h1        1 BDK      0.043700
     56 H201       -7.4200    2.6120   -1.8670 h1        1 BDK      0.057450
     57 H202       -7.9310    1.2990   -2.6050 h1        1 BDK      0.057450
     58 H211       -8.8200    2.3630   -0.2160 h1        1 BDK      0.051450
     59 H212       -9.6100    1.4250   -1.2280 h1        1 BDK      0.051450
     60 H221       -7.4290    1.7220    1.2420 h1        1 BDK      0.051450
     61 H222       -6.9900    0.2200    1.5340 h1        1 BDK      0.051450
     62 H231       -5.5580    0.2050   -0.1070 h1        1 BDK      0.057450
     63 H232       -5.6420    1.7920    0.0070 h1        1 BDK      0.057450
     64 HN1         2.0490   -1.1330   -1.1340 hn        1 BDK      0.301700
     65 HN41        3.5400   -2.2890    6.0400 hn        1 BDK      0.398300
     66 HN42        3.0400   -3.5930    5.2850 hn        1 BDK      0.398300
     67 HN5        -3.4150    0.7960   -3.9030 hn        1 BDK      0.328500
@<TRIPOS>BOND
     1    1    2 1   
     2    1   17 1   
     3    1   35 1   
     4    1   36 1   
     5    2    3 1   
     6    2   30 2   
     7    3    4 1   
     8    3   24 1   
     9    3   38 1   
    10    4    5 1   
    11    4    6 1   
    12    4   39 1   
    13    5   40 1   
    14    5   41 1   
    15    5   42 1   
    16    6   43 1   
    17    6   44 1   
    18    6   45 1   
    19    7   24 2   
    20    7   31 2   
    21    8   25 2   
    22    8   46 1   
    23    8   47 1   
    24    9   25 2   
    25    9   32 2   
    26   10   11 3   
    27   10   27 1   
    28   11   48 1   
    29   12   26 3   
    30   13   14 3   
    31   13   37 1   
    32   14   15 1   
    33   15   16 3   
    34   16   37 1   
    35   17   28 1   
    36   17   33 2   
    37   18   19 1   
    38   18   28 1   
    39   18   52 1   
    40   18   53 1   
    41   19   29 1   
    42   19   54 1   
    43   19   55 1   
    44   20   21 1   
    45   20   29 1   
    46   20   56 1   
    47   20   57 1   
    48   21   34 1   
    49   21   58 1   
    50   21   59 1   
    51   22   23 1   
    52   22   34 1   
    53   22   60 1   
    54   22   61 1   
    55   23   29 1   
    56   23   62 1   
    57   23   63 1   
    58   24   64 1   
    59   27   65 1   
    60   27   66 1   
    61   28   67 1   
@<TRIPOS>SUBSTRUCTURE
     1 BDK         1 TEMP              0 ****  ****    0 ROOT
