@<TRIPOS>MOLECULE
BDK
   67    69     1     0     0
SMALL
bcc


@<TRIPOS>ATOM
      1 C1          2.8370    0.3850   -1.3460 c3        1 BDK      0.241600
      2 C2          2.5580   -0.7450   -0.3060 c         1 BDK      0.537100
      3 C3          2.8900   -0.4570    1.1570 c3        1 BDK      0.019700
      4 C4          4.2050   -1.1870    1.5360 c3        1 BDK     -0.077700
      5 C5          4.0600   -2.6920    1.5380 c3        1 BDK     -0.105600
      6 C6          5.3170   -0.7490    0.6080 c3        1 BDK     -0.105600
      7 C8          0.1480   -0.4450    3.8620 c3        1 BDK      0.009000
      8 C9         -0.9570   -2.3460    2.7800 c         1 BDK      0.672700
      9 C10        -2.1520   -2.8800    2.0740 cc        1 BDK     -0.005200
     10 C11        -3.1700   -1.9920    1.7750 cd        1 BDK      0.029600
     11 C12        -2.1120   -0.1990    2.8210 cc        1 BDK      0.543500
     12 C13        -2.1350    1.2060    3.2430 cc        1 BDK     -0.217000
     13 C14        -2.3080    1.6460    4.5490 cd        1 BDK     -0.126000
     14 C15        -2.3550    3.0680    4.6120 cd        1 BDK     -0.159000
     15 C16        -2.2230    3.6330    3.3570 cc        1 BDK     -0.177100
     16 C17         1.4470    0.9610   -1.8150 c         1 BDK      0.624100
     17 C18        -0.6100    0.4670   -3.0740 c3        1 BDK      0.087000
     18 C19        -0.5220    0.6730   -4.6070 c3        1 BDK      0.143800
     19 C20        -1.7880    0.6360   -6.6580 c3        1 BDK      0.130300
     20 C21        -3.1470    0.8660   -7.3270 c3        1 BDK      0.126400
     21 C22        -3.8250    2.2820   -5.5650 c3        1 BDK      0.126400
     22 C23        -2.4840    2.0800   -4.8500 c3        1 BDK      0.130300
     23 N1          1.7680   -0.8040    1.9940 n         1 BDK     -0.560900
     24 N2         -0.9900   -0.9910    3.1620 n         1 BDK     -0.359300
     25 N3         -3.1540   -0.6680    2.1430 nd        1 BDK     -0.579300
     26 N5          0.6440    0.0790   -2.4880 n         1 BDK     -0.549900
     27 N6         -1.8380    0.8240   -5.2120 n3        1 BDK     -0.725600
     28 O1          2.0720   -1.7960   -0.7170 o         1 BDK     -0.490100
     29 O3          0.0590   -3.0340    3.0250 o         1 BDK     -0.665500
     30 O4          1.1380    2.1260   -1.5270 o         1 BDK     -0.553100
     31 O5         -3.7000    2.1280   -6.9740 os        1 BDK     -0.413600
     32 F1          3.6450    1.3900   -0.8760 f         1 BDK     -0.208800
     33 F2          3.5640   -0.1020   -2.4140 f         1 BDK     -0.208800
     34 S1         -2.0580    2.4880    2.1720 ss        1 BDK      0.149200
     35 H3          3.0800    0.6580    1.2680 h1        1 BDK      0.122700
     36 H4          4.4670   -0.8530    2.5810 hc        1 BDK      0.069700
     37 H51         5.0620   -3.1690    1.6710 hc        1 BDK      0.046033
     38 H52         3.4020   -3.0310    2.3750 hc        1 BDK      0.046033
     39 H53         3.6230   -3.0530    0.5750 hc        1 BDK      0.046033
     40 H61         5.0960   -1.0470   -0.4470 hc        1 BDK      0.046033
     41 H62         5.4390    0.3620    0.6380 hc        1 BDK      0.046033
     42 H63         6.2800   -1.2230    0.9150 hc        1 BDK      0.046033
     43 H81         0.5730   -1.2460    4.5360 h1        1 BDK      0.106200
     44 H82        -0.1740    0.4310    4.4950 h1        1 BDK      0.106200
     45 H11        -4.0810   -2.2950    1.2280 h4        1 BDK      0.174000
     46 H14        -2.4100    0.9990    5.4230 ha        1 BDK      0.157000
     47 H15        -2.4800    3.6230    5.5440 ha        1 BDK      0.159000
     48 H16        -2.2200    4.7040    3.1530 h4        1 BDK      0.178000
     49 H181       -1.3610   -0.3430   -2.8470 h1        1 BDK      0.072700
     50 H182       -0.9540    1.4240   -2.5870 h1        1 BDK      0.072700
     51 H191        0.1430    1.5620   -4.8140 h1        1 BDK      0.041200
     52 H192       -0.0360   -0.2320   -5.0690 h1        1 BDK      0.041200
     53 H201       -1.0320    1.3230   -7.1400 h1        1 BDK      0.043200
     54 H202       -1.4700   -0.4250   -6.8560 h1        1 BDK      0.043200
     55 H211       -3.0250    0.9150   -8.4400 h1        1 BDK      0.054700
     56 H212       -3.8680    0.0510   -7.0520 h1        1 BDK      0.054700
     57 H221       -4.1790    3.3370   -5.4290 h1        1 BDK      0.054700
     58 H222       -4.5930    1.5620   -5.1760 h1        1 BDK      0.054700
     59 H231       -2.6750    2.0610   -3.7410 h1        1 BDK      0.043200
     60 H232       -1.8230    2.9670   -5.0740 h1        1 BDK      0.043200
     61 HN1         1.5160   -1.7690    2.0250 hn        1 BDK      0.343500
     62 HN41       -2.7000   -4.4890    0.9920 hn        1 BDK      0.402800
     63 HN42       -1.3360   -4.7150    1.9280 hn        1 BDK      0.402800
     64 HN5         1.0050   -0.8220   -2.7100 hn        1 BDK      0.332500
     65 C7          1.2930    0.0560    2.9630 c         1 BDK      0.645100
     66 N4         -2.2140   -4.2490    1.8290 nh        1 BDK     -0.791600
     67 O2          1.7580    1.1970    3.1340 o         1 BDK     -0.588100
@<TRIPOS>BOND
     1    1    2 1   
     2    1   16 1   
     3    1   32 1   
     4    1   33 1   
     5    2    3 1   
     6    2   28 2   
     7    3    4 1   
     8    3   23 1   
     9    3   35 1   
    10    4    5 1   
    11    4    6 1   
    12    4   36 1   
    13    5   37 1   
    14    5   38 1   
    15    5   39 1   
    16    6   40 1   
    17    6   41 1   
    18    6   42 1   
    19    7   24 1   
    20    7   43 1   
    21    7   44 1   
    22    7   65 1   
    23    8    9 1   
    24    8   24 1   
    25    8   29 2   
    26    9   10 2   
    27    9   66 1   
    28   10   25 1   
    29   10   45 1   
    30   11   12 1   
    31   11   24 1   
    32   11   25 2   
    33   12   13 2   
    34   12   34 1   
    35   13   14 1   
    36   13   46 1   
    37   14   15 2   
    38   14   47 1   
    39   15   34 1   
    40   15   48 1   
    41   16   26 1   
    42   16   30 2   
    43   17   18 1   
    44   17   26 1   
    45   17   49 1   
    46   17   50 1   
    47   18   27 1   
    48   18   51 1   
    49   18   52 1   
    50   19   20 1   
    51   19   27 1   
    52   19   53 1   
    53   19   54 1   
    54   20   31 1   
    55   20   55 1   
    56   20   56 1   
    57   21   22 1   
    58   21   31 1   
    59   21   57 1   
    60   21   58 1   
    61   22   27 1   
    62   22   59 1   
    63   22   60 1   
    64   23   61 1   
    65   23   65 1   
    66   26   64 1   
    67   62   66 1   
    68   63   66 1   
    69   65   67 2   
@<TRIPOS>SUBSTRUCTURE
     1 BDK         1 TEMP              0 ****  ****    0 ROOT
