@<TRIPOS>MOLECULE
BDK
   69    63     1     0     0
SMALL
bcc


@<TRIPOS>ATOM
      1 C1          1.0080   -0.4260   -0.1880 c3        1 BDK      0.231000
      2 C2          0.9220    0.2390    1.2310 c2        1 BDK      0.230000
      3 C3          0.0860    1.2980    1.3570 c1        1 BDK     -0.122000
      4 C4         -0.4170    2.5830    1.5210 c3        1 BDK     -0.064000
      5 C5          0.3700    3.7150    0.8900 c3        1 BDK     -0.209000
      6 C6         -1.9100    2.7440    1.3020 c3        1 BDK     -0.209000
      7 C8          6.5530   -2.7220    1.9480 c2        1 BDK     -0.884000
      8 C9          5.8400   -4.2370    3.7950 c2        1 BDK      0.309000
      9 C10         6.3000   -4.8560    5.0680 c2        1 BDK     -0.031000
     10 C11         7.5450   -4.4830    5.5690 c2        1 BDK     -0.132000
     11 C12         7.9470   -3.0080    3.8410 c2        1 BDK     -0.003000
     12 C13         8.7400   -2.0010    3.0380 c3        1 BDK     -0.332000
     13 C14        10.0730   -2.2880    2.5580 c1        1 BDK     -0.079000
     14 C15        11.0480   -3.0480    3.1910 c2        1 BDK     -0.521000
     15 C16        12.2700   -3.2310    2.6720 c1        1 BDK      0.481000
     16 C17        -0.3980   -0.9960   -0.5880 c2        1 BDK      0.293000
     17 C18        -3.4540   -5.4010   -0.0490 c1        1 BDK      0.103000
     18 C19        -2.1990   -4.7610   -0.3030 c3        1 BDK     -0.110000
     19 C20         0.0050   -6.3300   -2.4710 c3        1 BDK     -0.279000
     20 C21        -4.2410  -10.5450   -0.4500 c1        1 BDK      0.232000
     21 C22        -4.6810   -6.2580    1.9050 c1        1 BDK      0.108000
     22 C23        -3.9660   -6.3410    0.8310 c2        1 BDK     -0.145000
     23 N1          3.7070   -2.0130    2.4140 n+        1 BDK     -0.125000
     24 N2          6.6920   -3.2890    3.2400 n         1 BDK     -0.140000
     25 N3          8.3640   -3.5570    4.9700 n2        1 BDK     -0.109000
     26 N5         -1.1840   -0.2400   -1.3950 nt        1 BDK     -0.389000
     27 N6         -1.1440   -5.0320    0.6350 n8        1 BDK     -0.385000
     28 O1          1.5630   -0.3270    2.1550 o         1 BDK     -0.444000
     29 O4         -0.7550   -2.1010   -0.1310 o         1 BDK     -0.399000
     30 O5         -4.1280   -9.4260   -0.0950 o         1 BDK     -0.217500
     31 F1          1.5380    0.4260   -1.1300 f         1 BDK     -0.144000
     32 F2          1.9410   -1.4430   -0.1630 f         1 BDK     -0.144000
     33 S1          7.7270   -1.6690    1.5780 s4        1 BDK      1.207000
     34 H3          3.1020   -1.7950    1.6150 hn        1 BDK      0.263250
     35 H4         -0.2290    2.6200    2.6950 hc        1 BDK      0.262000
     36 H51         1.4630    3.6010    1.0800 hc        1 BDK      0.099833
     37 H52         0.0300    4.6910    1.3160 hc        1 BDK      0.099833
     38 H53         0.1960    3.7360   -0.2130 hc        1 BDK      0.099833
     39 H61        -2.4760    1.9100    1.7810 hc        1 BDK      0.099833
     40 H62        -2.2490    3.7130    1.7410 hc        1 BDK      0.099833
     41 H63        -2.1350    2.7540    0.2080 hc        1 BDK      0.099833
     42 H81         5.9810   -3.3320    1.2390 h5        1 BDK      0.178000
     43 H82         4.7100   -1.9090    2.1630 hn        1 BDK      0.263250
     44 H11         7.9540   -4.9060    6.5050 h4        1 BDK      0.190000
     45 H14         8.8060   -1.0280    3.6150 h1        1 BDK      0.211000
     46 H15        10.8690   -3.5340    4.1840 ha        1 BDK      0.210000
     47 H16         8.3780   -2.2110    0.5930 hs        1 BDK     -0.156000
     48 H181        1.1430   -3.1680    1.8160 ha        1 BDK      0.002000
     49 H182        0.7920   -2.6000    1.6960 ha        1 BDK      0.002000
     50 H191       -2.4350   -3.6380   -0.3630 h1        1 BDK      0.200000
     51 H192       -1.9420   -5.0440   -1.3870 h1        1 BDK      0.200000
     52 H201       -0.7230   -4.1860    0.9720 hn        1 BDK      0.189500
     53 H202        0.3540   -5.3710   -2.0300 hc        1 BDK      0.070500
     54 H211        0.8490   -6.8130   -3.0120 hc        1 BDK      0.070500
     55 H212       -0.8220   -6.1350   -3.1890 hc        1 BDK      0.070500
     56 H221       -5.3300   -6.2030    2.7580 ha        1 BDK      0.289000
     57 H222       -3.8510   -7.4100    0.4100 ha        1 BDK      0.344000
     58 H231       -0.4470   -5.6360    0.2490 hn        1 BDK      0.189500
     59 H232       -0.3490   -7.0090   -1.6650 hc        1 BDK      0.070500
     60 HN1         3.4600   -1.3800    3.1740 hn        1 BDK      0.263250
     61 HN41        5.8630   -6.3660    6.3400 hn        1 BDK      0.214500
     62 HN42        4.7000   -6.0830    5.1610 hn        1 BDK      0.214500
     63 HN5        -0.8340    0.5810   -1.8280 hn        1 BDK      0.252000
     64 C7         -0.0150    2.9640    4.7360 c1        1 BDK      0.232000
     65 N4          5.4330   -5.7110    5.7250 nv        1 BDK     -0.310000
     66 O2          0.0840    3.1790    5.8770 o         1 BDK     -0.217500
     67 H12         3.5480   -2.9860    2.7110 hn        1 BDK      0.263250
     68 H521       -2.0770   -0.5750   -1.6710 hn        1 BDK      0.252000
     69 O3          4.7310   -4.4900    3.2540 o         1 BDK     -0.461000
@<TRIPOS>BOND
     1    1    2 1   
     2    1   16 1   
     3    1   31 1   
     4    1   32 1   
     5    2    3 1   
     6    2   28 1   
     7    3    4 1   
     8    4    5 1   
     9    4    6 1   
    10    4   35 1   
    11    5   36 1   
    12    5   37 1   
    13    5   38 1   
    14    6   39 1   
    15    6   40 1   
    16    6   41 1   
    17    7   24 1   
    18    7   33 1   
    19    7   42 1   
    20    8    9 1   
    21    8   24 1   
    22    8   69 1   
    23    9   10 1   
    24    9   65 1   
    25   10   25 1   
    26   10   44 1   
    27   11   12 1   
    28   11   24 1   
    29   11   25 1   
    30   12   13 1   
    31   12   33 1   
    32   12   45 1   
    33   13   14 1   
    34   14   15 1   
    35   14   46 1   
    36   16   26 1   
    37   16   29 1   
    38   17   18 1   
    39   17   22 1   
    40   18   27 1   
    41   18   50 1   
    42   18   51 1   
    43   19   53 1   
    44   19   54 1   
    45   19   55 1   
    46   19   59 1   
    47   20   30 1   
    48   21   22 1   
    49   21   56 1   
    50   22   57 1   
    51   23   34 1   
    52   23   43 1   
    53   23   60 1   
    54   23   67 1   
    55   26   63 1   
    56   26   68 1   
    57   27   52 1   
    58   27   58 1   
    59   33   47 1   
    60   48   49 1   
    61   61   65 1   
    62   62   65 1   
    63   64   66 1   
@<TRIPOS>SUBSTRUCTURE
     1 BDK         1 TEMP              0 ****  ****    0 ROOT
