@<TRIPOS>MOLECULE
BDL
   45    46     1     0     0
SMALL
bcc


@<TRIPOS>ATOM
      1 O4          2.4390   -1.8970    0.7890 o         1 BDL     -0.772300
      2 C15         3.2780   -1.0410    1.1890 c         1 BDL      0.927600
      3 O3          4.4860   -0.9400    0.9150 o         1 BDL     -0.772300
      4 C17         2.7060    0.0430    2.2160 c3        1 BDL     -0.041500
      5 C16         2.9170    1.4270    1.6230 c3        1 BDL     -0.092400
      6 C14         2.7480    2.5620    2.6220 c3        1 BDL     -0.075700
      7 C18         3.9650    2.6900    3.5160 c3        1 BDL     -0.090600
      8 C13         2.5080    3.8650    1.8850 c3        1 BDL     -0.090600
      9 N1          1.2740   -0.2610    2.5200 n4        1 BDL     -0.716900
     10 S1          0.9210   -1.1880    4.0440 sy        1 BDL      1.464200
     11 O1          0.7600   -0.1780    4.9970 o         1 BDL     -0.609800
     12 O2         -0.2140   -1.9090    3.6790 o         1 BDL     -0.609800
     13 C7          2.2320   -2.0960    4.2930 ca        1 BDL     -0.500500
     14 C5          3.0450   -1.8730    5.4260 ca        1 BDL      0.023500
     15 C3          4.1230   -2.6900    5.7100 ca        1 BDL     -0.153000
     16 C6          2.5750   -3.1640    3.4400 ca        1 BDL      0.023500
     17 C4          3.6560   -3.9910    3.7230 ca        1 BDL     -0.153000
     18 C1          4.4440   -3.7670    4.8610 cp        1 BDL      0.090000
     19 C2          5.5820   -4.6300    5.1610 cp        1 BDL     -0.079000
     20 C9          5.5030   -6.0120    4.9290 ca        1 BDL     -0.098500
     21 C12         6.5900   -6.8340    5.2180 ca        1 BDL     -0.132000
     22 C11         7.7660   -6.2870    5.7310 ca        1 BDL     -0.107000
     23 C10         7.8540   -4.9140    5.9580 ca        1 BDL     -0.132000
     24 C8          6.7680   -4.0870    5.6780 ca        1 BDL     -0.098500
     25 H17         3.2870   -0.0520    3.1760 hx        1 BDL      0.082700
     26 H16         3.9670    1.4350    1.2140 hc        1 BDL      0.082200
     27 H16A        2.2260    1.5800    0.7510 hc        1 BDL      0.082200
     28 H14         1.8530    2.3620    3.2760 hc        1 BDL      0.026700
     29 H18         3.8110    3.5060    4.2620 hc        1 BDL      0.038033
     30 H18A        4.1520    1.7370    4.0670 hc        1 BDL      0.038033
     31 H18B        4.8720    2.9280    2.9100 hc        1 BDL      0.038033
     32 H13         1.5690    3.8090    1.2830 hc        1 BDL      0.038033
     33 H13A        2.4150    4.7080    2.6110 hc        1 BDL      0.038033
     34 H13B        3.3580    4.0840    1.1940 hc        1 BDL      0.038033
     35 HN1         0.9570   -0.8340    1.7050 hn        1 BDL      0.462800
     36 H5          2.8010   -1.0310    6.1010 ha        1 BDL      0.175500
     37 H3          4.7350   -2.5030    6.6070 ha        1 BDL      0.160500
     38 H6          2.0010   -3.3260    2.5040 ha        1 BDL      0.175500
     39 H4          3.9110   -4.8060    3.0260 ha        1 BDL      0.160500
     40 H9          4.5770   -6.4480    4.5240 ha        1 BDL      0.139000
     41 H12         6.5190   -7.9170    5.0380 ha        1 BDL      0.140000
     42 H11         8.6250   -6.9380    5.9540 ha        1 BDL      0.138000
     43 H10         8.7840   -4.4790    6.3550 ha        1 BDL      0.140000
     44 H8          6.8460   -3.0020    5.8470 ha        1 BDL      0.139000
     45 H121        0.7460    0.6100    2.5070 hn        1 BDL      0.462800
@<TRIPOS>BOND
     1    1    2 1   
     2    2    3 1   
     3    2    4 1   
     4    4    5 1   
     5    4    9 1   
     6    4   25 1   
     7    5    6 1   
     8    5   26 1   
     9    5   27 1   
    10    6    7 1   
    11    6    8 1   
    12    6   28 1   
    13    7   29 1   
    14    7   30 1   
    15    7   31 1   
    16    8   32 1   
    17    8   33 1   
    18    8   34 1   
    19    9   10 1   
    20    9   35 1   
    21    9   45 1   
    22   10   11 2   
    23   10   12 2   
    24   10   13 1   
    25   13   14 ar  
    26   13   16 ar  
    27   14   15 ar  
    28   14   36 1   
    29   15   18 ar  
    30   15   37 1   
    31   16   17 ar  
    32   16   38 1   
    33   17   18 ar  
    34   17   39 1   
    35   18   19 1   
    36   19   20 ar  
    37   19   24 ar  
    38   20   21 ar  
    39   20   40 1   
    40   21   22 ar  
    41   21   41 1   
    42   22   23 ar  
    43   22   42 1   
    44   23   24 ar  
    45   23   43 1   
    46   24   44 1   
@<TRIPOS>SUBSTRUCTURE
     1 BDL         1 TEMP              0 ****  ****    0 ROOT
