@<TRIPOS>MOLECULE
BDL
   44    37     1     0     0
SMALL
bcc


@<TRIPOS>ATOM
      1 O4         -4.3770    1.4420   -1.8780 o         1 BDL     -0.548000
      2 C15        -3.3850    1.5820   -1.1250 c1        1 BDL      0.343000
      3 O3         -3.5390    1.5740    0.1220 os        1 BDL     -0.565000
      4 C17        -2.0530    1.9180   -1.7040 c3        1 BDL     -0.057000
      5 C16        -1.6510    3.3020   -1.2670 c3        1 BDL     -0.154000
      6 C14        -2.1440    4.3310   -2.3040 c3        1 BDL     -0.107000
      7 C18        -3.0720    5.3070   -1.6370 c3        1 BDL     -0.204500
      8 C13        -0.9630    5.0730   -2.8780 c3        1 BDL     -0.204500
      9 N1         -1.0720    0.9620   -1.2420 n3        1 BDL     -0.888000
     10 S1         -1.5170   -0.5990   -0.9420 s4        1 BDL      2.051800
     11 O1         -2.7600   -0.6590   -0.2450 o         1 BDL     -0.563400
     12 O2         -1.8440   -1.2890   -2.1560 o         1 BDL     -0.563400
     13 C7         -0.2480   -1.4340   -0.0520 c1        1 BDL     -0.768000
     14 C5         -0.1280   -1.2480    1.3230 c2        1 BDL     -0.024000
     15 C3          0.8020   -1.9770    2.0430 c1        1 BDL     -0.150000
     16 C6          0.5630   -2.3500   -0.7000 c1        1 BDL     -0.022000
     17 C4          1.4970   -3.0830    0.0220 c1        1 BDL     -0.132500
     18 C1          1.6150   -2.8950    1.3950 c1        1 BDL     -0.019000
     19 C2          2.6040   -3.5590    2.1010 c1        1 BDL     -0.019000
     20 C9          2.3190   -4.7660    2.7270 c1        1 BDL     -0.130500
     21 C12         3.3020   -5.4190    3.4550 c1        1 BDL     -0.130500
     22 C11         4.5760   -4.8630    3.5580 c1        1 BDL     -0.130500
     23 C10         4.8610   -3.6550    2.9320 c1        1 BDL     -0.130500
     24 C8          3.8780   -3.0040    2.2050 c1        1 BDL     -0.132500
     25 H17        -2.1050    1.8860   -2.6850 h1        1 BDL      0.098000
     26 H16        -0.6820    3.3520   -1.1950 hc        1 BDL      0.065500
     27 H16A       -2.0570    3.5000   -0.3890 hc        1 BDL      0.065500
     28 H14        -2.6180    3.8680   -3.0210 hc        1 BDL      0.124000
     29 H18        -3.8350    4.8250   -1.2590 hc        1 BDL      0.065167
     30 H18A       -2.5960    5.7730   -0.9240 hc        1 BDL      0.065167
     31 H18B       -3.3920    5.9580   -2.2980 hc        1 BDL      0.065167
     32 H13        -0.4340    4.4650   -3.4360 hc        1 BDL      0.065167
     33 H13A       -1.2840    5.8270   -3.4260 hc        1 BDL      0.065167
     34 H13B       -0.4040    5.4140   -2.1460 hc        1 BDL      0.065167
     35 HN1        -0.1990    1.2230   -1.1200 hn        1 BDL      0.279000
     36 H5         -0.7000   -0.6010    1.7800 ha        1 BDL      0.149000
     37 H3          0.9180   -1.8100    3.0000 ha        1 BDL      0.131000
     38 H6          0.4790   -2.4810   -1.6630 ha        1 BDL      0.157000
     39 H4          2.0330   -3.7540   -0.4220 ha        1 BDL      0.136000
     40 H9          1.4090   -5.1370    2.6880 ha        1 BDL      0.128750
     41 H12         3.1000   -6.2770    3.9000 ha        1 BDL      0.128750
     42 H11         5.2680   -5.3210    4.0700 ha        1 BDL      0.128750
     43 H10         5.7650   -3.2610    3.0060 ha        1 BDL      0.128750
     44 H8          4.0720   -2.1390    1.7840 ha        1 BDL      0.136000
@<TRIPOS>BOND
     1    1    2 1   
     2    2    4 1   
     3    4    5 1   
     4    4    9 1   
     5    4   25 1   
     6    5    6 1   
     7    5   26 1   
     8    5   27 1   
     9    6    7 1   
    10    6    8 1   
    11    6   28 1   
    12    7   29 1   
    13    7   30 1   
    14    7   31 1   
    15    8   32 1   
    16    8   33 1   
    17    8   34 1   
    18    9   10 1   
    19    9   35 1   
    20   10   11 1   
    21   10   12 1   
    22   13   14 1   
    23   13   16 1   
    24   14   15 1   
    25   14   36 1   
    26   15   37 1   
    27   16   38 1   
    28   17   18 1   
    29   17   39 1   
    30   19   24 1   
    31   20   21 1   
    32   20   40 1   
    33   21   41 1   
    34   22   23 1   
    35   22   42 1   
    36   23   43 1   
    37   24   44 1   
@<TRIPOS>SUBSTRUCTURE
     1 BDL         1 TEMP              0 ****  ****    0 ROOT
