@<TRIPOS>MOLECULE
BDL
   45    46     1     0     0
SMALL
bcc


@<TRIPOS>ATOM
      1 O4          2.4440   -1.9730    0.8200 o         1 BDL     -0.773800
      2 C15         3.3380   -1.1770    1.2250 c         1 BDL      0.926600
      3 O3          4.5630   -1.2060    1.0160 o         1 BDL     -0.773800
      4 C17         2.8200    0.0100    2.1620 c3        1 BDL     -0.040500
      5 C16         3.1570    1.3320    1.4900 c3        1 BDL     -0.092400
      6 C14         3.0460    2.5410    2.4080 c3        1 BDL     -0.075700
      7 C18         4.2370    2.6310    3.3400 c3        1 BDL     -0.091100
      8 C13         2.9380    3.8070    1.5810 c3        1 BDL     -0.091100
      9 N1          1.3610   -0.1640    2.4320 ny        1 BDL     -0.715900
     10 S1          0.8890   -0.9930    3.9830 sy        1 BDL      1.465200
     11 O1          0.7680    0.0690    4.8820 o         1 BDL     -0.609300
     12 O2         -0.2810   -1.6500    3.6070 o         1 BDL     -0.609300
     13 C7          2.1250   -1.9750    4.3150 ca        1 BDL     -0.502500
     14 C5          2.9270   -1.7480    5.4570 ca        1 BDL      0.023500
     15 C3          3.9530   -2.6100    5.7970 ca        1 BDL     -0.152000
     16 C6          2.4170   -3.1020    3.5220 ca        1 BDL      0.023500
     17 C4          3.4510   -3.9690    3.8570 ca        1 BDL     -0.152000
     18 C1          4.2360   -3.7330    4.9940 cp        1 BDL      0.091000
     19 C2          5.3380   -4.6270    5.3350 cp        1 BDL     -0.084000
     20 C9          6.1650   -5.1410    4.3240 ca        1 BDL     -0.099000
     21 C12         7.2210   -5.9890    4.6490 ca        1 BDL     -0.133000
     22 C11         7.4570   -6.3380    5.9790 ca        1 BDL     -0.108000
     23 C10         6.6370   -5.8310    6.9880 ca        1 BDL     -0.133000
     24 C8          5.5850   -4.9760    6.6710 ca        1 BDL     -0.099000
     25 H17         3.3620   -0.0660    3.1460 hx        1 BDL      0.082700
     26 H16         4.2180    1.2340    1.1210 hc        1 BDL      0.081700
     27 H16A        2.5090    1.4780    0.5850 hc        1 BDL      0.081700
     28 H14         2.1150    2.4550    3.0370 hc        1 BDL      0.026700
     29 H18         5.1810    2.7560    2.7570 hc        1 BDL      0.038033
     30 H18A        4.1240    3.5060    4.0250 hc        1 BDL      0.038033
     31 H18B        4.3270    1.7060    3.9590 hc        1 BDL      0.038033
     32 H13         2.0190    3.7840    0.9460 hc        1 BDL      0.038033
     33 H13A        2.8870    4.7000    2.2480 hc        1 BDL      0.038033
     34 H13B        3.8260    3.9130    0.9130 hc        1 BDL      0.038033
     35 HN1         0.9060    0.7450    2.3660 hn        1 BDL      0.462300
     36 H5          2.7220   -0.8630    6.0860 ha        1 BDL      0.175000
     37 H3          4.5680   -2.4110    6.6890 ha        1 BDL      0.160000
     38 H6          1.8420   -3.2820    2.5890 ha        1 BDL      0.175000
     39 H4          3.6620   -4.8360    3.2100 ha        1 BDL      0.160000
     40 H9          5.9870   -4.8590    3.2730 ha        1 BDL      0.144000
     41 H12         7.8690   -6.3830    3.8520 ha        1 BDL      0.140000
     42 H11         8.2900   -7.0110    6.2330 ha        1 BDL      0.138000
     43 H10         6.8210   -6.1070    8.0370 ha        1 BDL      0.140000
     44 H8          4.9380   -4.5810    7.4690 ha        1 BDL      0.144000
     45 H121        1.0210   -0.7440    1.6320 hn        1 BDL      0.462300
@<TRIPOS>BOND
     1    1    2 1   
     2    2    3 1   
     3    2    4 1   
     4    4    5 1   
     5    4    9 1   
     6    4   25 1   
     7    5    6 1   
     8    5   26 1   
     9    5   27 1   
    10    6    7 1   
    11    6    8 1   
    12    6   28 1   
    13    7   29 1   
    14    7   30 1   
    15    7   31 1   
    16    8   32 1   
    17    8   33 1   
    18    8   34 1   
    19    9   10 1   
    20    9   35 1   
    21    9   45 1   
    22   10   11 2   
    23   10   12 2   
    24   10   13 1   
    25   13   14 ar  
    26   13   16 ar  
    27   14   15 ar  
    28   14   36 1   
    29   15   18 ar  
    30   15   37 1   
    31   16   17 ar  
    32   16   38 1   
    33   17   18 ar  
    34   17   39 1   
    35   18   19 1   
    36   19   20 ar  
    37   19   24 ar  
    38   20   21 ar  
    39   20   40 1   
    40   21   22 ar  
    41   21   41 1   
    42   22   23 ar  
    43   22   42 1   
    44   23   24 ar  
    45   23   43 1   
    46   24   44 1   
@<TRIPOS>SUBSTRUCTURE
     1 BDL         1 TEMP              0 ****  ****    0 ROOT
