@<TRIPOS>MOLECULE
BDL
   44    45     1     0     0
SMALL
bcc


@<TRIPOS>ATOM
      1 O4         -4.1340    0.0900   -2.6430 o         1 BDL     -0.820300
      2 C15        -4.3120   -0.6510   -1.6390 c         1 BDL      0.922600
      3 O3         -5.2850   -1.4230   -1.4490 o         1 BDL     -0.820300
      4 C17        -3.2090   -0.6450   -0.4990 c3        1 BDL      0.094500
      5 C16        -2.3860   -1.9250   -0.6870 c3        1 BDL     -0.086400
      6 C14        -1.7020   -2.4150    0.5810 c3        1 BDL     -0.072700
      7 C18        -2.6880   -3.0920    1.5120 c3        1 BDL     -0.084100
      8 C13        -0.5800   -3.3730    0.2320 c3        1 BDL     -0.084100
      9 N1         -2.4450    0.5820   -0.5290 n3        1 BDL     -0.920100
     10 S1         -1.6840    1.2840    0.6540 sy        1 BDL      1.498200
     11 O1         -1.8280    2.6960    0.5890 o         1 BDL     -0.676300
     12 O2         -1.9460    0.7200    1.9300 o         1 BDL     -0.676300
     13 C7         -0.0200    0.9800    0.3090 ca        1 BDL     -0.316500
     14 C5          0.5690    1.4660   -0.8610 ca        1 BDL     -0.025500
     15 C3          1.9170    1.2500   -1.1290 ca        1 BDL     -0.149000
     16 C6          0.7750    0.2710    1.2120 ca        1 BDL     -0.025500
     17 C4          2.1270    0.0530    0.9600 ca        1 BDL     -0.149000
     18 C1          2.7110    0.5390   -0.2180 cp        1 BDL     -0.007000
     19 C2          4.1290    0.3080   -0.4940 cp        1 BDL     -0.032000
     20 C9          5.0790    0.4130    0.5330 ca        1 BDL     -0.117000
     21 C12         6.4290    0.1940    0.2670 ca        1 BDL     -0.135000
     22 C11         6.8460   -0.1350   -1.0220 ca        1 BDL     -0.134000
     23 C10         5.9070   -0.2440   -2.0480 ca        1 BDL     -0.135000
     24 C8          4.5560   -0.0230   -1.7880 ca        1 BDL     -0.117000
     25 H17        -3.7500   -0.7020    0.4900 h1        1 BDL      0.055700
     26 H16        -3.0980   -2.7180   -1.0460 hc        1 BDL      0.054700
     27 H16A       -1.6220   -1.7730   -1.4920 hc        1 BDL      0.054700
     28 H14        -1.2590   -1.5300    1.1230 hc        1 BDL      0.040700
     29 H18        -3.1400   -3.9870    1.0200 hc        1 BDL      0.026533
     30 H18A       -2.1750   -3.4200    2.4480 hc        1 BDL      0.026533
     31 H18B       -3.5100   -2.3870    1.7840 hc        1 BDL      0.026533
     32 H13         0.1910   -2.8620   -0.3920 hc        1 BDL      0.026533
     33 H13A       -0.0900   -3.7550    1.1600 hc        1 BDL      0.026533
     34 H13B       -0.9780   -4.2450   -0.3420 hc        1 BDL      0.026533
     35 HN1        -2.5340    1.0100   -1.4340 hn        1 BDL      0.482800
     36 H5         -0.0430    2.0360   -1.5800 ha        1 BDL      0.151500
     37 H3          2.3640    1.6430   -2.0550 ha        1 BDL      0.130500
     38 H6          0.3180   -0.1190    2.1400 ha        1 BDL      0.151500
     39 H4          2.7360   -0.5130    1.6800 ha        1 BDL      0.130500
     40 H9          4.7530    0.6770    1.5500 ha        1 BDL      0.139000
     41 H12         7.1670    0.2830    1.0770 ha        1 BDL      0.127000
     42 H11         7.9110   -0.3090   -1.2300 ha        1 BDL      0.124000
     43 H10         6.2310   -0.5070   -3.0650 ha        1 BDL      0.127000
     44 H8          3.8160   -0.1150   -2.5980 ha        1 BDL      0.139000
@<TRIPOS>BOND
     1    1    2 1   
     2    2    3 1   
     3    2    4 1   
     4    4    5 1   
     5    4    9 1   
     6    4   25 1   
     7    5    6 1   
     8    5   26 1   
     9    5   27 1   
    10    6    7 1   
    11    6    8 1   
    12    6   28 1   
    13    7   29 1   
    14    7   30 1   
    15    7   31 1   
    16    8   32 1   
    17    8   33 1   
    18    8   34 1   
    19    9   10 1   
    20    9   35 1   
    21   10   11 2   
    22   10   12 2   
    23   10   13 1   
    24   13   14 ar  
    25   13   16 ar  
    26   14   15 ar  
    27   14   36 1   
    28   15   18 ar  
    29   15   37 1   
    30   16   17 ar  
    31   16   38 1   
    32   17   18 ar  
    33   17   39 1   
    34   18   19 1   
    35   19   20 ar  
    36   19   24 ar  
    37   20   21 ar  
    38   20   40 1   
    39   21   22 ar  
    40   21   41 1   
    41   22   23 ar  
    42   22   42 1   
    43   23   24 ar  
    44   23   43 1   
    45   24   44 1   
@<TRIPOS>SUBSTRUCTURE
     1 BDL         1 TEMP              0 ****  ****    0 ROOT
