@<TRIPOS>MOLECULE
BDL
   45    46     1     0     0
SMALL
bcc


@<TRIPOS>ATOM
      1 O4          2.6240   -1.8290    0.8630 o         1 BDL     -0.772300
      2 C15         3.4260   -0.9480    1.2830 c         1 BDL      0.928600
      3 O3          4.6390   -0.8140    1.0510 o         1 BDL     -0.772300
      4 C17         2.7880    0.1300    2.2790 c3        1 BDL     -0.042500
      5 C16         2.9560    1.5040    1.6520 c3        1 BDL     -0.090400
      6 C14         2.4910    2.6700    2.5090 c3        1 BDL     -0.075700
      7 C18         3.0990    2.6410    3.8950 c3        1 BDL     -0.095100
      8 C13         2.8380    3.9710    1.8090 c3        1 BDL     -0.095100
      9 N1          1.3690   -0.2330    2.5690 n4        1 BDL     -0.716900
     10 S1          1.0610   -1.0970    4.1360 sy        1 BDL      1.464200
     11 O1          1.0040   -0.0620    5.0740 o         1 BDL     -0.610300
     12 O2         -0.1240   -1.7730    3.8530 o         1 BDL     -0.610300
     13 C7          2.3420   -2.0620    4.3280 ca        1 BDL     -0.499500
     14 C5          3.2120   -1.8690    5.4250 ca        1 BDL      0.026000
     15 C3          4.2700   -2.7250    5.6630 ca        1 BDL     -0.151000
     16 C6          2.6080   -3.1400    3.4630 ca        1 BDL      0.026000
     17 C4          3.6680   -4.0080    3.7000 ca        1 BDL     -0.151000
     18 C1          4.5130   -3.8140    4.8010 cp        1 BDL      0.090000
     19 C2          5.6310   -4.7190    5.0530 cp        1 BDL     -0.079000
     20 C9          5.4890   -6.0970    4.8320 ca        1 BDL     -0.099000
     21 C12         6.5560   -6.9590    5.0750 ca        1 BDL     -0.132000
     22 C11         7.7750   -6.4550    5.5280 ca        1 BDL     -0.107000
     23 C10         7.9250   -5.0850    5.7430 ca        1 BDL     -0.132000
     24 C8          6.8590   -4.2190    5.5100 ca        1 BDL     -0.099000
     25 H17         3.3560    0.0830    3.2500 hx        1 BDL      0.081700
     26 H16         4.0580    1.6050    1.4380 hc        1 BDL      0.082200
     27 H16A        2.4260    1.5370    0.6630 hc        1 BDL      0.082200
     28 H14         1.3690    2.6320    2.6160 hc        1 BDL      0.022700
     29 H18         2.9080    3.6080    4.4210 hc        1 BDL      0.040033
     30 H18A        4.2030    2.4840    3.8360 hc        1 BDL      0.040033
     31 H18B        2.6510    1.8200    4.5070 hc        1 BDL      0.040033
     32 H13         2.3990    3.9910    0.7830 hc        1 BDL      0.040033
     33 H13A        2.4380    4.8390    2.3860 hc        1 BDL      0.040033
     34 H13B        3.9460    4.0820    1.7230 hc        1 BDL      0.040033
     35 HN1         0.7950    0.6070    2.5070 hn        1 BDL      0.463300
     36 H5          3.0320   -1.0160    6.1060 ha        1 BDL      0.172000
     37 H3          4.9280   -2.5600    6.5300 ha        1 BDL      0.160000
     38 H6          1.9920   -3.2800    2.5510 ha        1 BDL      0.172000
     39 H4          3.8630   -4.8310    2.9930 ha        1 BDL      0.160000
     40 H9          4.5290   -6.4990    4.4730 ha        1 BDL      0.139000
     41 H12         6.4360   -8.0390    4.9030 ha        1 BDL      0.139500
     42 H11         8.6180   -7.1380    5.7140 ha        1 BDL      0.138000
     43 H10         8.8880   -4.6840    6.0930 ha        1 BDL      0.139500
     44 H8          6.9860   -3.1370    5.6680 ha        1 BDL      0.139000
     45 H121        1.0950   -0.8560    1.7760 hn        1 BDL      0.463300
@<TRIPOS>BOND
     1    1    2 1   
     2    2    3 1   
     3    2    4 1   
     4    4    5 1   
     5    4    9 1   
     6    4   25 1   
     7    5    6 1   
     8    5   26 1   
     9    5   27 1   
    10    6    7 1   
    11    6    8 1   
    12    6   28 1   
    13    7   29 1   
    14    7   30 1   
    15    7   31 1   
    16    8   32 1   
    17    8   33 1   
    18    8   34 1   
    19    9   10 1   
    20    9   35 1   
    21    9   45 1   
    22   10   11 2   
    23   10   12 2   
    24   10   13 1   
    25   13   14 ar  
    26   13   16 ar  
    27   14   15 ar  
    28   14   36 1   
    29   15   18 ar  
    30   15   37 1   
    31   16   17 ar  
    32   16   38 1   
    33   17   18 ar  
    34   17   39 1   
    35   18   19 1   
    36   19   20 ar  
    37   19   24 ar  
    38   20   21 ar  
    39   20   40 1   
    40   21   22 ar  
    41   21   41 1   
    42   22   23 ar  
    43   22   42 1   
    44   23   24 ar  
    45   23   43 1   
    46   24   44 1   
@<TRIPOS>SUBSTRUCTURE
     1 BDL         1 TEMP              0 ****  ****    0 ROOT
