@<TRIPOS>MOLECULE
BDM
   55    56     1     0     0
SMALL
bcc


@<TRIPOS>ATOM
      1 N1          4.0710   -3.5360    1.7250 na        1 BDM     -0.727000
      2 C2          2.8940   -3.8740    2.4570 cc        1 BDM      0.778100
      3 N2          3.1080   -4.5930    3.6780 nh        1 BDM     -0.876800
      4 N3          1.6710   -3.5770    2.0560 nd        1 BDM     -0.788000
      5 C4          1.4500   -2.9830    0.7700 cd        1 BDM      0.696600
      6 N4          0.2730   -2.7020    0.3110 n2        1 BDM     -0.801100
      7 C5          2.6650   -2.6850   -0.0460 cd        1 BDM     -0.225800
      8 C6          3.8890   -3.0060    0.4520 cc        1 BDM      0.043000
      9 C7          2.5360   -2.0460   -1.3830 c3        1 BDM      0.022100
     10 C8          2.4620   -0.5560   -1.2910 ca        1 BDM      0.007700
     11 C9          1.2350    0.0930   -1.3960 ca        1 BDM     -0.216000
     12 C10         1.1690    1.4940   -1.3160 ca        1 BDM      0.192100
     13 O10        -0.0130    2.1930   -1.3910 os        1 BDM     -0.319900
     14 C11         2.3370    2.2700   -1.1370 ca        1 BDM     -0.090900
     15 BR11        2.2610    4.1440   -1.0300 br        1 BDM     -0.065100
     16 C12         3.5660    1.5820   -1.0380 ca        1 BDM      0.171100
     17 O12         4.6950    2.3680   -0.8770 os        1 BDM     -0.317900
     18 C13         3.6320    0.1880   -1.1170 ca        1 BDM     -0.250000
     19 C14         5.9170    1.6820   -0.6410 c3        1 BDM      0.116700
     20 C15        -1.1900    1.4960   -1.8160 c3        1 BDM      0.130400
     21 C16        -1.8950    0.8230   -0.6550 c3        1 BDM     -0.120400
     22 C17        -3.2310    0.2720   -1.1100 c3        1 BDM     -0.077400
     23 C18        -3.8480   -0.6500   -0.0700 c3        1 BDM     -0.101700
     24 C19        -5.2880   -1.0050   -0.4380 c3        1 BDM     -0.061400
     25 C20        -6.2560    0.0870   -0.0540 c3        1 BDM     -0.202400
     26 C21        -3.0350   -1.9060    0.0780 c         1 BDM      0.647100
     27 OXV        -2.6600   -2.4670    1.1170 o         1 BDM     -0.594000
     28 OXW        -2.6610   -2.5100   -1.0860 oh        1 BDM     -0.602100
     29 C22        -7.6100   -0.0950   -0.7710 c         1 BDM      0.910600
     30 OX5        -7.6020   -0.4070   -1.9960 o         1 BDM     -0.845800
     31 OX6        -8.6580    0.1020   -0.0950 o         1 BDM     -0.845800
     32 HN1         4.9150   -4.0240    1.9160 hn        1 BDM      0.439800
     33 HN21        3.7290   -4.1080    4.2930 hn        1 BDM      0.397800
     34 HN22        2.2450   -4.8160    4.1360 hn        1 BDM      0.397800
     35 HN41       -0.5120   -2.9050    0.8990 hn        1 BDM      0.431400
     36 HN42       -2.1470   -3.3090   -0.8870 ho        1 BDM      0.433000
     37 H6          4.8220   -2.8180   -0.1100 h4        1 BDM      0.147000
     38 H71         1.6210   -2.4400   -1.9060 hc        1 BDM      0.063200
     39 H72         3.4240   -2.3240   -2.0170 hc        1 BDM      0.063200
     40 H9          0.3180   -0.5070   -1.5140 ha        1 BDM      0.173000
     41 H13         4.5930   -0.3390   -1.0380 ha        1 BDM      0.129000
     42 H141        6.6480    2.5130   -0.4690 h1        1 BDM      0.040700
     43 H142        5.8430    1.0310    0.2640 h1        1 BDM      0.040700
     44 H143        6.2120    1.0810   -1.5350 h1        1 BDM      0.040700
     45 H151       -1.8230    2.3320   -2.2280 h1        1 BDM      0.061700
     46 H152       -0.9540    0.7700   -2.6360 h1        1 BDM      0.061700
     47 H161       -1.2600   -0.0060   -0.2440 hc        1 BDM      0.057700
     48 H162       -2.0430    1.5660    0.1720 hc        1 BDM      0.057700
     49 H171       -3.9440    1.1150   -1.3090 hc        1 BDM      0.066200
     50 H172       -3.1050   -0.2950   -2.0710 hc        1 BDM      0.066200
     51 H18        -3.8410   -0.1410    0.9360 hc        1 BDM      0.076700
     52 H191       -5.3640   -1.1910   -1.5440 hc        1 BDM      0.060700
     53 H192       -5.5780   -1.9550    0.0840 hc        1 BDM      0.060700
     54 H201       -6.4190    0.0950    1.0520 hc        1 BDM      0.024200
     55 H202       -5.8550    1.0890   -0.3500 hc        1 BDM      0.024200
@<TRIPOS>BOND
     1    1    2 1   
     2    1    8 1   
     3    1   32 1   
     4    2    3 1   
     5    2    4 2   
     6    3   33 1   
     7    3   34 1   
     8    4    5 1   
     9    5    6 2   
    10    5    7 1   
    11    6   35 1   
    12    7    8 2   
    13    7    9 1   
    14    8   37 1   
    15    9   10 1   
    16    9   38 1   
    17    9   39 1   
    18   10   11 ar  
    19   10   18 ar  
    20   11   12 ar  
    21   11   40 1   
    22   12   13 1   
    23   12   14 ar  
    24   13   20 1   
    25   14   15 1   
    26   14   16 ar  
    27   16   17 1   
    28   16   18 ar  
    29   17   19 1   
    30   18   41 1   
    31   19   42 1   
    32   19   43 1   
    33   19   44 1   
    34   20   21 1   
    35   20   45 1   
    36   20   46 1   
    37   21   22 1   
    38   21   47 1   
    39   21   48 1   
    40   22   23 1   
    41   22   49 1   
    42   22   50 1   
    43   23   24 1   
    44   23   26 1   
    45   23   51 1   
    46   24   25 1   
    47   24   52 1   
    48   24   53 1   
    49   25   29 1   
    50   25   54 1   
    51   25   55 1   
    52   26   27 2   
    53   26   28 1   
    54   28   36 1   
    55   29   30 1   
    56   29   31 1   
@<TRIPOS>SUBSTRUCTURE
     1 BDM         1 TEMP              0 ****  ****    0 ROOT
