@<TRIPOS>MOLECULE
BDN
   18    18     1     0     0
SMALL
bcc


@<TRIPOS>ATOM
      1 C1          0.0040    0.1240   -0.0010 ca        1 BDN     -0.269900
      2 C2          1.2880   -0.4300    0.0740 ca        1 BDN     -0.093500
      3 C3          1.9440   -0.4740    1.3040 ca        1 BDN     -0.113000
      4 C4          1.3250    0.0320    2.4480 ca        1 BDN     -0.068000
      5 C5          0.0450    0.5870    2.3670 ca        1 BDN     -0.113000
      6 C6         -0.6210    0.6340    1.1450 ca        1 BDN     -0.093500
      7 C          -0.6710    0.2090   -1.3110 ce        1 BDN      0.593800
      8 N1         -0.4190    0.8910   -2.3600 n2        1 BDN     -0.710100
      9 N2         -1.8710   -0.7030   -1.3750 n4        1 BDN     -0.826600
     10 H2          1.7830   -0.8240   -0.8280 ha        1 BDN      0.145000
     11 H3          2.9560   -0.9070    1.3680 ha        1 BDN      0.167000
     12 H4          1.8490   -0.0010    3.4180 ha        1 BDN      0.168000
     13 H5         -0.4380    0.9940    3.2710 ha        1 BDN      0.167000
     14 H6         -1.6180    1.0950    1.0840 ha        1 BDN      0.145000
     15 HN1         0.3640    1.5130   -2.3510 hn        1 BDN      0.492400
     16 HN21       -2.4680   -0.4990   -0.5660 hn        1 BDN      0.469800
     17 HN22       -2.4090   -0.5800   -2.2420 hn        1 BDN      0.469800
     18 H23        -1.5410   -1.6720   -1.3130 hn        1 BDN      0.469800
@<TRIPOS>BOND
     1    1    2 ar  
     2    1    6 ar  
     3    1    7 1   
     4    2    3 ar  
     5    2   10 1   
     6    3    4 ar  
     7    3   11 1   
     8    4    5 ar  
     9    4   12 1   
    10    5    6 ar  
    11    5   13 1   
    12    6   14 1   
    13    7    8 2   
    14    7    9 1   
    15    8   15 1   
    16    9   16 1   
    17    9   17 1   
    18    9   18 1   
@<TRIPOS>SUBSTRUCTURE
     1 BDN         1 TEMP              0 ****  ****    0 ROOT
