@<TRIPOS>MOLECULE
BDN
   17    13     1     0     0
SMALL
bcc


@<TRIPOS>ATOM
      1 C1         -0.1440   -0.0790   -0.2610 cg        1 BDN     -0.148300
      2 C2          1.2420   -0.0740   -0.2410 c1        1 BDN     -0.067500
      3 C3          1.9170   -0.0650    0.9700 c1        1 BDN     -0.067500
      4 C4          1.2060   -0.0600    2.1600 c1        1 BDN     -0.067500
      5 C5         -0.1800   -0.0650    2.1390 c1        1 BDN     -0.067500
      6 C6         -0.8550   -0.0740    0.9290 c1        1 BDN     -0.038500
      7 C          -0.8810   -0.1030   -1.5820 ce        1 BDN      0.230300
      8 N1         -1.1700   -1.2450   -2.1490 n1        1 BDN     -0.303000
      9 N2         -1.2590    1.1140   -2.2060 nh        1 BDN     -0.823600
     10 H2          1.7420   -0.0780   -1.0790 ha        1 BDN      0.078500
     11 H3          2.8930   -0.0620    0.9840 ha        1 BDN      0.078500
     12 H4          1.6810   -0.0540    3.0120 ha        1 BDN      0.078500
     13 H5         -0.6810   -0.0620    2.9770 ha        1 BDN      0.078500
     14 H6         -1.8310   -0.0780    0.9140 ha        1 BDN      0.091500
     15 HN1        -0.9260   -2.0280   -1.7480 DU        1 BDN      0.150000
     16 HN21       -1.7660    1.1000   -2.9660 hn        1 BDN      0.398300
     17 HN22       -0.9870    1.9120   -1.8530 hn        1 BDN      0.398300
@<TRIPOS>BOND
     1    1    6 3   
     2    1    7 1   
     3    2    3 3   
     4    2   10 1   
     5    3   11 1   
     6    4    5 3   
     7    4   12 1   
     8    5   13 1   
     9    6   14 1   
    10    7    8 2   
    11    7    9 1   
    12    9   16 1   
    13    9   17 1   
@<TRIPOS>SUBSTRUCTURE
     1 BDN         1 TEMP              0 ****  ****    0 ROOT
