@<TRIPOS>MOLECULE
BDN
   17    17     1     0     0
SMALL
bcc


@<TRIPOS>ATOM
      1 C1          0.0040    0.0770    0.2160 ca        1 BDN     -0.198900
      2 C2         -1.1280   -0.3500   -0.4860 ca        1 BDN     -0.105000
      3 C3         -1.0980   -0.4180   -1.8780 ca        1 BDN     -0.134500
      4 C4          0.0580   -0.0560   -2.5710 ca        1 BDN     -0.117000
      5 C5          1.1850    0.3730   -1.8710 ca        1 BDN     -0.134500
      6 C6          1.1620    0.4390   -0.4780 ca        1 BDN     -0.105000
      7 C          -0.0510    0.1640    1.7100 ce        1 BDN      0.638800
      8 N1         -0.9900    0.7770    2.3710 n2        1 BDN     -0.835100
      9 N2          1.0500   -0.4240    2.3680 nh        1 BDN     -0.893800
     10 H2         -2.0420   -0.6350    0.0580 ha        1 BDN      0.143500
     11 H3         -1.9870   -0.7560   -2.4290 ha        1 BDN      0.136000
     12 H4          0.0790   -0.1080   -3.6700 ha        1 BDN      0.134000
     13 H5          2.0950    0.6620   -2.4170 ha        1 BDN      0.136000
     14 H6          2.0510    0.7820    0.0730 ha        1 BDN      0.143500
     15 HN1        -1.6590    1.2400    1.7950 hn        1 BDN      0.394400
     16 HN21        0.9550   -0.5230    3.3560 hn        1 BDN      0.398300
     17 HN22        1.3800   -1.2490    1.9170 hn        1 BDN      0.398300
@<TRIPOS>BOND
     1    1    2 ar  
     2    1    6 ar  
     3    1    7 1   
     4    2    3 ar  
     5    2   10 1   
     6    3    4 ar  
     7    3   11 1   
     8    4    5 ar  
     9    4   12 1   
    10    5    6 ar  
    11    5   13 1   
    12    6   14 1   
    13    7    8 2   
    14    7    9 1   
    15    8   15 1   
    16    9   16 1   
    17    9   17 1   
@<TRIPOS>SUBSTRUCTURE
     1 BDN         1 TEMP              0 ****  ****    0 ROOT
