@<TRIPOS>MOLECULE
BDO
   40    39     1     0     0
SMALL
bcc


@<TRIPOS>ATOM
      1 C1          0.2150   -0.2610   -0.0580 c2        1 BDO      0.616800
      2 N1          1.6380    0.0420    0.0960 nh        1 BDO     -0.798200
      3 O1          0.5690   -1.2560    3.2910 o         1 BDO     -0.600500
      4 C2          0.7210   -0.8600    2.1310 c         1 BDO      0.693500
      5 N2         -0.2890   -0.7930    1.1730 n         1 BDO     -0.510400
      6 C3          2.0360   -0.3390    1.4720 c3        1 BDO      0.116200
      7 N3         -0.5540   -0.0460   -1.0830 n2        1 BDO     -0.835100
      8 C4          3.1270   -1.4210    1.5550 c3        1 BDO     -0.061200
      9 C5          2.5060    0.8790    2.2720 c3        1 BDO     -0.080100
     10 C6         -4.1030    0.2010    2.5560 cu        1 BDO     -0.189200
     11 C7         -3.9310   -1.2810    2.4240 cx        1 BDO     -0.054100
     12 C8         -2.8880   -1.9760    3.1800 c2        1 BDO     -0.132200
     13 C9         -2.9480   -3.2660    3.5500 ce        1 BDO     -0.026700
     14 C10        -4.0050   -4.1400    3.2660 cg        1 BDO     -0.127300
     15 C11        -4.8950   -4.9110    3.0380 c1        1 BDO     -0.117100
     16 C12        -3.5730   -0.2200    1.4270 cu        1 BDO     -0.189200
     17 C13         3.4100   -2.6100   -0.5950 c2        1 BDO     -0.230000
     18 C14         2.1510   -3.7210    1.2190 c3        1 BDO     -0.067900
     19 C15         2.9110   -2.5830    0.6460 c2        1 BDO     -0.123400
     20 H1          2.1940   -0.4140   -0.6040 hn        1 BDO      0.401800
     21 H2         -0.0930    0.3190   -1.8890 hn        1 BDO      0.410400
     22 H3          4.1150   -0.9390    1.3220 hc        1 BDO      0.072200
     23 H4          3.1620   -1.7770    2.6210 hc        1 BDO      0.072200
     24 H5          3.4490    1.2870    1.8370 hc        1 BDO      0.055033
     25 H6          1.7320    1.6830    2.2650 hc        1 BDO      0.055033
     26 H7          2.6900    0.5620    3.3270 hc        1 BDO      0.055033
     27 H8         -1.2490   -0.9930    1.3260 hn        1 BDO      0.365500
     28 H9         -4.4550    0.9700    3.2100 ha        1 BDO      0.199000
     29 H10        -4.8270   -1.9120    2.2370 hc        1 BDO      0.079700
     30 H11        -2.0020   -1.3770    3.4650 ha        1 BDO      0.141000
     31 H12        -2.1180   -3.7160    4.1280 ha        1 BDO      0.145000
     32 H13        -3.1760   -0.0550    0.4440 ha        1 BDO      0.199000
     33 H14         1.8360   -0.9740   -2.8690 ha        1 BDO      0.000500
     34 H15         2.2800   -1.4330   -2.6410 ha        1 BDO      0.000500
     35 H16         4.0070   -1.7880   -1.0120 ha        1 BDO      0.117000
     36 H17         3.2630   -3.4650   -1.2680 ha        1 BDO      0.117000
     37 H18         1.8240   -4.4360    0.4250 hc        1 BDO      0.050700
     38 H19         2.7950   -4.2730    1.9490 hc        1 BDO      0.050700
     39 H20         1.2460   -3.3530    1.7650 hc        1 BDO      0.050700
     40 CL1        -6.0770   -5.9380    2.7360 cl        1 BDO      0.075100
@<TRIPOS>BOND
     1    1    2 1   
     2    1    5 1   
     3    1    7 2   
     4    2    6 1   
     5    2   20 1   
     6    3    4 2   
     7    4    5 1   
     8    4    6 1   
     9    5   27 1   
    10    6    8 1   
    11    6    9 1   
    12    7   21 1   
    13    8   19 1   
    14    8   22 1   
    15    8   23 1   
    16    9   24 1   
    17    9   25 1   
    18    9   26 1   
    19   10   11 1   
    20   10   16 2   
    21   10   28 1   
    22   11   12 1   
    23   11   16 1   
    24   11   29 1   
    25   12   13 2   
    26   12   30 1   
    27   13   14 1   
    28   13   31 1   
    29   14   15 3   
    30   15   40 1   
    31   16   32 1   
    32   17   19 2   
    33   17   35 1   
    34   17   36 1   
    35   18   19 1   
    36   18   37 1   
    37   18   38 1   
    38   18   39 1   
    39   33   34 1   
@<TRIPOS>SUBSTRUCTURE
     1 BDO         1 TEMP              0 ****  ****    0 ROOT
