@<TRIPOS>MOLECULE
BDO
   40    41     1     0     0
SMALL
bcc


@<TRIPOS>ATOM
      1 C1         -0.6020    0.3410    0.6710 c2        1 BDO      0.146000
      2 N1          0.5480   -0.2340   -0.0010 n7        1 BDO     -0.259000
      3 O1          1.6250    0.0800    3.4280 o         1 BDO     -0.223000
      4 C2          1.0700    0.0300    2.3410 c2        1 BDO      0.202000
      5 N2         -0.4310    0.2580    2.1910 nx        1 BDO      0.149000
      6 C3          1.6840   -0.1940    0.9420 c3        1 BDO      0.019000
      7 N3         -1.5990    0.9930    0.1810 n2        1 BDO     -0.249000
      8 C4          2.6460   -1.3880    0.9030 c3        1 BDO     -0.152000
      9 C5          2.5410    1.0650    0.6700 c3        1 BDO     -0.211000
     10 C6         -1.1770   -0.7740    2.7900 c2        1 BDO     -0.733000
     11 C7         -2.2210   -1.5120    2.0710 c3        1 BDO     -0.016000
     12 C8         -2.6960   -2.6770    2.8790 c2        1 BDO      0.013000
     13 C9         -3.0470   -3.8510    2.3000 c2        1 BDO     -0.298000
     14 C10        -2.9480   -4.1030    0.9030 c1        1 BDO     -0.007000
     15 C11        -2.6220   -2.9350    0.0540 c3        1 BDO     -0.187000
     16 C12        -1.8760   -1.8410    0.6820 c1        1 BDO     -0.087000
     17 C13         1.2320   -3.3910    0.2360 c3        1 BDO     -0.227000
     18 C14         1.6200   -2.9070    2.6480 c3        1 BDO     -0.227000
     19 C15         2.1810   -2.7920    1.2490 c3        1 BDO     -0.106000
     20 H1          0.3380   -1.1630   -0.3310 hn        1 BDO      0.233000
     21 H2         -1.6410    1.0410   -0.8150 hn        1 BDO      0.190000
     22 H3          3.0840   -1.4170   -0.1340 hc        1 BDO      0.101500
     23 H4          3.4770   -1.1310    1.6190 hc        1 BDO      0.101500
     24 H5          3.3150    1.1590    1.4680 hc        1 BDO      0.095333
     25 H6          1.9120    1.9870    0.6630 hc        1 BDO      0.095333
     26 H7          3.0430    0.9700   -0.3220 hc        1 BDO      0.095333
     27 H8         -0.6640    1.1630    2.6180 hn        1 BDO      0.222000
     28 H9         -0.9100   -1.0060    3.8200 hx        1 BDO      0.166000
     29 H10        -3.1420   -0.8280    1.9370 hc        1 BDO      0.126000
     30 H11        -2.7380   -2.5210    3.9700 ha        1 BDO      0.145000
     31 H12        -3.3990   -4.6950    2.9180 ha        1 BDO      0.157000
     32 H13        -3.6270   -2.5140   -0.2770 h1        1 BDO      0.191000
     33 H14         0.1780   -3.0640    0.4210 hc        1 BDO      0.085167
     34 H15         1.2520   -4.5060    0.3140 hc        1 BDO      0.085167
     35 H16         1.5230   -3.1080   -0.8040 hc        1 BDO      0.085167
     36 H17         3.1280   -3.4150    1.2190 hc        1 BDO      0.089000
     37 H18         0.6160   -2.4180    2.7220 hc        1 BDO      0.085167
     38 H19         2.3040   -2.4220    3.3870 hc        1 BDO      0.085167
     39 H20         1.5030   -3.9840    2.9210 hc        1 BDO      0.085167
     40 Cl1        -1.8470   -3.4500   -1.4460 cl        1 BDO     -0.067000
@<TRIPOS>BOND
     1    1    2 1   
     2    1    5 1   
     3    1    7 1   
     4    2    6 1   
     5    2   20 1   
     6    3    4 1   
     7    4    5 1   
     8    4    6 1   
     9    5   10 1   
    10    5   27 1   
    11    6    8 1   
    12    6    9 1   
    13    7   21 1   
    14    8   19 1   
    15    8   22 1   
    16    8   23 1   
    17    9   24 1   
    18    9   25 1   
    19    9   26 1   
    20   10   11 1   
    21   10   28 1   
    22   11   12 1   
    23   11   16 1   
    24   11   29 1   
    25   12   13 1   
    26   12   30 1   
    27   13   14 1   
    28   13   31 1   
    29   14   15 1   
    30   15   16 1   
    31   15   32 1   
    32   15   40 1   
    33   17   19 1   
    34   17   33 1   
    35   17   34 1   
    36   17   35 1   
    37   18   19 1   
    38   18   37 1   
    39   18   38 1   
    40   18   39 1   
    41   19   36 1   
@<TRIPOS>SUBSTRUCTURE
     1 BDO         1 TEMP              0 ****  ****    0 ROOT
