@<TRIPOS>MOLECULE
BDO
   40    39     1     0     0
SMALL
bcc


@<TRIPOS>ATOM
      1 C1          0.4250    0.7420    0.5300 c2        1 BDO      0.620800
      2 N1          1.6560    0.1100    0.0590 nh        1 BDO     -0.798200
      3 O1          2.2290    0.8590    3.5420 o         1 BDO     -0.592500
      4 C2          1.8230    0.6860    2.3890 c         1 BDO      0.693500
      5 N2          0.5710    1.0830    1.9140 n         1 BDO     -0.508400
      6 C3          2.5820    0.0030    1.2100 c3        1 BDO      0.117200
      7 N3         -0.6470    1.0340   -0.1450 n2        1 BDO     -0.841100
      8 C4          2.9660   -1.4360    1.6010 c3        1 BDO     -0.061200
      9 C5          3.8690    0.7950    0.9660 c3        1 BDO     -0.080100
     10 C6         -4.5610   -1.0940    2.3110 cu        1 BDO     -0.181200
     11 C7         -3.7060   -2.1880    1.7470 cx        1 BDO     -0.059100
     12 C8         -2.7240   -2.8640    2.5940 c2        1 BDO     -0.108200
     13 C9         -2.3580   -4.1500    2.4680 ce        1 BDO     -0.044700
     14 C10        -2.8570   -5.0420    1.5100 cg        1 BDO     -0.127300
     15 C11        -3.2680   -5.8260    0.7010 c1        1 BDO     -0.117100
     16 C12        -3.6010   -0.7140    1.4960 cu        1 BDO     -0.181200
     17 C13         1.4730   -3.1090    0.5610 c2        1 BDO     -0.226000
     18 C14         1.1170   -2.5170    2.9330 c3        1 BDO     -0.070900
     19 C15         1.8190   -2.3880    1.6330 c2        1 BDO     -0.126400
     20 H1          1.4790   -0.7770   -0.3760 hn        1 BDO      0.403800
     21 H2         -0.6400    0.7400   -1.0980 hn        1 BDO      0.410400
     22 H3          3.7400   -1.8000    0.8730 hc        1 BDO      0.072200
     23 H4          3.4470   -1.3880    2.6160 hc        1 BDO      0.072200
     24 H5          4.4490    0.3420    0.1260 hc        1 BDO      0.055033
     25 H6          3.6410    1.8570    0.7090 hc        1 BDO      0.055033
     26 H7          4.4850    0.7710    1.8970 hc        1 BDO      0.055033
     27 H8         -0.0860    1.6350    2.4040 hn        1 BDO      0.358500
     28 H9         -5.3950   -0.9020    2.9520 ha        1 BDO      0.199500
     29 H10        -4.1230   -2.8420    0.9520 hc        1 BDO      0.078700
     30 H11        -2.2650   -2.2470    3.3870 ha        1 BDO      0.128000
     31 H12        -1.6090   -4.5860    3.1560 ha        1 BDO      0.138000
     32 H13        -3.0450    0.0300    0.9600 ha        1 BDO      0.199500
     33 H14        -0.2500   -1.6440   -1.7180 ha        1 BDO      0.001000
     34 H15         0.0060   -2.1820   -1.3950 ha        1 BDO      0.001000
     35 H16         2.0130   -3.0470   -0.3930 ha        1 BDO      0.119500
     36 H17         0.6350   -3.8170    0.5760 ha        1 BDO      0.119500
     37 H18         0.0990   -2.9640    2.8060 hc        1 BDO      0.050367
     38 H19         1.0090   -1.5170    3.4250 hc        1 BDO      0.050367
     39 H20         1.7100   -3.1760    3.6160 hc        1 BDO      0.050367
     40 CL1        -3.8120   -6.8720   -0.3720 cl        1 BDO      0.076100
@<TRIPOS>BOND
     1    1    2 1   
     2    1    5 1   
     3    1    7 2   
     4    2    6 1   
     5    2   20 1   
     6    3    4 2   
     7    4    5 1   
     8    4    6 1   
     9    5   27 1   
    10    6    8 1   
    11    6    9 1   
    12    7   21 1   
    13    8   19 1   
    14    8   22 1   
    15    8   23 1   
    16    9   24 1   
    17    9   25 1   
    18    9   26 1   
    19   10   11 1   
    20   10   16 2   
    21   10   28 1   
    22   11   12 1   
    23   11   16 1   
    24   11   29 1   
    25   12   13 2   
    26   12   30 1   
    27   13   14 1   
    28   13   31 1   
    29   14   15 3   
    30   15   40 1   
    31   16   32 1   
    32   17   19 2   
    33   17   35 1   
    34   17   36 1   
    35   18   19 1   
    36   18   37 1   
    37   18   38 1   
    38   18   39 1   
    39   33   34 1   
@<TRIPOS>SUBSTRUCTURE
     1 BDO         1 TEMP              0 ****  ****    0 ROOT
