@<TRIPOS>MOLECULE
BDP
   22    22     1     0     0
SMALL
bcc


@<TRIPOS>ATOM
      1 C1         -0.9810   -0.5630   -1.2740 c3        1 BDP      0.303900
      2 C2          0.5080   -0.5630   -1.2740 c3        1 BDP      0.097100
      3 C3          1.0800   -0.5630    0.0730 c3        1 BDP      0.142100
      4 C4          0.5200    0.5210    0.9380 c3        1 BDP      0.107100
      5 C5         -1.0300    0.5200    0.9810 c3        1 BDP     -0.013900
      6 C6         -1.5520    1.6610    1.7880 c         1 BDP      0.932600
      7 O2          0.9780   -1.7590   -1.9850 oh        1 BDP     -0.595800
      8 O3          2.5280   -0.3800   -0.0310 oh        1 BDP     -0.607800
      9 O4          1.0140    0.3520    2.2570 oh        1 BDP     -0.654800
     10 O5         -1.5620    0.5130   -0.4230 os        1 BDP     -0.410600
     11 O6A        -1.7080    2.7910    1.2540 o         1 BDP     -0.817300
     12 O1         -1.4300   -0.3910   -2.5830 oh        1 BDP     -0.633800
     13 O6B        -1.8360    1.4950    3.0030 o         1 BDP     -0.817300
     14 H1         -1.2950   -1.4260   -0.9450 h2        1 BDP      0.056700
     15 H2          0.8220    0.2300   -1.7490 h1        1 BDP      0.055700
     16 H3          0.9000   -1.4250    0.4930 h1        1 BDP      0.050700
     17 H4          0.8240    1.3840    0.5960 h1        1 BDP      0.055700
     18 H5         -1.3740   -0.2410    1.4860 h1        1 BDP      0.037700
     19 HB          1.3840   -1.5160   -2.7360 ho        1 BDP      0.401000
     20 HC          2.9410   -1.0930    0.2990 ho        1 BDP      0.413000
     21 HD          1.5660    1.0190    2.4540 ho        1 BDP      0.463000
     22 HA         -2.2990   -0.5670   -2.6240 ho        1 BDP      0.434000
@<TRIPOS>BOND
     1    1    2 1   
     2    1   10 1   
     3    1   12 1   
     4    1   14 1   
     5    2    3 1   
     6    2    7 1   
     7    2   15 1   
     8    3    4 1   
     9    3    8 1   
    10    3   16 1   
    11    4    5 1   
    12    4    9 1   
    13    4   17 1   
    14    5    6 1   
    15    5   10 1   
    16    5   18 1   
    17    6   11 1   
    18    6   13 1   
    19    7   19 1   
    20    8   20 1   
    21    9   21 1   
    22   12   22 1   
@<TRIPOS>SUBSTRUCTURE
     1 BDP         1 TEMP              0 ****  ****    0 ROOT
