@<TRIPOS>MOLECULE
BDP
   22    22     1     0     0
SMALL
bcc


@<TRIPOS>ATOM
      1 C1         -1.2640    1.2150    0.4970 c3        1 BDP      0.308900
      2 C2         -1.8860   -0.0100   -0.1980 c3        1 BDP      0.051100
      3 C3         -1.0680   -1.2680    0.1280 c3        1 BDP      0.142100
      4 C4          0.4240   -1.0240   -0.1640 c3        1 BDP      0.151100
      5 C5          0.9190    0.2970    0.4480 c3        1 BDP     -0.022900
      6 C6          2.3610    0.6420   -0.0460 c         1 BDP      0.932600
      7 O2         -3.2110   -0.2380    0.2640 oh        1 BDP     -0.619800
      8 O3         -1.5000   -2.3390   -0.6980 oh        1 BDP     -0.589800
      9 O4          1.1210   -2.1110    0.4220 oh        1 BDP     -0.632800
     10 O5          0.0750    1.3910    0.0940 os        1 BDP     -0.407600
     11 O6A         2.7280    1.8400   -0.0550 o         1 BDP     -0.817300
     12 O1         -1.8990    2.3960    0.0620 oh        1 BDP     -0.635800
     13 O6B         3.0810   -0.3480   -0.3670 o         1 BDP     -0.817300
     14 H1         -1.3790    1.1510    1.6140 h2        1 BDP      0.055700
     15 H2         -1.9080    0.1550   -1.3110 h1        1 BDP      0.058700
     16 H3         -1.2070   -1.5450    1.2090 h1        1 BDP      0.049700
     17 H4          0.5950   -1.0150   -1.2760 h1        1 BDP      0.060700
     18 H5          0.9470    0.2010    1.5680 h1        1 BDP      0.036700
     19 HB         -3.6590    0.6160    0.2240 ho        1 BDP      0.410000
     20 HC         -2.4350   -2.4690   -0.4930 ho        1 BDP      0.395000
     21 HD          2.0630   -1.9650    0.2210 ho        1 BDP      0.453000
     22 HA         -1.3030    2.8460   -0.5540 ho        1 BDP      0.436000
@<TRIPOS>BOND
     1    1    2 1   
     2    1   10 1   
     3    1   12 1   
     4    1   14 1   
     5    2    3 1   
     6    2    7 1   
     7    2   15 1   
     8    3    4 1   
     9    3    8 1   
    10    3   16 1   
    11    4    5 1   
    12    4    9 1   
    13    4   17 1   
    14    5    6 1   
    15    5   10 1   
    16    5   18 1   
    17    6   11 1   
    18    6   13 1   
    19    7   19 1   
    20    8   20 1   
    21    9   21 1   
    22   12   22 1   
@<TRIPOS>SUBSTRUCTURE
     1 BDP         1 TEMP              0 ****  ****    0 ROOT
