@<TRIPOS>MOLECULE
BDQ
   62    62     1     0     0
SMALL
bcc


@<TRIPOS>ATOM
      1 C1          0.7120   -0.5120    0.2140 c3        1 BDQ      0.042000
      2 N1          1.9550   -0.1350    0.9360 n3        1 BDQ     -0.246000
      3 O1         -1.6580   -0.1630    1.0010 o         1 BDQ     -0.273000
      4 C2          1.5890    0.5910    2.1310 c2        1 BDQ      0.195000
      5 N2          0.1460    0.6310    2.2470 n         1 BDQ     -0.336000
      6 O2          3.6520    6.3100    7.5140 o         1 BDQ     -0.183000
      7 C3         -0.4440   -0.0360    1.1380 c2        1 BDQ      0.309000
      8 N3          2.3330    1.1230    3.0560 n2        1 BDQ     -0.369000
      9 C4          0.5930   -2.0280    0.0490 c3        1 BDQ     -0.211000
     10 N4          1.5010    5.2540    7.4770 n2        1 BDQ     -0.228000
     11 C5          0.5580    0.1620   -1.1630 c3        1 BDQ     -0.233000
     12 N5          2.5780    6.0510    9.5680 n4        1 BDQ     -0.016000
     13 C6          1.0000    1.5440   -1.1630 c1        1 BDQ     -0.115000
     14 N6         -0.7140   11.6990   11.5660 n1        1 BDQ      0.092000
     15 C7          0.8540    2.3720   -2.3290 c3        1 BDQ     -0.278000
     16 C8         -1.0670    5.4610   -1.6230 c3        1 BDQ     -0.273000
     17 C9         -0.5010    0.8420    3.4950 c3        1 BDQ     -0.022000
     18 C10        -0.2890    2.1760    4.1270 c2        1 BDQ      0.258000
     19 C11        -0.5950    2.3080    5.5160 c2        1 BDQ     -0.182500
     20 C12        -0.3620    3.4650    6.1890 c2        1 BDQ      0.007000
     21 C13         0.1410    4.6850    5.5080 c3        1 BDQ     -0.128000
     22 C14         0.4600    4.4820    4.0690 c2        1 BDQ      0.007000
     23 C15         0.2090    3.3110    3.4240 c2        1 BDQ     -0.182500
     24 C16         1.2860    5.3800    6.2060 c2        1 BDQ      0.098000
     25 C17         1.8540    7.2640    9.9640 ca        1 BDQ     -0.148000
     26 C18         0.5690    7.1570   10.5260 ca        1 BDQ     -0.099500
     27 C19         2.4780    8.5170    9.8180 ca        1 BDQ     -0.099500
     28 C20        -0.0890    8.3110   10.9400 ca        1 BDQ     -0.075500
     29 C21         1.8070    9.6630   10.2360 ca        1 BDQ     -0.075500
     30 C22         2.6260    5.9070    8.0580 c2        1 BDQ      0.295000
     31 C23         0.5230    9.5660   10.7960 ca        1 BDQ      0.087000
     32 C24        -0.1570   10.7390   11.2200 c1        1 BDQ     -0.158000
     33 HN1         2.5890    0.3830    0.3530 hn        1 BDQ      0.224000
     34 HN3         3.3170    1.0560    2.9100 hn        1 BDQ      0.190000
     35 H4          0.6570   -2.5490    1.0340 hc        1 BDQ      0.108333
     36 H4A         1.4150   -2.4080   -0.6050 hc        1 BDQ      0.108333
     37 H4B        -0.3920   -2.2620   -0.4240 hc        1 BDQ      0.108333
     38 HN4         5.1450    5.5530   10.8700 ha        1 BDQ      0.003500
     39 H5         -0.5190    0.0600   -1.4860 hc        1 BDQ      0.153500
     40 H5A         1.1700   -0.4220   -1.9150 hc        1 BDQ      0.153500
     41 HN5         2.1310    5.2290    9.9960 hn        1 BDQ      0.281000
     42 H6         -1.5850    4.6160   -1.1190 hc        1 BDQ      0.068750
     43 H7          1.8790    2.7270   -2.6320 hc        1 BDQ      0.126000
     44 H7A         0.3600    1.9020   -3.2170 hc        1 BDQ      0.126000
     45 H7B         0.2730    3.2950   -2.0390 hc        1 BDQ      0.126000
     46 H8         -1.0320    5.2730   -2.7190 hc        1 BDQ      0.068750
     47 H8A        -0.0310    5.5540   -1.2300 hc        1 BDQ      0.068750
     48 H8B        -1.6230    6.4040   -1.4310 hc        1 BDQ      0.068750
     49 H9         -0.1730    0.0580    4.2540 h1        1 BDQ      0.176000
     50 H9A        -1.6260    0.7090    3.3410 h1        1 BDQ      0.176000
     51 H11        -1.0060    1.4270    6.0490 ha        1 BDQ      0.211000
     52 H12        -0.5750    3.5440    7.2720 ha        1 BDQ      0.189000
     53 H14         0.8830    5.3470    3.5230 ha        1 BDQ      0.189000
     54 H15         0.4280    3.2200    2.3390 ha        1 BDQ      0.211000
     55 H16         1.9050    6.0200    5.5280 h4        1 BDQ      0.178000
     56 H16A       -0.7390    5.4300    5.5260 hc        1 BDQ      0.229000
     57 H18         0.0760    6.1790   10.6590 ha        1 BDQ      0.167000
     58 H19         3.4890    8.6110    9.3860 ha        1 BDQ      0.167000
     59 H20        -1.0940    8.2350   11.3930 ha        1 BDQ      0.191000
     60 H21         2.2930   10.6500   10.1310 ha        1 BDQ      0.191000
     61 H42         5.7530    5.5800   11.1710 ha        1 BDQ      0.003500
     62 H52         3.5570    6.1200    9.9060 hn        1 BDQ      0.281000
@<TRIPOS>BOND
     1    1    2 1   
     2    1    7 1   
     3    1    9 1   
     4    1   11 1   
     5    2    4 1   
     6    2   33 1   
     7    3    7 1   
     8    4    5 1   
     9    4    8 1   
    10    5    7 1   
    11    5   17 1   
    12    6   30 1   
    13    8   34 1   
    14    9   35 1   
    15    9   36 1   
    16    9   37 1   
    17   10   24 1   
    18   10   30 1   
    19   11   13 1   
    20   11   39 1   
    21   11   40 1   
    22   12   25 1   
    23   12   30 1   
    24   12   41 1   
    25   12   62 1   
    26   13   15 1   
    27   14   32 1   
    28   15   43 1   
    29   15   44 1   
    30   15   45 1   
    31   16   42 1   
    32   16   46 1   
    33   16   47 1   
    34   16   48 1   
    35   17   18 1   
    36   17   49 1   
    37   17   50 1   
    38   18   19 1   
    39   18   23 1   
    40   19   20 1   
    41   19   51 1   
    42   20   21 1   
    43   20   52 1   
    44   21   22 1   
    45   21   24 1   
    46   21   56 1   
    47   22   23 1   
    48   22   53 1   
    49   23   54 1   
    50   24   55 1   
    51   25   26 1   
    52   25   27 1   
    53   26   28 1   
    54   26   57 1   
    55   27   29 1   
    56   27   58 1   
    57   28   31 1   
    58   28   59 1   
    59   29   31 1   
    60   29   60 1   
    61   31   32 1   
    62   38   61 1   
@<TRIPOS>SUBSTRUCTURE
     1 BDQ         1 TEMP              0 ****  ****    0 ROOT
