@<TRIPOS>MOLECULE
BDQ
   60    62     1     0     0
SMALL
bcc


@<TRIPOS>ATOM
      1 C1         -6.3110    0.3540   -0.1260 c3        1 BDQ      0.118200
      2 N1         -5.9160    0.8220    1.2230 nh        1 BDQ     -0.756200
      3 O1         -5.0150    0.5480   -2.2600 o         1 BDQ     -0.599500
      4 C2         -4.5270    1.2410    1.1660 c2        1 BDQ      0.625800
      5 N2         -4.1140    1.2810   -0.2230 n         1 BDQ     -0.455300
      6 O2          3.5610   -0.5780    1.2380 o         1 BDQ     -0.620100
      7 C3         -5.0990    0.7110   -1.0390 c         1 BDQ      0.697500
      8 N3         -3.8440    1.5600    2.2220 n2        1 BDQ     -0.824100
      9 C4         -7.5300    1.1320   -0.6360 c3        1 BDQ     -0.081100
     10 N4          2.7570   -1.7110   -0.6190 n         1 BDQ     -0.528900
     11 C5         -6.6200   -1.1460   -0.2310 c3        1 BDQ     -0.092400
     12 N5          4.7380   -0.3390   -0.7610 n         1 BDQ     -0.465100
     13 C6         -5.4600   -2.0870    0.0610 c3        1 BDQ     -0.073700
     14 N6         10.2470    2.9930    1.4380 n1        1 BDQ     -0.369800
     15 C7         -5.2370   -2.3030    1.5440 c3        1 BDQ     -0.096600
     16 C8         -5.7210   -3.4210   -0.6180 c3        1 BDQ     -0.096600
     17 C9         -2.8260    1.7260   -0.6640 c3        1 BDQ      0.147300
     18 C10        -1.7080    0.7430   -0.4530 ca        1 BDQ     -0.115300
     19 C11        -1.7030   -0.4660   -1.1550 ca        1 BDQ     -0.119000
     20 C12        -0.6500   -1.3650   -0.9950 ca        1 BDQ     -0.114500
     21 C13         0.4040   -1.0620   -0.1280 ca        1 BDQ     -0.129300
     22 C14         0.3970    0.1460    0.5780 ca        1 BDQ     -0.114500
     23 C15        -0.6560    1.0440    0.4180 ca        1 BDQ     -0.119000
     24 C16         1.5310   -2.0350    0.0720 c3        1 BDQ      0.118300
     25 C17         5.8640    0.3210   -0.2440 ca        1 BDQ      0.097600
     26 C18         7.0490    0.3380   -1.0230 ca        1 BDQ     -0.174000
     27 C19         5.8550    1.0180    0.9840 ca        1 BDQ     -0.174000
     28 C20         8.1710    1.0280   -0.5890 ca        1 BDQ     -0.064000
     29 C21         6.9880    1.7000    1.4120 ca        1 BDQ     -0.064000
     30 C22         3.6770   -0.8450    0.0200 c         1 BDQ      0.754100
     31 C23         8.1520    1.7140    0.6330 ca        1 BDQ     -0.050000
     32 C24         9.3030    2.4170    1.0760 cg        1 BDQ      0.238800
     33 HN1        -6.0960    0.1560    1.9480 hn        1 BDQ      0.415800
     34 HN3        -2.9170    1.8910    2.0540 hn        1 BDQ      0.404400
     35 H4         -7.3740    2.2320   -0.5340 hc        1 BDQ      0.055367
     36 H4A        -7.6860    0.8870   -1.7140 hc        1 BDQ      0.055367
     37 H4B        -8.4380    0.8440   -0.0550 hc        1 BDQ      0.055367
     38 HN4         2.6530   -1.6040   -1.6050 hn        1 BDQ      0.292500
     39 H5         -7.4790   -1.3840    0.4520 hc        1 BDQ      0.064700
     40 H5A        -6.9680   -1.3240   -1.2860 hc        1 BDQ      0.064700
     41 HN5         4.8680   -0.7300   -1.6690 hn        1 BDQ      0.314500
     42 H6         -4.5200   -1.6520   -0.3850 hc        1 BDQ      0.052700
     43 H7         -4.6670   -3.2500    1.7150 hc        1 BDQ      0.038533
     44 H7A        -4.6410   -1.4710    1.9900 hc        1 BDQ      0.038533
     45 H7B        -6.2090   -2.3810    2.0890 hc        1 BDQ      0.038533
     46 H8         -5.8380   -3.2840   -1.7200 hc        1 BDQ      0.038533
     47 H8A        -4.8690   -4.1190   -0.4370 hc        1 BDQ      0.038533
     48 H8B        -6.6530   -3.8870   -0.2150 hc        1 BDQ      0.038533
     49 H9         -2.9070    1.9380   -1.7720 h1        1 BDQ      0.073200
     50 H9A        -2.5820    2.6950   -0.1370 h1        1 BDQ      0.073200
     51 H11        -2.5360   -0.7010   -1.8380 ha        1 BDQ      0.142000
     52 H12        -0.6540   -2.3150   -1.5490 ha        1 BDQ      0.146500
     53 H14         1.2310    0.3780    1.2620 ha        1 BDQ      0.146500
     54 H15        -0.6560    1.9910    0.9790 ha        1 BDQ      0.142000
     55 H16         1.2200   -3.0530   -0.3020 h1        1 BDQ      0.079700
     56 H16A        1.7530   -2.1150    1.1770 h1        1 BDQ      0.079700
     57 H18         7.0930   -0.1950   -1.9860 ha        1 BDQ      0.157500
     58 H19         4.9550    1.0210    1.6220 ha        1 BDQ      0.157500
     59 H20         9.0830    1.0310   -1.2070 ha        1 BDQ      0.147000
     60 H21         6.9640    2.2360    2.3740 ha        1 BDQ      0.147000
@<TRIPOS>BOND
     1    1    2 1   
     2    1    7 1   
     3    1    9 1   
     4    1   11 1   
     5    2    4 1   
     6    2   33 1   
     7    3    7 2   
     8    4    5 1   
     9    4    8 2   
    10    5    7 1   
    11    5   17 1   
    12    6   30 2   
    13    8   34 1   
    14    9   35 1   
    15    9   36 1   
    16    9   37 1   
    17   10   24 1   
    18   10   30 1   
    19   10   38 1   
    20   11   13 1   
    21   11   39 1   
    22   11   40 1   
    23   12   25 1   
    24   12   30 1   
    25   12   41 1   
    26   13   15 1   
    27   13   16 1   
    28   13   42 1   
    29   14   32 3   
    30   15   43 1   
    31   15   44 1   
    32   15   45 1   
    33   16   46 1   
    34   16   47 1   
    35   16   48 1   
    36   17   18 1   
    37   17   49 1   
    38   17   50 1   
    39   18   19 ar  
    40   18   23 ar  
    41   19   20 ar  
    42   19   51 1   
    43   20   21 ar  
    44   20   52 1   
    45   21   22 ar  
    46   21   24 1   
    47   22   23 ar  
    48   22   53 1   
    49   23   54 1   
    50   24   55 1   
    51   24   56 1   
    52   25   26 ar  
    53   25   27 ar  
    54   26   28 ar  
    55   26   57 1   
    56   27   29 ar  
    57   27   58 1   
    58   28   31 ar  
    59   28   59 1   
    60   29   31 ar  
    61   29   60 1   
    62   31   32 1   
@<TRIPOS>SUBSTRUCTURE
     1 BDQ         1 TEMP              0 ****  ****    0 ROOT
