@<TRIPOS>MOLECULE
BDQ
   61    63     1     0     0
SMALL
bcc


@<TRIPOS>ATOM
      1 C1          0.1030   -0.0410   -0.1590 c3        1 BDQ      0.126200
      2 N1          1.5820    0.0320   -0.1950 nu        1 BDQ     -0.796200
      3 O1         -1.3720   -0.0020    1.8740 o         1 BDQ     -0.587500
      4 C2          2.0680    0.2140    1.1650 c2        1 BDQ      0.625800
      5 N2          0.9490    0.1790    2.0720 n         1 BDQ     -0.423300
      6 O2          3.0190    6.1580    9.0750 o         1 BDQ     -0.484100
      7 C3         -0.2540    0.0430    1.3540 c         1 BDQ      0.695500
      8 N3          3.2920    0.3360    1.5840 n2        1 BDQ     -0.848100
      9 C4         -0.3960   -1.3930   -0.6790 c3        1 BDQ     -0.084100
     10 N4          1.6000    4.7930    7.8590 ny        1 BDQ     -0.674800
     11 C5         -0.6240    1.0720   -0.9270 c3        1 BDQ     -0.096400
     12 N5          0.8430    6.9890    8.7230 ns        1 BDQ     -0.416100
     13 C6         -0.1870    2.4900   -0.5820 c3        1 BDQ     -0.073700
     14 N6          0.9600   12.7260   12.3850 n1        1 BDQ     -0.298800
     15 C7          0.6560    3.0930   -1.6890 c3        1 BDQ     -0.094100
     16 C8         -1.3980    3.3690   -0.3290 c3        1 BDQ     -0.094100
     17 C9          1.0730    0.0410    3.4920 c3        1 BDQ      0.151300
     18 C10         1.1710    1.3540    4.2260 ca        1 BDQ     -0.049300
     19 C11         0.0040    2.0380    4.5870 ca        1 BDQ     -0.101500
     20 C12         0.0850    3.2310    5.3000 ca        1 BDQ     -0.105500
     21 C13         1.3380    3.7510    5.6490 ca        1 BDQ     -0.199300
     22 C14         2.5070    3.0760    5.2740 ca        1 BDQ     -0.105500
     23 C15         2.4220    1.8820    4.5620 ca        1 BDQ     -0.101500
     24 C16         1.4330    5.0390    6.3860 c3        1 BDQ      0.180100
     25 C17         0.9160    8.1710    9.5140 ca        1 BDQ      0.022600
     26 C18        -0.2980    8.7370    9.9650 ca        1 BDQ     -0.138500
     27 C19         2.1380    8.7980    9.8200 ca        1 BDQ     -0.138500
     28 C20        -0.2790    9.9140   10.7030 ca        1 BDQ     -0.066500
     29 C21         2.1420    9.9760   10.5640 ca        1 BDQ     -0.066500
     30 C22         1.8650    6.0840    8.6400 c         1 BDQ      0.640100
     31 C23         0.9390   10.5400   11.0080 ca        1 BDQ      0.018000
     32 C24         0.9510   11.7420   11.7650 cg        1 BDQ      0.203800
     33 HN1         1.9230    0.7290   -0.8270 hn        1 BDQ      0.407800
     34 HN3         3.9900    0.3370    0.8720 hn        1 BDQ      0.418400
     35 H4          0.1000   -2.2380   -0.1440 hc        1 BDQ      0.060700
     36 H4A        -1.4990   -1.4560   -0.5140 hc        1 BDQ      0.060700
     37 H4B        -0.1800   -1.4870   -1.7700 hc        1 BDQ      0.060700
     38 HN4         0.7800    4.3010    8.2240 hn        1 BDQ      0.464800
     39 H5         -0.4840    0.8890   -2.0260 hc        1 BDQ      0.073700
     40 H5A        -1.7200    0.9480   -0.7060 hc        1 BDQ      0.073700
     41 HN5        -0.0600    6.7680    8.3580 hn        1 BDQ      0.345500
     42 H6          0.4260    2.4740    0.3630 hc        1 BDQ      0.038700
     43 H7          0.9980    4.1150   -1.3980 hc        1 BDQ      0.039533
     44 H7A         1.5560    2.4680   -1.9000 hc        1 BDQ      0.039533
     45 H7B         0.0610    3.1770   -2.6310 hc        1 BDQ      0.039533
     46 H8         -1.9990    2.9700    0.5230 hc        1 BDQ      0.039533
     47 H8A        -1.0740    4.4080   -0.0830 hc        1 BDQ      0.039533
     48 H8B        -2.0500    3.4070   -1.2350 hc        1 BDQ      0.039533
     49 H9          0.1540   -0.5070    3.8640 h1        1 BDQ      0.085200
     50 H9A         1.9840   -0.5810    3.7330 h1        1 BDQ      0.085200
     51 H11        -0.9800    1.6310    4.2940 ha        1 BDQ      0.176000
     52 H12        -0.8370    3.7690    5.5690 ha        1 BDQ      0.137500
     53 H14         3.4940    3.4950    5.5210 ha        1 BDQ      0.137500
     54 H15         3.3410    1.3560    4.2470 ha        1 BDQ      0.176000
     55 H16         0.5030    5.6590    6.2390 hx        1 BDQ      0.106200
     56 H16A        2.3300    5.6340    6.0440 hx        1 BDQ      0.106200
     57 H18        -1.2670    8.2650    9.7400 ha        1 BDQ      0.159000
     58 H19         3.1000    8.3740    9.4880 ha        1 BDQ      0.159000
     59 H20        -1.2280   10.3550   11.0520 ha        1 BDQ      0.170500
     60 H21         3.1030   10.4630   10.8020 ha        1 BDQ      0.170500
     61 H42         2.4240    4.1880    8.0020 hn        1 BDQ      0.464800
@<TRIPOS>BOND
     1    1    2 1   
     2    1    7 1   
     3    1    9 1   
     4    1   11 1   
     5    2    4 1   
     6    2   33 1   
     7    3    7 2   
     8    4    5 1   
     9    4    8 2   
    10    5    7 1   
    11    5   17 1   
    12    6   30 2   
    13    8   34 1   
    14    9   35 1   
    15    9   36 1   
    16    9   37 1   
    17   10   24 1   
    18   10   30 1   
    19   10   38 1   
    20   10   61 1   
    21   11   13 1   
    22   11   39 1   
    23   11   40 1   
    24   12   25 1   
    25   12   30 1   
    26   12   41 1   
    27   13   15 1   
    28   13   16 1   
    29   13   42 1   
    30   14   32 3   
    31   15   43 1   
    32   15   44 1   
    33   15   45 1   
    34   16   46 1   
    35   16   47 1   
    36   16   48 1   
    37   17   18 1   
    38   17   49 1   
    39   17   50 1   
    40   18   19 ar  
    41   18   23 ar  
    42   19   20 ar  
    43   19   51 1   
    44   20   21 ar  
    45   20   52 1   
    46   21   22 ar  
    47   21   24 1   
    48   22   23 ar  
    49   22   53 1   
    50   23   54 1   
    51   24   55 1   
    52   24   56 1   
    53   25   26 ar  
    54   25   27 ar  
    55   26   28 ar  
    56   26   57 1   
    57   27   29 ar  
    58   27   58 1   
    59   28   31 ar  
    60   28   59 1   
    61   29   31 ar  
    62   29   60 1   
    63   31   32 1   
@<TRIPOS>SUBSTRUCTURE
     1 BDQ         1 TEMP              0 ****  ****    0 ROOT
