@<TRIPOS>MOLECULE
BDQ
   61    62     1     0     0
SMALL
bcc


@<TRIPOS>ATOM
      1 C1         -0.1670   -0.0920    0.4010 c3        1 BDQ      0.028000
      2 N1          1.3020    0.0150    0.2350 n3        1 BDQ     -0.280000
      3 O1         -1.4800    0.3910    2.4940 o         1 BDQ     -0.278000
      4 C2          1.8650    0.6180    1.4230 c2        1 BDQ      0.174000
      5 N2          0.8100    0.8330    2.3930 n         1 BDQ     -0.328000
      6 O2          1.8450    8.1100    7.0300 o         1 BDQ     -0.351000
      7 C3         -0.4270    0.3800    1.8590 c2        1 BDQ      0.303000
      8 N3          3.0960    0.9140    1.7100 n2        1 BDQ     -0.334000
      9 C4         -0.6300   -1.5490    0.2940 c3        1 BDQ     -0.206000
     10 N4          2.2740    5.8020    7.1610 n2        1 BDQ     -0.217000
     11 C5         -0.9970    0.7570   -0.5740 c3        1 BDQ     -0.179000
     12 N5          1.7370    7.0800    9.1240 n         1 BDQ     -0.276000
     13 C6         -0.6060    2.2280   -0.6510 c3        1 BDQ     -0.110000
     14 N6         -0.3510   12.1920   13.1000 n1        1 BDQ     -0.008000
     15 C7          0.1450    2.5320   -1.9320 c3        1 BDQ     -0.214500
     16 C8         -1.8410    3.1050   -0.5660 c3        1 BDQ     -0.214500
     17 C9          1.0830    0.9220    3.7900 c3        1 BDQ     -0.025000
     18 C10         1.7540    2.1740    4.2570 c2        1 BDQ      0.232000
     19 C11         1.8570    3.3500    3.4680 c2        1 BDQ     -0.208500
     20 C12         2.4890    4.4600    3.9440 c2        1 BDQ      0.047000
     21 C13         3.1350    4.4910    5.2770 c3        1 BDQ     -0.136000
     22 C14         2.9230    3.2680    6.0820 c2        1 BDQ      0.047000
     23 C15         2.2870    2.1720    5.5740 c2        1 BDQ     -0.208500
     24 C16         2.7850    5.7860    5.9850 c2        1 BDQ      0.009000
     25 C17         1.2960    8.1730    9.8980 ca        1 BDQ      0.073000
     26 C18         0.8350    7.9060   11.2110 ca        1 BDQ     -0.161000
     27 C19         1.3210    9.5050    9.4400 ca        1 BDQ     -0.161000
     28 C20         0.4150    8.9440   12.0310 ca        1 BDQ     -0.065500
     29 C21         0.8930   10.5370   10.2720 ca        1 BDQ     -0.065500
     30 C22         1.9370    7.0960    7.7570 c2        1 BDQ      0.349000
     31 C23         0.4390   10.2670   11.5680 ca        1 BDQ     -0.015000
     32 C24         0.0050   11.3250   12.4100 c1        1 BDQ     -0.109000
     33 HN1         1.5770    0.4630   -0.6170 hn        1 BDQ      0.216000
     34 HN3         3.7650    0.7410    0.9900 hn        1 BDQ      0.187000
     35 H4         -0.4790   -1.9210   -0.7480 hc        1 BDQ      0.105000
     36 H4A        -1.7160   -1.6000    0.5500 hc        1 BDQ      0.105000
     37 H4B        -0.0600   -2.2070    0.9920 hc        1 BDQ      0.105000
     38 HN4        -2.3470    0.4060    4.7270 ha        1 BDQ      0.002000
     39 H5         -0.9220    0.2900   -1.5920 hc        1 BDQ      0.119500
     40 H5A        -2.0680    0.6640   -0.2450 hc        1 BDQ      0.119500
     41 HN5         1.7800    6.2030    9.6010 hn        1 BDQ      0.252000
     42 H6          0.0590    2.4860    0.2210 hc        1 BDQ      0.064000
     43 H7         -0.5020    2.3340   -2.8210 hc        1 BDQ      0.083167
     44 H7A         1.0640    1.9050   -2.0240 hc        1 BDQ      0.083167
     45 H7B         0.4490    3.6070   -1.9540 hc        1 BDQ      0.083167
     46 H8         -1.5540    4.1820   -0.6350 hc        1 BDQ      0.083167
     47 H8A        -2.5440    2.8740   -1.4020 hc        1 BDQ      0.083167
     48 H8B        -2.3740    2.9400    0.4010 hc        1 BDQ      0.083167
     49 H9          0.0890    0.8410    4.3490 h1        1 BDQ      0.166500
     50 H9A         1.7350    0.0520    4.1220 h1        1 BDQ      0.166500
     51 H11         1.4170    3.3590    2.4520 ha        1 BDQ      0.193500
     52 H12         2.5560    5.3830    3.3360 ha        1 BDQ      0.189000
     53 H14         3.3250    3.2690    7.1140 ha        1 BDQ      0.189000
     54 H15         2.1750    1.2600    6.1900 ha        1 BDQ      0.193500
     55 H16         3.0110    6.6920    5.3740 h4        1 BDQ      0.167000
     56 H16A        4.2690    4.5440    5.0870 hc        1 BDQ      0.219000
     57 H18         0.8050    6.8760   11.6000 ha        1 BDQ      0.158500
     58 H19         1.6710    9.7530    8.4250 ha        1 BDQ      0.158500
     59 H20         0.0590    8.7250   13.0510 ha        1 BDQ      0.157500
     60 H21         0.9160   11.5750    9.9010 ha        1 BDQ      0.157500
     61 H42        -1.8470    0.6020    5.1410 ha        1 BDQ      0.002000
@<TRIPOS>BOND
     1    1    2 1   
     2    1    7 1   
     3    1    9 1   
     4    1   11 1   
     5    2    4 1   
     6    2   33 1   
     7    3    7 1   
     8    4    5 1   
     9    4    8 1   
    10    5    7 1   
    11    5   17 1   
    12    6   30 1   
    13    8   34 1   
    14    9   35 1   
    15    9   36 1   
    16    9   37 1   
    17   10   24 1   
    18   10   30 1   
    19   11   13 1   
    20   11   39 1   
    21   11   40 1   
    22   12   25 1   
    23   12   30 1   
    24   12   41 1   
    25   13   15 1   
    26   13   16 1   
    27   13   42 1   
    28   14   32 1   
    29   15   43 1   
    30   15   44 1   
    31   15   45 1   
    32   16   46 1   
    33   16   47 1   
    34   16   48 1   
    35   17   18 1   
    36   17   49 1   
    37   17   50 1   
    38   18   19 1   
    39   18   23 1   
    40   19   20 1   
    41   19   51 1   
    42   20   21 1   
    43   20   52 1   
    44   21   22 1   
    45   21   24 1   
    46   21   56 1   
    47   22   23 1   
    48   22   53 1   
    49   23   54 1   
    50   24   55 1   
    51   25   26 1   
    52   25   27 1   
    53   26   28 1   
    54   26   57 1   
    55   27   29 1   
    56   27   58 1   
    57   28   31 1   
    58   28   59 1   
    59   29   31 1   
    60   29   60 1   
    61   31   32 1   
    62   38   61 1   
@<TRIPOS>SUBSTRUCTURE
     1 BDQ         1 TEMP              0 ****  ****    0 ROOT
