@<TRIPOS>MOLECULE
BDQ
   60    57     1     0     0
SMALL
bcc


@<TRIPOS>ATOM
      1 C1          0.2850   -2.3820   -4.6050 c3        1 BDQ      0.008000
      2 N1         -0.2390   -1.1120   -4.2060 n3        1 BDQ     -0.287000
      3 O1          0.2850   -4.4660   -3.3370 o         1 BDQ     -0.312000
      4 C2         -1.0600   -1.3160   -3.0420 c2        1 BDQ      0.167000
      5 N2         -0.6790   -2.5270   -2.4510 n         1 BDQ     -0.286000
      6 O2          0.6900    3.4400    4.4930 o         1 BDQ     -0.376000
      7 C3          0.0090   -3.2830   -3.4180 c2        1 BDQ      0.294000
      8 N3         -1.9910   -0.5180   -2.6160 n1        1 BDQ     -0.299000
      9 C4          1.7490   -2.3390   -5.0090 c3        1 BDQ     -0.198000
     10 N4          0.3070    1.2390    3.8830 n         1 BDQ     -0.335000
     11 C5         -0.3710   -2.8970   -5.8780 c3        1 BDQ     -0.172000
     12 N5          0.5540    1.9710    6.2620 n         1 BDQ     -0.321000
     13 C6         -0.6360   -1.7140   -6.8400 c3        1 BDQ     -0.111000
     14 N6          1.3390    6.9590   10.9340 n1        1 BDQ     -0.046000
     15 C7          0.2520   -1.8540   -8.0790 c3        1 BDQ     -0.210000
     16 C8         -2.1100   -1.7210   -7.2650 c3        1 BDQ     -0.210000
     17 C9         -0.9910   -2.9540   -1.0870 c3        1 BDQ      0.030000
     18 C10        -0.6640   -1.8060   -0.0970 c2        1 BDQ     -0.110000
     19 C11        -1.6900   -1.0200    0.4190 c2        1 BDQ     -0.103000
     20 C12        -1.3930    0.0290    1.2980 c1        1 BDQ     -0.134000
     21 C13        -0.0720    0.2850    1.6570 c1        1 BDQ     -0.118000
     22 C14         0.9520   -0.5020    1.1400 c1        1 BDQ     -0.112000
     23 C15         0.6540   -1.5510    0.2600 c1        1 BDQ     -0.114000
     24 C16         0.2730    1.5600    2.4730 c3        1 BDQ     -0.010000
     25 C17         0.7190    3.0230    7.2350 c2        1 BDQ      0.107000
     26 C18         1.9940    3.4120    7.6280 c2        1 BDQ     -0.155000
     27 C19        -0.3970    3.6140    7.8140 c1        1 BDQ     -0.195000
     28 C20         2.1520    4.3890    8.5960 c1        1 BDQ     -0.065000
     29 C21        -0.2390    4.5920    8.7830 c1        1 BDQ     -0.064000
     30 C22         0.5530    2.2840    4.8590 c2        1 BDQ      0.381000
     31 C23         1.0350    4.9810    9.1760 c1        1 BDQ     -0.048000
     32 C24         1.2080    6.1060   10.1760 c1        1 BDQ     -0.090000
     33 HN1        -0.0510   -0.3090   -4.5950 hn        1 BDQ      0.194000
     34 HN3        -2.1720    0.2520   -3.0670 DU        1 BDQ      0.163000
     35 H4          2.2760   -1.9310   -4.2870 hc        1 BDQ      0.095000
     36 H4A         1.8460   -1.8070   -5.8250 hc        1 BDQ      0.095000
     37 H4B         2.0690   -3.2510   -5.1740 hc        1 BDQ      0.095000
     38 HN4         0.1420    0.3880    4.1600 hn        1 BDQ      0.203000
     39 H5         -1.2200   -3.3320   -5.6540 hc        1 BDQ      0.104000
     40 H5A         0.2220   -3.5430   -6.3120 hc        1 BDQ      0.104000
     41 HN5         0.4160    1.1170    6.5360 hn        1 BDQ      0.226000
     42 H6         -0.4320   -0.8730   -6.3870 hc        1 BDQ      0.094000
     43 H7          0.1160   -2.7360   -8.4810 hc        1 BDQ      0.076167
     44 H7A         1.1930   -1.7550   -7.8200 hc        1 BDQ      0.076167
     45 H7B         0.0160   -1.1560   -8.7330 hc        1 BDQ      0.076167
     46 H8         -2.6790   -1.5800   -6.4750 hc        1 BDQ      0.076167
     47 H8A        -2.3280   -2.5870   -7.6750 hc        1 BDQ      0.076167
     48 H8B        -2.2680   -0.9990   -7.9180 hc        1 BDQ      0.076167
     49 H9         -1.9400   -3.1770   -1.0250 h1        1 BDQ      0.118500
     50 H9A        -0.4520   -3.7450   -0.8600 h1        1 BDQ      0.118500
     51 H11        -2.6150   -1.1990    0.1690 ha        1 BDQ      0.150000
     52 H12        -2.1110    0.5790    1.6600 ha        1 BDQ      0.130000
     53 H14         1.8750   -0.3240    1.3890 ha        1 BDQ      0.146000
     54 H15         1.3750   -2.1050   -0.1030 ha        1 BDQ      0.152000
     55 H16        -0.4090    2.2460    2.3110 h1        1 BDQ      0.119500
     56 H16A        1.1490    1.8990    2.1940 h1        1 BDQ      0.119500
     57 H18         2.7770    2.9980    7.2220 ha        1 BDQ      0.180000
     58 H19        -1.2930    3.3410    7.5380 ha        1 BDQ      0.135000
     59 H20         3.0450    4.6620    8.8710 ha        1 BDQ      0.148000
     60 H21        -1.0220    5.0070    9.1900 ha        1 BDQ      0.144000
@<TRIPOS>BOND
     1    1    2 1   
     2    1    7 1   
     3    1    9 1   
     4    1   11 1   
     5    2    4 1   
     6    2   33 1   
     7    3    7 1   
     8    4    5 1   
     9    4    8 1   
    10    5    7 1   
    11    5   17 1   
    12    6   30 1   
    13    9   35 1   
    14    9   36 1   
    15    9   37 1   
    16   10   24 1   
    17   10   30 1   
    18   10   38 1   
    19   11   13 1   
    20   11   39 1   
    21   11   40 1   
    22   12   25 1   
    23   12   30 1   
    24   12   41 1   
    25   13   15 1   
    26   13   16 1   
    27   13   42 1   
    28   14   32 1   
    29   15   43 1   
    30   15   44 1   
    31   15   45 1   
    32   16   46 1   
    33   16   47 1   
    34   16   48 1   
    35   17   18 1   
    36   17   49 1   
    37   17   50 1   
    38   18   19 1   
    39   18   23 1   
    40   19   20 1   
    41   19   51 1   
    42   20   52 1   
    43   21   22 1   
    44   21   24 1   
    45   22   53 1   
    46   23   54 1   
    47   24   55 1   
    48   24   56 1   
    49   25   26 1   
    50   25   27 1   
    51   26   28 1   
    52   26   57 1   
    53   27   58 1   
    54   28   59 1   
    55   29   31 1   
    56   29   60 1   
    57   31   32 1   
@<TRIPOS>SUBSTRUCTURE
     1 BDQ         1 TEMP              0 ****  ****    0 ROOT
