@<TRIPOS>MOLECULE
BDR
   20    20     1     0     0
SMALL
bcc


@<TRIPOS>ATOM
      1 C4          0.4230   -0.4200    0.9400 c3        1 BDR      0.136100
      2 O          -0.7790   -0.9180    0.3310 os        1 BDR     -0.433600
      3 C1         -0.9890   -0.3310   -0.9430 c3        1 BDR      0.298900
      4 O1         -2.0700    0.5560   -0.7720 oh        1 BDR     -0.632800
      5 C2          0.2620    0.4880   -1.3340 c3        1 BDR      0.081100
      6 O2          0.8610    0.0030   -2.5170 oh        1 BDR     -0.595800
      7 C3          1.2500    0.2820   -0.1620 c3        1 BDR      0.133100
      8 O3          2.3370   -0.5670   -0.4640 oh        1 BDR     -0.585800
      9 C5          0.0560    0.5430    2.0710 c3        1 BDR      0.113400
     10 O5         -0.1340   -0.2440    3.2340 oh        1 BDR     -0.591800
     11 H4          0.9560   -1.3240    1.3440 h1        1 BDR      0.118700
     12 H1         -1.2400   -1.1510   -1.6660 h2        1 BDR      0.079700
     13 HO1        -2.6930    0.1420   -0.1590 ho        1 BDR      0.431000
     14 H2         -0.0070    1.5730   -1.4460 h1        1 BDR      0.073700
     15 HO2         0.2360    0.1670   -3.2340 ho        1 BDR      0.421000
     16 H3          1.6490    1.2740    0.1800 h1        1 BDR      0.055700
     17 HO3         2.6310   -0.3680   -1.3630 ho        1 BDR      0.428000
     18 H51        -0.8830    1.1000    1.8080 h1        1 BDR      0.034700
     19 H52         0.8910    1.2720    2.2510 h1        1 BDR      0.034700
     20 H5         -0.5580    0.3250    3.8860 ho        1 BDR      0.402000
@<TRIPOS>BOND
     1    1    2 1   
     2    1    7 1   
     3    1    9 1   
     4    1   11 1   
     5    2    3 1   
     6    3    4 1   
     7    3    5 1   
     8    3   12 1   
     9    4   13 1   
    10    5    6 1   
    11    5    7 1   
    12    5   14 1   
    13    6   15 1   
    14    7    8 1   
    15    7   16 1   
    16    8   17 1   
    17    9   10 1   
    18    9   18 1   
    19    9   19 1   
    20   10   20 1   
@<TRIPOS>SUBSTRUCTURE
     1 BDR         1 TEMP              0 ****  ****    0 ROOT
