@<TRIPOS>MOLECULE
BDR
   20    20     1     0     0
SMALL
bcc


@<TRIPOS>ATOM
      1 C4         -0.4190   -0.0650   -0.9480 c3        1 BDR      0.136100
      2 O           1.1780   -0.0650   -0.9480 os        1 BDR     -0.433600
      3 C1          1.5380   -0.0650    0.2970 c3        1 BDR      0.298900
      4 O1          1.7180    1.2800    0.7620 oh        1 BDR     -0.632800
      5 C2          0.3790   -0.7390    1.0490 c3        1 BDR      0.081100
      6 O2          0.7380   -1.9820    1.4480 oh        1 BDR     -0.595800
      7 C3         -0.7830   -0.8170    0.0360 c3        1 BDR      0.133100
      8 O3         -0.9680   -2.2270   -0.4320 oh        1 BDR     -0.585800
      9 C5         -0.9440    1.3530   -0.7430 c3        1 BDR      0.113400
     10 O5         -0.4790    2.1820   -1.7860 oh        1 BDR     -0.591800
     11 H4         -0.7540   -0.4280   -1.7890 h1        1 BDR      0.118700
     12 H1          2.3610   -0.5770    0.4120 h2        1 BDR      0.079700
     13 HO1         2.5790    1.4240    0.9250 ho        1 BDR      0.431000
     14 H2          0.1180   -0.2000    1.8200 h1        1 BDR      0.073700
     15 HO2         0.7580   -2.0140    2.3340 ho        1 BDR      0.421000
     16 H3         -1.6070   -0.4800    0.4360 h1        1 BDR      0.055700
     17 HO3        -1.8150   -2.4660   -0.3230 ho        1 BDR      0.428000
     18 H51        -0.6250    1.6980    0.1130 h1        1 BDR      0.034700
     19 H52        -1.9200    1.3430   -0.7470 h1        1 BDR      0.034700
     20 H5         -1.0540    2.8450   -1.9160 ho        1 BDR      0.402000
@<TRIPOS>BOND
     1    1    2 1   
     2    1    7 1   
     3    1    9 1   
     4    1   11 1   
     5    2    3 1   
     6    3    4 1   
     7    3    5 1   
     8    3   12 1   
     9    4   13 1   
    10    5    6 1   
    11    5    7 1   
    12    5   14 1   
    13    6   15 1   
    14    7    8 1   
    15    7   16 1   
    16    8   17 1   
    17    9   10 1   
    18    9   18 1   
    19    9   19 1   
    20   10   20 1   
@<TRIPOS>SUBSTRUCTURE
     1 BDR         1 TEMP              0 ****  ****    0 ROOT
