@<TRIPOS>MOLECULE
BDS
   44    47     1     0     0
SMALL
bcc


@<TRIPOS>ATOM
      1 C1          1.3370   -0.2560    0.1340 c3        1 BDS     -0.148700
      2 C2          0.5970   -1.2580    1.0490 c         1 BDS      0.900600
      3 O3          1.2520   -2.0410    1.8020 o         1 BDS     -0.867300
      4 O4         -0.6730   -1.2260    1.0590 o         1 BDS     -0.867300
      5 C5          2.2650    0.6200    0.9650 c3        1 BDS     -0.060100
      6 C6          1.6070    1.7680    1.6510 ca        1 BDS     -0.012300
      7 C7          0.2640    1.7230    2.0510 ca        1 BDS     -0.130000
      8 C8         -0.3540    2.7850    2.7300 ca        1 BDS     -0.115000
      9 C9          0.4310    3.8900    2.9930 ca        1 BDS      0.000100
     10 O10         0.0900    5.0820    3.6480 os        1 BDS     -0.358900
     11 C11         1.2710    5.9040    3.6390 c3        1 BDS      0.326200
     12 O12         2.3280    5.1800    2.9840 os        1 BDS     -0.354900
     13 C13         1.7840    3.9490    2.5900 ca        1 BDS      0.025100
     14 C14         2.3960    2.9120    1.9170 ca        1 BDS     -0.120000
     15 C15         2.0870   -0.9600   -0.9980 c3        1 BDS     -0.148700
     16 C16         2.5690    0.0350   -2.0790 c         1 BDS      0.900600
     17 O17         3.4900    0.8660   -1.8190 o         1 BDS     -0.867300
     18 O18         2.0530   -0.0540   -3.2370 o         1 BDS     -0.867300
     19 C19         3.2650   -1.7700   -0.4750 c3        1 BDS     -0.060100
     20 C20         3.6670   -2.9260   -1.3260 ca        1 BDS     -0.012300
     21 C21         3.4720   -2.9290   -2.7150 ca        1 BDS     -0.130000
     22 C22         3.8810   -3.9970   -3.5280 ca        1 BDS     -0.115000
     23 C23         4.4930   -5.0600   -2.8930 ca        1 BDS      0.000100
     24 O24         5.0000   -6.2470   -3.4420 os        1 BDS     -0.358900
     25 C25         5.5160   -7.0160   -2.3410 c3        1 BDS      0.326200
     26 O26         5.3270   -6.2650   -1.1280 os        1 BDS     -0.354900
     27 C27         4.6900   -5.0700   -1.4940 ca        1 BDS      0.025100
     28 C28         4.2860   -4.0260   -0.6870 ca        1 BDS     -0.120000
     29 HC11        0.5580    0.3950   -0.3530 hc        1 BDS      0.050700
     30 HC51        3.0810    1.0120    0.2920 hc        1 BDS      0.079700
     31 HC52        2.7440   -0.0270    1.7540 hc        1 BDS      0.079700
     32 HC71       -0.3320    0.8120    1.8210 ha        1 BDS      0.214000
     33 HC81       -1.4050    2.7320    3.0330 ha        1 BDS      0.133000
     34 H111        1.5750    6.1070    4.6960 h2        1 BDS      0.038200
     35 H112        1.0570    6.8350    3.0560 h2        1 BDS      0.038200
     36 H141        3.4410    2.9650    1.5860 ha        1 BDS      0.151000
     37 H151        1.3500   -1.6580   -1.4860 hc        1 BDS      0.050700
     38 H191        3.0090   -2.1460    0.5580 hc        1 BDS      0.079700
     39 H192        4.1520   -1.0810   -0.3850 hc        1 BDS      0.079700
     40 H211        2.9770   -2.0520   -3.1860 ha        1 BDS      0.214000
     41 H221        3.7190   -3.9820   -4.6120 ha        1 BDS      0.133000
     42 H251        6.6130   -7.1750   -2.4970 h2        1 BDS      0.038200
     43 H252        4.9390   -7.9710   -2.2660 h2        1 BDS      0.038200
     44 H281        4.4200   -4.0430    0.4020 ha        1 BDS      0.151000
@<TRIPOS>BOND
     1    1    2 1   
     2    1    5 1   
     3    1   15 1   
     4    1   29 1   
     5    2    3 1   
     6    2    4 1   
     7    5    6 1   
     8    5   30 1   
     9    5   31 1   
    10    6    7 ar  
    11    6   14 ar  
    12    7    8 ar  
    13    7   32 1   
    14    8    9 ar  
    15    8   33 1   
    16    9   10 1   
    17    9   13 ar  
    18   10   11 1   
    19   11   12 1   
    20   11   34 1   
    21   11   35 1   
    22   12   13 1   
    23   13   14 ar  
    24   14   36 1   
    25   15   16 1   
    26   15   19 1   
    27   15   37 1   
    28   16   17 1   
    29   16   18 1   
    30   19   20 1   
    31   19   38 1   
    32   19   39 1   
    33   20   21 ar  
    34   20   28 ar  
    35   21   22 ar  
    36   21   40 1   
    37   22   23 ar  
    38   22   41 1   
    39   23   24 1   
    40   23   27 ar  
    41   24   25 1   
    42   25   26 1   
    43   25   42 1   
    44   25   43 1   
    45   26   27 1   
    46   27   28 ar  
    47   28   44 1   
@<TRIPOS>SUBSTRUCTURE
     1 BDS         1 TEMP              0 ****  ****    0 ROOT
