@<TRIPOS>MOLECULE
BDS
   44    47     1     0     0
SMALL
bcc


@<TRIPOS>ATOM
      1 C1          0.7280    0.3140    0.6940 c3        1 BDS     -0.148700
      2 C2          0.9230    1.8450    0.6030 c         1 BDS      0.900600
      3 O3          0.0050    2.5800    0.1280 o         1 BDS     -0.867300
      4 O4          1.9980    2.3340    1.0710 o         1 BDS     -0.867300
      5 C5         -0.5340   -0.0030    1.4850 c3        1 BDS     -0.060100
      6 C6         -0.3800    0.0410    2.9670 ca        1 BDS     -0.012300
      7 C7          0.5570    0.8760    3.5910 ca        1 BDS     -0.130000
      8 C8          0.6840    0.9520    4.9870 ca        1 BDS     -0.115000
      9 C9         -0.1690    0.1580    5.7290 ca        1 BDS      0.000100
     10 O10        -0.2720    0.0290    7.1220 os        1 BDS     -0.358900
     11 C11        -1.3080   -0.9390    7.3660 c3        1 BDS      0.326200
     12 O12        -1.8350   -1.3740    6.1010 os        1 BDS     -0.354900
     13 C13        -1.1140   -0.6910    5.1110 ca        1 BDS      0.025100
     14 C14        -1.2400   -0.7740    3.7390 ca        1 BDS     -0.120000
     15 C15         0.7100   -0.3430   -0.6870 c3        1 BDS     -0.148700
     16 C16         0.8220   -1.8820   -0.5970 c         1 BDS      0.900600
     17 O17        -0.1350   -2.5660   -0.1220 o         1 BDS     -0.867300
     18 O18         1.8690   -2.4290   -1.0640 o         1 BDS     -0.867300
     19 C19        -0.5320    0.0420   -1.4790 c3        1 BDS     -0.060100
     20 C20        -0.3800   -0.0100   -2.9610 ca        1 BDS     -0.012300
     21 C21         0.5110   -0.8950   -3.5850 ca        1 BDS     -0.130000
     22 C22         0.6330   -0.9770   -4.9810 ca        1 BDS     -0.115000
     23 C23        -0.1740   -0.1380   -5.7230 ca        1 BDS      0.000100
     24 O24        -0.2690   -0.0040   -7.1160 os        1 BDS     -0.358900
     25 C25        -1.2500    1.0190   -7.3610 c3        1 BDS      0.326200
     26 O26        -1.7540    1.4820   -6.0950 os        1 BDS     -0.354900
     27 C27        -1.0720    0.7610   -5.1050 ca        1 BDS      0.025100
     28 C28        -1.1940    0.8510   -3.7340 ca        1 BDS     -0.120000
     29 HC11        1.6180   -0.1080    1.2380 hc        1 BDS      0.050700
     30 HC51       -1.3260    0.7450    1.1960 hc        1 BDS      0.079700
     31 HC52       -0.8950   -1.0280    1.1830 hc        1 BDS      0.079700
     32 HC71        1.2230    1.5010    2.9560 ha        1 BDS      0.214000
     33 HC81        1.4230    1.6090    5.4570 ha        1 BDS      0.133000
     34 H111       -0.8610   -1.8190    7.8920 h2        1 BDS      0.038200
     35 H112       -2.1280   -0.4480    7.9470 h2        1 BDS      0.038200
     36 H141       -1.9600   -1.4490    3.2580 ha        1 BDS      0.151000
     37 H151        1.6220    0.0300   -1.2320 hc        1 BDS      0.050700
     38 H191       -1.3640   -0.6600   -1.1910 hc        1 BDS      0.079700
     39 H192       -0.8370    1.0860   -1.1780 hc        1 BDS      0.079700
     40 H211        1.1410   -1.5550   -2.9500 ha        1 BDS      0.214000
     41 H221        1.3360   -1.6740   -5.4510 ha        1 BDS      0.133000
     42 H251       -0.7560    1.8740   -7.8860 h2        1 BDS      0.038200
     43 H252       -2.0960    0.5740   -7.9420 h2        1 BDS      0.038200
     44 H281       -1.8750    1.5640   -3.2530 ha        1 BDS      0.151000
@<TRIPOS>BOND
     1    1    2 1   
     2    1    5 1   
     3    1   15 1   
     4    1   29 1   
     5    2    3 1   
     6    2    4 1   
     7    5    6 1   
     8    5   30 1   
     9    5   31 1   
    10    6    7 ar  
    11    6   14 ar  
    12    7    8 ar  
    13    7   32 1   
    14    8    9 ar  
    15    8   33 1   
    16    9   10 1   
    17    9   13 ar  
    18   10   11 1   
    19   11   12 1   
    20   11   34 1   
    21   11   35 1   
    22   12   13 1   
    23   13   14 ar  
    24   14   36 1   
    25   15   16 1   
    26   15   19 1   
    27   15   37 1   
    28   16   17 1   
    29   16   18 1   
    30   19   20 1   
    31   19   38 1   
    32   19   39 1   
    33   20   21 ar  
    34   20   28 ar  
    35   21   22 ar  
    36   21   40 1   
    37   22   23 ar  
    38   22   41 1   
    39   23   24 1   
    40   23   27 ar  
    41   24   25 1   
    42   25   26 1   
    43   25   42 1   
    44   25   43 1   
    45   26   27 1   
    46   27   28 ar  
    47   28   44 1   
@<TRIPOS>SUBSTRUCTURE
     1 BDS         1 TEMP              0 ****  ****    0 ROOT
