@<TRIPOS>MOLECULE
BDS
   44    47     1     0     0
SMALL
bcc


@<TRIPOS>ATOM
      1 C1          1.3550   -0.4220    0.3900 c3        1 BDS     -0.146700
      2 C2          0.8460   -1.3660    1.5020 c         1 BDS      0.900600
      3 O3          1.6640   -2.0340    2.2050 o         1 BDS     -0.867800
      4 O4         -0.4050   -1.4040    1.7180 o         1 BDS     -0.867800
      5 C5          2.2970    0.6220    0.9750 c3        1 BDS     -0.058100
      6 C6          1.6350    1.7900    1.6210 ca        1 BDS     -0.016800
      7 C7          0.3630    1.6920    2.2030 ca        1 BDS     -0.128000
      8 C8         -0.2540    2.7770    2.8450 ca        1 BDS     -0.117500
      9 C9          0.4570    3.9610    2.8810 ca        1 BDS      0.001100
     10 O10         0.0990    5.1920    3.4490 os        1 BDS     -0.359900
     11 C11         1.1920    6.0920    3.1920 c3        1 BDS      0.326200
     12 O12         2.2170    5.3760    2.4800 os        1 BDS     -0.353400
     13 C13         1.7380    4.0710    2.2950 ca        1 BDS      0.024100
     14 C14         2.3480    3.0110    1.6570 ca        1 BDS     -0.117000
     15 C15         2.0230   -1.1760   -0.7610 c3        1 BDS     -0.146700
     16 C16         2.2550   -0.2340   -1.9640 c         1 BDS      0.900600
     17 O17         3.3570    0.3950   -2.0660 o         1 BDS     -0.867800
     18 O18         1.3460   -0.1330   -2.8390 o         1 BDS     -0.867800
     19 C19         3.3300   -1.8230   -0.3170 c3        1 BDS     -0.058100
     20 C20         3.7930   -2.9110   -1.2220 ca        1 BDS     -0.016800
     21 C21         4.2750   -2.5940   -2.5020 ca        1 BDS     -0.128000
     22 C22         4.7710   -3.5690   -3.3790 ca        1 BDS     -0.117500
     23 C23         4.7650   -4.8710   -2.9160 ca        1 BDS      0.001100
     24 O24         5.2010   -6.0380   -3.5600 os        1 BDS     -0.359900
     25 C25         4.9530   -7.1230   -2.6480 c3        1 BDS      0.326200
     26 O26         4.3890   -6.5850   -1.4400 os        1 BDS     -0.353400
     27 C27         4.2740   -5.2000   -1.6330 ca        1 BDS      0.024100
     28 C28         3.7790   -4.2470   -0.7650 ca        1 BDS     -0.117000
     29 HC11        0.4570    0.0970   -0.0480 hc        1 BDS      0.054200
     30 HC51        2.9420    0.1160    1.7490 hc        1 BDS      0.075950
     31 HC52        2.9730    0.9930    0.1510 hc        1 BDS      0.075950
     32 HC71       -0.1740    0.7190    2.1530 ha        1 BDS      0.211000
     33 HC81       -1.2500    2.6830    3.2920 ha        1 BDS      0.131500
     34 H111        1.6100    6.4370    4.1710 h2        1 BDS      0.037950
     35 H112        0.8250    6.9310    2.5500 h2        1 BDS      0.037950
     36 H141        3.3340    3.1030    1.1850 ha        1 BDS      0.157500
     37 H151        1.3070   -1.9770   -1.0900 hc        1 BDS      0.054200
     38 H191        3.1980   -2.2220    0.7280 hc        1 BDS      0.075950
     39 H192        4.1200   -1.0210   -0.2940 hc        1 BDS      0.075950
     40 H211        4.2290   -1.5290   -2.8170 ha        1 BDS      0.211000
     41 H221        5.1340   -3.3090   -4.3790 ha        1 BDS      0.131500
     42 H251        5.9270   -7.6140   -2.4020 h2        1 BDS      0.037950
     43 H252        4.2130   -7.8210   -3.1120 h2        1 BDS      0.037950
     44 H281        3.3800   -4.5000    0.2260 ha        1 BDS      0.157500
@<TRIPOS>BOND
     1    1    2 1   
     2    1    5 1   
     3    1   15 1   
     4    1   29 1   
     5    2    3 1   
     6    2    4 1   
     7    5    6 1   
     8    5   30 1   
     9    5   31 1   
    10    6    7 ar  
    11    6   14 ar  
    12    7    8 ar  
    13    7   32 1   
    14    8    9 ar  
    15    8   33 1   
    16    9   10 1   
    17    9   13 ar  
    18   10   11 1   
    19   11   12 1   
    20   11   34 1   
    21   11   35 1   
    22   12   13 1   
    23   13   14 ar  
    24   14   36 1   
    25   15   16 1   
    26   15   19 1   
    27   15   37 1   
    28   16   17 1   
    29   16   18 1   
    30   19   20 1   
    31   19   38 1   
    32   19   39 1   
    33   20   21 ar  
    34   20   28 ar  
    35   21   22 ar  
    36   21   40 1   
    37   22   23 ar  
    38   22   41 1   
    39   23   24 1   
    40   23   27 ar  
    41   24   25 1   
    42   25   26 1   
    43   25   42 1   
    44   25   43 1   
    45   26   27 1   
    46   27   28 ar  
    47   28   44 1   
@<TRIPOS>SUBSTRUCTURE
     1 BDS         1 TEMP              0 ****  ****    0 ROOT
