@<TRIPOS>MOLECULE
BDS
   44    45     1     0     0
SMALL
bcc


@<TRIPOS>ATOM
      1 C1         -0.3070    0.6520    0.2810 c3        1 BDS     -0.138000
      2 C2         -1.8410    0.6240    0.3040 c2        1 BDS      0.319000
      3 O3         -2.4550   -0.4280    0.6970 o         1 BDS     -0.601000
      4 O4         -2.5020    1.6040   -0.1850 o         1 BDS     -0.601000
      5 C5          0.2170    0.7050    1.6880 c3        1 BDS     -0.148000
      6 C6         -0.5730    1.7840    2.4960 c2        1 BDS     -0.003000
      7 C7         -0.3740    3.1610    2.2180 c2        1 BDS     -0.156000
      8 C8         -0.9920    4.1290    3.0050 c1        1 BDS     -0.130000
      9 C9         -1.8180    3.7420    4.0790 c1        1 BDS     -0.044000
     10 O10        -2.6230    4.5050    4.9820 os        1 BDS     -0.247000
     11 C11        -3.3020    3.6010    5.8320 c3        1 BDS      0.102000
     12 O12        -2.8840    2.2990    5.4960 os        1 BDS     -0.221000
     13 C13        -2.0180    2.3900    4.3570 c2        1 BDS     -0.009000
     14 C14        -1.3870    1.4010    3.5550 c2        1 BDS     -0.093000
     15 C15         0.2170   -0.5900   -0.4010 c3        1 BDS     -0.138000
     16 C16        -0.8630   -1.1760   -1.2830 c2        1 BDS      0.319000
     17 O17        -1.4330   -0.4430   -2.1760 o         1 BDS     -0.601000
     18 O18        -1.1680   -2.4100   -1.1810 o         1 BDS     -0.601000
     19 C19         1.4300   -0.2320   -1.2520 c3        1 BDS     -0.148000
     20 C20         1.7960   -1.4380   -2.1750 c2        1 BDS     -0.003000
     21 C21         2.3580   -2.6000   -1.6200 c2        1 BDS     -0.156000
     22 C22         2.6140   -3.7060   -2.4290 c1        1 BDS     -0.130000
     23 C23         2.3100   -3.6630   -3.8160 c1        1 BDS     -0.044000
     24 O24         2.4450   -4.6320   -4.8390 os        1 BDS     -0.247000
     25 C25         2.0040   -4.0510   -6.0670 c3        1 BDS      0.102000
     26 O26         1.5390   -2.7770   -5.7870 os        1 BDS     -0.221000
     27 C27         1.7560   -2.5210   -4.3740 c2        1 BDS     -0.009000
     28 C28         1.4930   -1.3930   -3.5560 c2        1 BDS     -0.093000
     29 HC11       -0.0180    1.4070   -0.1870 hc        1 BDS      0.091000
     30 HC51        1.1550    0.9370    1.6730 hc        1 BDS      0.119000
     31 HC52        0.1030   -0.1890    2.1210 hc        1 BDS      0.119000
     32 HC71        0.2930    3.4330    1.5530 ha        1 BDS      0.138000
     33 HC81       -0.9270    5.0720    2.7590 ha        1 BDS      0.121000
     34 H111       -3.0620    3.7830    6.7410 h2        1 BDS      0.078000
     35 H112       -4.3100    3.6810    5.6730 h2        1 BDS      0.078000
     36 H141       -1.4810    0.4400    3.7840 ha        1 BDS      0.226000
     37 H151        0.4790   -1.2430    0.2720 hc        1 BDS      0.091000
     38 H191        1.2270    0.5210   -1.7850 hc        1 BDS      0.119000
     39 H192        2.1760   -0.0290   -0.6790 hc        1 BDS      0.119000
     40 H211        2.6600   -2.6000   -0.6740 ha        1 BDS      0.138000
     41 H221        3.0290   -4.5110   -2.0430 ha        1 BDS      0.121000
     42 H251        1.2430   -4.6090   -6.4470 h2        1 BDS      0.078000
     43 H252        2.7760   -3.9880   -6.6950 h2        1 BDS      0.078000
     44 H281        1.0190   -0.6420   -3.9160 ha        1 BDS      0.226000
@<TRIPOS>BOND
     1    1    2 1   
     2    1    5 1   
     3    1   15 1   
     4    1   29 1   
     5    2    3 1   
     6    2    4 1   
     7    5    6 1   
     8    5   30 1   
     9    5   31 1   
    10    6    7 1   
    11    6   14 1   
    12    7    8 1   
    13    7   32 1   
    14    8   33 1   
    15    9   10 1   
    16    9   13 1   
    17   10   11 1   
    18   11   12 1   
    19   11   34 1   
    20   11   35 1   
    21   12   13 1   
    22   13   14 1   
    23   14   36 1   
    24   15   16 1   
    25   15   19 1   
    26   15   37 1   
    27   16   17 1   
    28   16   18 1   
    29   19   20 1   
    30   19   38 1   
    31   19   39 1   
    32   20   21 1   
    33   20   28 1   
    34   21   22 1   
    35   21   40 1   
    36   22   41 1   
    37   23   24 1   
    38   23   27 1   
    39   24   25 1   
    40   25   26 1   
    41   25   42 1   
    42   25   43 1   
    43   26   27 1   
    44   27   28 1   
    45   28   44 1   
@<TRIPOS>SUBSTRUCTURE
     1 BDS         1 TEMP              0 ****  ****    0 ROOT
