@<TRIPOS>MOLECULE
BDT
   51    54     1     0     0
SMALL
bcc


@<TRIPOS>ATOM
      1 C1          2.8520   -1.1980    0.0580 c3        1 BDT     -0.021400
      2 C2          3.3200   -2.5190    0.4280 c3        1 BDT     -0.115400
      3 C3          2.0630   -1.6590    0.9210 c         1 BDT      0.011100
      4 O3          1.8200   -0.5850    0.3970 o         1 BDT     -0.208100
      5 C4          1.3020   -2.0830    2.1710 c3        1 BDT     -0.075400
      6 C5          0.7140   -1.1800    1.5120 c3        1 BDT     -0.076700
      7 C6          1.0600    0.6620    2.3890 c3        1 BDT     -0.126400
      8 C7          0.8650   -0.0230    1.9460 c3        1 BDT     -0.012400
      9 C8          0.3680    0.6300    0.4330 c3        1 BDT     -0.035700
     10 C9          0.7860   -0.1230   -0.4800 c3        1 BDT     -0.046700
     11 C10         1.2070   -1.1830    0.0780 c3        1 BDT     -0.021000
     12 C11        -0.6290   -0.5560   -1.6900 c3        1 BDT     -0.066400
     13 C12        -1.2260    0.7190   -2.3080 c3        1 BDT     -0.042400
     14 C13        -1.8440    1.4970   -1.1540 c3        1 BDT     -0.151000
     15 C14        -1.3700    0.7480    0.3820 c3        1 BDT     -0.108700
     16 C15        -1.7150   -0.0700    0.4500 c3        1 BDT     -0.152400
     17 C16        -0.8000    2.5330    0.1010 c3        1 BDT     -0.168400
     18 C17        -1.4340    2.4830   -1.1120 c3        1 BDT      0.106100
     19 O17        -2.6790    3.6380   -1.1700 oh        1 BDT     -0.559800
     20 C18        -3.3820    1.5480   -1.2880 c3        1 BDT     -0.070100
     21 C19         0.6580   -2.4270   -0.6670 c3        1 BDT     -0.102100
     22 H1          3.1730   -0.9760   -0.8490 hc        1 BDT      0.070700
     23 H1A         3.1960   -0.5330    0.7030 hc        1 BDT      0.070700
     24 H2          4.1590   -2.7180    0.9050 hc        1 BDT      0.046700
     25 H2A         3.1120   -3.2570   -0.1880 hc        1 BDT      0.046700
     26 H4          1.7370   -1.8820    3.0350 hc        1 BDT      0.045700
     27 H4A         0.8790   -2.9720    2.2320 hc        1 BDT      0.045700
     28 H5         -0.2570   -1.3600    1.5170 hc        1 BDT      0.052700
     29 H6          1.6110    1.2410    1.8130 hc        1 BDT      0.037700
     30 H6A         0.2170    1.1210    2.6150 hc        1 BDT      0.037700
     31 H7          0.1220   -0.5180    2.3760 hc        1 BDT      0.045200
     32 H7A         1.6500   -0.6000    1.8350 hc        1 BDT      0.045200
     33 H8          0.7590    1.5260    0.3210 hc        1 BDT      0.062700
     34 H9          1.5240    0.3170   -0.9690 hc        1 BDT      0.082700
     35 H11        -0.2760   -1.1300   -2.4090 hc        1 BDT      0.045200
     36 H11A       -1.3300   -1.0380   -1.2070 hc        1 BDT      0.045200
     37 H12        -1.9190    0.4830   -2.9680 hc        1 BDT      0.046700
     38 H12A       -0.5170    1.2520   -2.7360 hc        1 BDT      0.046700
     39 H14        -1.6870    1.3050    1.1340 hc        1 BDT      0.080700
     40 H15        -2.5980   -0.0360    0.8950 hc        1 BDT      0.072200
     41 H15A       -1.8090   -0.4800   -0.4300 hc        1 BDT      0.072200
     42 H16         0.1760    2.5950    0.0270 hc        1 BDT      0.077700
     43 H16A       -1.2060    3.1770    0.7280 hc        1 BDT      0.077700
     44 H17        -0.7920    2.6250   -1.8460 h1        1 BDT      0.114700
     45 HO17       -2.3630    4.4010   -1.5090 ho        1 BDT      0.403000
     46 H18        -3.6250    2.0550   -2.0970 hc        1 BDT      0.040033
     47 H18A       -3.7660    1.9900   -0.4960 hc        1 BDT      0.040033
     48 H18B       -3.7360    0.6330   -1.3550 hc        1 BDT      0.040033
     49 H19        -0.3190   -2.4630   -0.5700 hc        1 BDT      0.050700
     50 H19A        0.8910   -2.3670   -1.6230 hc        1 BDT      0.050700
     51 H19B        1.0560   -3.2420   -0.2830 hc        1 BDT      0.050700
@<TRIPOS>BOND
     1    1    2 1   
     2    1   11 1   
     3    1   22 1   
     4    1   23 1   
     5    2    3 1   
     6    2   24 1   
     7    2   25 1   
     8    3    4 2   
     9    3    5 1   
    10    5    6 1   
    11    5   26 1   
    12    5   27 1   
    13    6    7 1   
    14    6   11 1   
    15    6   28 1   
    16    7    8 1   
    17    7   29 1   
    18    7   30 1   
    19    8    9 1   
    20    8   31 1   
    21    8   32 1   
    22    9   10 1   
    23    9   15 1   
    24    9   33 1   
    25   10   11 1   
    26   10   12 1   
    27   10   34 1   
    28   11   21 1   
    29   12   13 1   
    30   12   35 1   
    31   12   36 1   
    32   13   14 1   
    33   13   37 1   
    34   13   38 1   
    35   14   15 1   
    36   14   18 1   
    37   14   20 1   
    38   15   16 1   
    39   15   39 1   
    40   16   17 1   
    41   16   40 1   
    42   16   41 1   
    43   17   18 1   
    44   17   42 1   
    45   17   43 1   
    46   18   19 1   
    47   18   44 1   
    48   19   45 1   
    49   20   46 1   
    50   20   47 1   
    51   20   48 1   
    52   21   49 1   
    53   21   50 1   
    54   21   51 1   
@<TRIPOS>SUBSTRUCTURE
     1 BDT         1 TEMP              0 ****  ****    0 ROOT
