@<TRIPOS>MOLECULE
BDT
   51    54     1     0     0
SMALL
bcc


@<TRIPOS>ATOM
      1 C1          2.6740   -1.4730    0.6930 c3        1 BDT     -0.069400
      2 C2          3.1830   -1.5530   -0.7270 c3        1 BDT     -0.182400
      3 C3          3.8420   -0.2680   -1.1360 c         1 BDT      0.571100
      4 O3          4.9390   -0.2370   -1.7020 o         1 BDT     -0.534100
      5 C4          3.0550    0.9760   -0.8450 c3        1 BDT     -0.181400
      6 C5          2.4930    1.0110    0.5680 c3        1 BDT     -0.046700
      7 C6          1.6120    2.2410    0.7380 c3        1 BDT     -0.074400
      8 C7          0.2970    2.1250    0.0010 c3        1 BDT     -0.074400
      9 C8         -0.4480    0.8590    0.3860 c3        1 BDT     -0.046700
     10 C9          0.4340   -0.3840    0.1660 c3        1 BDT     -0.045700
     11 C10         1.7470   -0.2800    0.9610 c3        1 BDT     -0.039000
     12 C11        -0.3270   -1.6750    0.4470 c3        1 BDT     -0.074400
     13 C12        -1.6670   -1.7730   -0.2670 c3        1 BDT     -0.063400
     14 C13        -2.5140   -0.5430    0.0030 c3        1 BDT     -0.044000
     15 C14        -1.6970    0.6880   -0.4540 c3        1 BDT     -0.067700
     16 C15        -2.7200    1.8150   -0.5220 c3        1 BDT     -0.068400
     17 C16        -4.0150    1.1330   -0.9690 c3        1 BDT     -0.117400
     18 C17        -3.7760   -0.3910   -0.8820 c3        1 BDT      0.141100
     19 O17        -4.8650   -1.0750   -0.2910 oh        1 BDT     -0.591800
     20 C18        -2.9320   -0.4940    1.4630 c3        1 BDT     -0.076100
     21 C19         1.4930   -0.2650    2.4670 c3        1 BDT     -0.089100
     22 H1          2.1440   -2.4270    0.9510 hc        1 BDT      0.048700
     23 H1A         3.5550   -1.3920    1.3860 hc        1 BDT      0.048700
     24 H2          3.9100   -2.4020   -0.8220 hc        1 BDT      0.069200
     25 H2A         2.3350   -1.7530   -1.4360 hc        1 BDT      0.069200
     26 H4          3.7060    1.8780   -1.0020 hc        1 BDT      0.070200
     27 H4A         2.2230    1.0290   -1.5980 hc        1 BDT      0.070200
     28 H5          3.3670    1.1150    1.2740 hc        1 BDT      0.051700
     29 H6          1.4130    2.3960    1.8320 hc        1 BDT      0.043700
     30 H6A         2.1660    3.1440    0.3690 hc        1 BDT      0.043700
     31 H7         -0.3460    3.0140    0.2390 hc        1 BDT      0.040700
     32 H7A         0.4750    2.1360   -1.1070 hc        1 BDT      0.040700
     33 H8         -0.7360    0.9310    1.4700 hc        1 BDT      0.059700
     34 H9          0.7140   -0.3980   -0.9280 hc        1 BDT      0.042700
     35 H11         0.3010   -2.5450    0.1150 hc        1 BDT      0.042700
     36 H11A       -0.4910   -1.7830    1.5510 hc        1 BDT      0.042700
     37 H12        -1.4990   -1.8790   -1.3710 hc        1 BDT      0.044700
     38 H12A       -2.2080   -2.6910    0.0830 hc        1 BDT      0.044700
     39 H14        -1.3590    0.4930   -1.5160 hc        1 BDT      0.044700
     40 H15        -2.8480    2.2990    0.4770 hc        1 BDT      0.044700
     41 H15A       -2.4030    2.6050   -1.2460 hc        1 BDT      0.044700
     42 H16        -4.8640    1.4230   -0.3020 hc        1 BDT      0.048200
     43 H16A       -4.2780    1.4230   -2.0140 hc        1 BDT      0.048200
     44 H17        -3.5820   -0.8170   -1.9050 h1        1 BDT      0.034700
     45 HO17       -5.6360   -0.8810   -0.8380 ho        1 BDT      0.399000
     46 H18        -2.0500   -0.5210    2.1450 hc        1 BDT      0.040367
     47 H18A       -3.5140    0.4370    1.6650 hc        1 BDT      0.040367
     48 H18B       -3.5850   -1.3730    1.6900 hc        1 BDT      0.040367
     49 H19         2.4470   -0.0730    3.0160 hc        1 BDT      0.037700
     50 H19A        0.7630    0.5290    2.7500 hc        1 BDT      0.037700
     51 H19B        1.0910   -1.2510    2.8030 hc        1 BDT      0.037700
@<TRIPOS>BOND
     1    1    2 1   
     2    1   11 1   
     3    1   22 1   
     4    1   23 1   
     5    2    3 1   
     6    2   24 1   
     7    2   25 1   
     8    3    4 2   
     9    3    5 1   
    10    5    6 1   
    11    5   26 1   
    12    5   27 1   
    13    6    7 1   
    14    6   11 1   
    15    6   28 1   
    16    7    8 1   
    17    7   29 1   
    18    7   30 1   
    19    8    9 1   
    20    8   31 1   
    21    8   32 1   
    22    9   10 1   
    23    9   15 1   
    24    9   33 1   
    25   10   11 1   
    26   10   12 1   
    27   10   34 1   
    28   11   21 1   
    29   12   13 1   
    30   12   35 1   
    31   12   36 1   
    32   13   14 1   
    33   13   37 1   
    34   13   38 1   
    35   14   15 1   
    36   14   18 1   
    37   14   20 1   
    38   15   16 1   
    39   15   39 1   
    40   16   17 1   
    41   16   40 1   
    42   16   41 1   
    43   17   18 1   
    44   17   42 1   
    45   17   43 1   
    46   18   19 1   
    47   18   44 1   
    48   19   45 1   
    49   20   46 1   
    50   20   47 1   
    51   20   48 1   
    52   21   49 1   
    53   21   50 1   
    54   21   51 1   
@<TRIPOS>SUBSTRUCTURE
     1 BDT         1 TEMP              0 ****  ****    0 ROOT
