@<TRIPOS>MOLECULE
BDT
   51    54     1     0     0
SMALL
bcc


@<TRIPOS>ATOM
      1 C1          0.1530   -0.0360    0.0650 c3        1 BDT     -0.069400
      2 C2          1.6560   -0.1180    0.1840 c3        1 BDT     -0.182400
      3 C3          2.0820   -0.1360    1.6240 c         1 BDT      0.571100
      4 O3          2.9060   -0.9440    2.0600 o         1 BDT     -0.534100
      5 C4          1.4650    0.9250    2.4870 c3        1 BDT     -0.181400
      6 C5         -0.0420    1.0420    2.3050 c3        1 BDT     -0.046700
      7 C6         -0.5660    2.2160    3.1210 c3        1 BDT     -0.074400
      8 C7         -0.1870    3.5550    2.5290 c3        1 BDT     -0.074400
      9 C8         -0.6140    3.6620    1.0750 c3        1 BDT     -0.046700
     10 C9         -0.0410    2.4960    0.2480 c3        1 BDT     -0.045700
     11 C10        -0.4740    1.1380    0.8280 c3        1 BDT     -0.039000
     12 C11        -0.3690    2.6380   -1.2340 c3        1 BDT     -0.074400
     13 C12        -0.0210    3.9980   -1.8190 c3        1 BDT     -0.063400
     14 C13        -0.6330    5.1140   -0.9910 c3        1 BDT     -0.044000
     15 C14        -0.1140    4.9510    0.4560 c3        1 BDT     -0.067700
     16 C15        -0.4360    6.2820    1.1250 c3        1 BDT     -0.068400
     17 C16        -0.2710    7.3200    0.0120 c3        1 BDT     -0.117400
     18 C17        -0.1280    6.5430   -1.3150 c3        1 BDT      0.141100
     19 O17        -0.9040    7.1050   -2.3560 oh        1 BDT     -0.591800
     20 C18        -2.1480    5.0940   -1.1060 c3        1 BDT     -0.076100
     21 C19        -1.9870    0.9470    0.7430 c3        1 BDT     -0.089100
     22 H1         -0.1300    0.0260   -1.0180 hc        1 BDT      0.048700
     23 H1A        -0.2920   -0.9880    0.4640 hc        1 BDT      0.048700
     24 H2          2.0270   -1.0420   -0.3350 hc        1 BDT      0.069200
     25 H2A         2.1380    0.7660   -0.3140 hc        1 BDT      0.069200
     26 H4          1.9650    1.8980    2.2300 hc        1 BDT      0.070200
     27 H4A         1.6880    0.7090    3.5660 hc        1 BDT      0.070200
     28 H5         -0.5030    0.1010    2.7240 hc        1 BDT      0.051700
     29 H6         -1.6830    2.1410    3.1870 hc        1 BDT      0.043700
     30 H6A        -0.1640    2.1460    4.1660 hc        1 BDT      0.043700
     31 H7         -0.6780    4.3770    3.1150 hc        1 BDT      0.040700
     32 H7A         0.9210    3.7110    2.6090 hc        1 BDT      0.040700
     33 H8         -1.7370    3.6400    1.0320 hc        1 BDT      0.059700
     34 H9          1.0840    2.5500    0.3430 hc        1 BDT      0.042700
     35 H11         0.2060    1.8630   -1.8080 hc        1 BDT      0.042700
     36 H11A       -1.4600    2.4360   -1.3990 hc        1 BDT      0.042700
     37 H12         1.0930    4.1220   -1.8510 hc        1 BDT      0.044700
     38 H12A       -0.4000    4.0570   -2.8730 hc        1 BDT      0.044700
     39 H14         1.0130    4.8790    0.4050 hc        1 BDT      0.044700
     40 H15        -1.4810    6.2870    1.5220 hc        1 BDT      0.044700
     41 H15A        0.2560    6.4830    1.9780 hc        1 BDT      0.044700
     42 H16         0.6330    7.9520    0.1880 hc        1 BDT      0.048200
     43 H16A       -1.1630    7.9930   -0.0350 hc        1 BDT      0.048200
     44 H17         0.9490    6.5060   -1.6350 h1        1 BDT      0.034700
     45 HO17       -0.6010    8.0150   -2.4600 ho        1 BDT      0.399000
     46 H18        -2.4410    5.3000   -2.1650 hc        1 BDT      0.040367
     47 H18A       -2.5930    5.8870   -0.4580 hc        1 BDT      0.040367
     48 H18B       -2.5700    4.1060   -0.8070 hc        1 BDT      0.040367
     49 H19        -2.5330    1.8000    1.2090 hc        1 BDT      0.037700
     50 H19A       -2.2860    0.0100    1.2730 hc        1 BDT      0.037700
     51 H19B       -2.3080    0.8610   -0.3240 hc        1 BDT      0.037700
@<TRIPOS>BOND
     1    1    2 1   
     2    1   11 1   
     3    1   22 1   
     4    1   23 1   
     5    2    3 1   
     6    2   24 1   
     7    2   25 1   
     8    3    4 2   
     9    3    5 1   
    10    5    6 1   
    11    5   26 1   
    12    5   27 1   
    13    6    7 1   
    14    6   11 1   
    15    6   28 1   
    16    7    8 1   
    17    7   29 1   
    18    7   30 1   
    19    8    9 1   
    20    8   31 1   
    21    8   32 1   
    22    9   10 1   
    23    9   15 1   
    24    9   33 1   
    25   10   11 1   
    26   10   12 1   
    27   10   34 1   
    28   11   21 1   
    29   12   13 1   
    30   12   35 1   
    31   12   36 1   
    32   13   14 1   
    33   13   37 1   
    34   13   38 1   
    35   14   15 1   
    36   14   18 1   
    37   14   20 1   
    38   15   16 1   
    39   15   39 1   
    40   16   17 1   
    41   16   40 1   
    42   16   41 1   
    43   17   18 1   
    44   17   42 1   
    45   17   43 1   
    46   18   19 1   
    47   18   44 1   
    48   19   45 1   
    49   20   46 1   
    50   20   47 1   
    51   20   48 1   
    52   21   49 1   
    53   21   50 1   
    54   21   51 1   
@<TRIPOS>SUBSTRUCTURE
     1 BDT         1 TEMP              0 ****  ****    0 ROOT
