@<TRIPOS>MOLECULE
BDT
   51    54     1     0     0
SMALL
bcc


@<TRIPOS>ATOM
      1 C1          0.1390   -0.0330    0.0290 c3        1 BDT     -0.069400
      2 C2          1.6430   -0.1230    0.1330 c3        1 BDT     -0.182400
      3 C3          2.0830   -0.1550    1.5680 c         1 BDT      0.571100
      4 O3          2.9080   -0.9710    1.9890 o         1 BDT     -0.534100
      5 C4          1.4790    0.9000    2.4470 c3        1 BDT     -0.181400
      6 C5         -0.0290    1.0240    2.2820 c3        1 BDT     -0.046700
      7 C6         -0.5400    2.1930    3.1130 c3        1 BDT     -0.074400
      8 C7         -0.1620    3.5360    2.5300 c3        1 BDT     -0.074400
      9 C8         -0.6030    3.6580    1.0810 c3        1 BDT     -0.046700
     10 C9         -0.0420    2.4970    0.2390 c3        1 BDT     -0.045700
     11 C10        -0.4750    1.1360    0.8100 c3        1 BDT     -0.039000
     12 C11        -0.3850    2.6550   -1.2400 c3        1 BDT     -0.074400
     13 C12        -0.0370    4.0190   -1.8150 c3        1 BDT     -0.063400
     14 C13        -0.6360    5.1290   -0.9700 c3        1 BDT     -0.044000
     15 C14        -0.1040    4.9510    0.4700 c3        1 BDT     -0.067700
     16 C15        -0.4130    6.2760    1.1540 c3        1 BDT     -0.068400
     17 C16        -0.2550    7.3250    0.0500 c3        1 BDT     -0.117400
     18 C17        -0.1280    6.5590   -1.2850 c3        1 BDT      0.141100
     19 O17        -0.9120    7.1340   -2.3140 oh        1 BDT     -0.591800
     20 C18        -2.1520    5.1170   -1.0710 c3        1 BDT     -0.076100
     21 C19        -1.9900    0.9520    0.7370 c3        1 BDT     -0.089100
     22 H1         -0.1540    0.0400   -1.0500 hc        1 BDT      0.048700
     23 H1A        -0.3060   -0.9870    0.4240 hc        1 BDT      0.048700
     24 H2          2.1240    0.7640   -0.3610 hc        1 BDT      0.069200
     25 H2A         2.0060   -1.0430   -0.3980 hc        1 BDT      0.069200
     26 H4          1.9800    1.8730    2.1950 hc        1 BDT      0.070200
     27 H4A         1.7120    0.6720    3.5220 hc        1 BDT      0.070200
     28 H5         -0.4900    0.0810    2.6960 hc        1 BDT      0.051700
     29 H6         -0.1290    2.1110    4.1540 hc        1 BDT      0.043700
     30 H6A        -1.6580    2.1210    3.1900 hc        1 BDT      0.043700
     31 H7         -0.6440    4.3540    3.1290 hc        1 BDT      0.040700
     32 H7A         0.9480    3.6860    2.6010 hc        1 BDT      0.040700
     33 H8         -1.7260    3.6410    1.0490 hc        1 BDT      0.059700
     34 H9          1.0830    2.5460    0.3230 hc        1 BDT      0.042700
     35 H11         0.1810    1.8830   -1.8260 hc        1 BDT      0.042700
     36 H11A       -1.4780    2.4590   -1.3950 hc        1 BDT      0.042700
     37 H12         1.0770    4.1380   -1.8570 hc        1 BDT      0.044700
     38 H12A       -0.4250    4.0890   -2.8640 hc        1 BDT      0.044700
     39 H14         1.0230    4.8750    0.4070 hc        1 BDT      0.044700
     40 H15         0.2880    6.4660    2.0030 hc        1 BDT      0.044700
     41 H15A       -1.4540    6.2820    1.5620 hc        1 BDT      0.044700
     42 H16         0.6530    7.9510    0.2230 hc        1 BDT      0.048200
     43 H16A       -1.1440    8.0010    0.0180 hc        1 BDT      0.048200
     44 H17         0.9460    6.5210   -1.6160 h1        1 BDT      0.034700
     45 HO17       -0.6060    8.0440   -2.4120 ho        1 BDT      0.399000
     46 H18        -2.5750    4.1280   -0.7760 hc        1 BDT      0.040367
     47 H18A       -2.4550    5.3340   -2.1250 hc        1 BDT      0.040367
     48 H18B       -2.5870    5.9050   -0.4110 hc        1 BDT      0.040367
     49 H19        -2.3210    0.8770   -0.3260 hc        1 BDT      0.037700
     50 H19A       -2.2870    0.0110    1.2620 hc        1 BDT      0.037700
     51 H19B       -2.5270    1.8030    1.2170 hc        1 BDT      0.037700
@<TRIPOS>BOND
     1    1    2 1   
     2    1   11 1   
     3    1   22 1   
     4    1   23 1   
     5    2    3 1   
     6    2   24 1   
     7    2   25 1   
     8    3    4 2   
     9    3    5 1   
    10    5    6 1   
    11    5   26 1   
    12    5   27 1   
    13    6    7 1   
    14    6   11 1   
    15    6   28 1   
    16    7    8 1   
    17    7   29 1   
    18    7   30 1   
    19    8    9 1   
    20    8   31 1   
    21    8   32 1   
    22    9   10 1   
    23    9   15 1   
    24    9   33 1   
    25   10   11 1   
    26   10   12 1   
    27   10   34 1   
    28   11   21 1   
    29   12   13 1   
    30   12   35 1   
    31   12   36 1   
    32   13   14 1   
    33   13   37 1   
    34   13   38 1   
    35   14   15 1   
    36   14   18 1   
    37   14   20 1   
    38   15   16 1   
    39   15   39 1   
    40   16   17 1   
    41   16   40 1   
    42   16   41 1   
    43   17   18 1   
    44   17   42 1   
    45   17   43 1   
    46   18   19 1   
    47   18   44 1   
    48   19   45 1   
    49   20   46 1   
    50   20   47 1   
    51   20   48 1   
    52   21   49 1   
    53   21   50 1   
    54   21   51 1   
@<TRIPOS>SUBSTRUCTURE
     1 BDT         1 TEMP              0 ****  ****    0 ROOT
