@<TRIPOS>MOLECULE
BDU
   65    60     1     0     0
SMALL
bcc


@<TRIPOS>ATOM
      1 CX1         2.9850    3.5770   -0.6770 c1        1 BDU      0.317000
      2 O1A         3.4650    2.8570   -1.5870 o         1 BDU     -0.573000
      3 O1B         3.6290    4.6250   -0.2750 os        1 BDU     -0.532000
      4 CX2         1.5640    3.2590   -0.0950 c3        1 BDU      0.124000
      5 OX2         1.8610    2.9470    1.1810 os        1 BDU     -0.272000
      6 CO2         2.9520    2.0160    1.3140 c3        1 BDU     -0.061000
      7 CX3         0.6290    4.4840   -0.1750 c3        1 BDU     -0.196000
      8 CX4         0.1890    4.7910   -1.5780 c3        1 BDU      0.003000
      9 OX4        -0.7890    5.8270   -1.5310 oh        1 BDU     -0.340000
     10 CX5        -0.3960    3.6200   -2.2660 c3        1 BDU     -0.006000
     11 NX5        -0.6190    3.9550   -3.6550 n         1 BDU     -0.346000
     12 C10        -1.8020    4.6840   -4.0430 c2        1 BDU      0.304000
     13 O10        -2.6340    5.0270   -3.1850 o         1 BDU     -0.365000
     14 C11        -1.9890    5.1000   -5.4840 c3        1 BDU     -0.245000
     15 CX6         0.4770    2.4160   -2.2080 c3        1 BDU     -0.004000
     16 OX6         0.9140    2.0810   -0.8320 os        1 BDU     -0.312000
     17 CX7        -0.2660    1.2580   -2.7800 c3        1 BDU      0.020000
     18 OX7        -1.5610    1.3030   -2.3670 oh        1 BDU     -0.328000
     19 CX8         0.3740   -0.0450   -2.3030 c3        1 BDU     -0.012000
     20 OX8         1.4320   -0.3570   -3.1170 oh        1 BDU     -0.371000
     21 CX9        -0.6600   -1.1640   -2.3580 c3        1 BDU     -0.036000
     22 NX6        -0.1950   -2.2800   -1.5990 n         1 BDU     -0.345000
     23 C12        -1.1740   -3.2310   -0.9830 c2        1 BDU      0.330000
     24 O12        -2.1560   -3.7200   -1.7010 o         1 BDU     -0.376000
     25 C1G        -0.9770   -3.7010    0.4770 c2        1 BDU     -0.108000
     26 CD1        -0.9130   -2.7910    1.4740 c2        1 BDU     -0.102000
     27 CE1        -0.7630   -3.2200    2.8090 c1        1 BDU     -0.126000
     28 CD2        -0.8900   -5.1180    0.7790 c1        1 BDU     -0.085000
     29 CE2        -0.7440   -5.5340    2.0810 c1        1 BDU     -0.126000
     30 C1Z        -0.6780   -4.6000    3.1050 c1        1 BDU     -0.032000
     31 C2G        -0.4590   -5.0240    4.4200 c1        1 BDU     -0.032000
     32 CY1         0.8510   -5.1290    4.9210 c1        1 BDU     -0.128750
     33 CY2        -1.5020   -5.2930    5.2140 c1        1 BDU     -0.126000
     34 CG1         1.0610   -5.5100    6.2300 c1        1 BDU     -0.128750
     35 CG2        -1.2830   -5.6930    6.5870 c1        1 BDU     -0.128750
     36 C2Z        -0.0300   -5.7920    7.0620 c1        1 BDU     -0.128750
     37 HO21        2.6420    1.2070    1.7850 h1        1 BDU      0.072667
     38 HO22        3.6750    2.4310    1.8220 h1        1 BDU      0.072667
     39 HO23        3.2560    1.7860    0.4850 h1        1 BDU      0.072667
     40 HX31       -0.1540    4.3150    0.3690 hc        1 BDU      0.105500
     41 HX32        1.0750    5.2240    0.1680 hc        1 BDU      0.105500
     42 HX4         1.0060    5.1240   -2.1190 h1        1 BDU      0.100000
     43 HA         -0.4500    6.5280   -1.1400 ho        1 BDU      0.199000
     44 HX5        -1.2650    3.4050   -1.8460 h1        1 BDU      0.148000
     45 HB          0.0590    3.7790   -4.2980 hn        1 BDU      0.208000
     46 H111       -2.8520    5.6660   -5.5680 hc        1 BDU      0.096000
     47 H112       -2.0670    4.2470   -6.0870 hc        1 BDU      0.096000
     48 H113       -1.2840    5.5900   -5.7480 hc        1 BDU      0.096000
     49 HX6         1.2630    2.5790   -2.7490 h1        1 BDU      0.121000
     50 HX7        -0.2360    1.2970   -3.6920 h1        1 BDU      0.118000
     51 HC         -1.6140    1.0060   -1.5700 ho        1 BDU      0.216000
     52 HX8         0.6830    0.0600   -1.4090 h1        1 BDU      0.097000
     53 HD          2.0300   -0.8690   -2.6570 ho        1 BDU      0.268000
     54 HX91       -1.4650   -0.8590   -2.0040 h1        1 BDU      0.110000
     55 HX92       -0.7920   -1.4270   -3.2590 h1        1 BDU      0.110000
     56 HE          0.6810   -2.3860   -1.4560 hn        1 BDU      0.232000
     57 HD1        -0.8660   -1.8230    1.2570 ha        1 BDU      0.151000
     58 HE1        -0.7050   -2.4990    3.5960 ha        1 BDU      0.138000
     59 HD2        -1.0340   -5.7730    0.0770 ha        1 BDU      0.152000
     60 HE2        -0.6660   -6.5270    2.2940 ha        1 BDU      0.134000
     61 HY1         1.5890   -4.9410    4.3610 ha        1 BDU      0.130500
     62 HY2        -2.4400   -5.2450    4.8440 ha        1 BDU      0.134000
     63 HG1         1.9530   -5.6070    6.5620 ha        1 BDU      0.130500
     64 HG2        -2.0400   -5.8900    7.1660 ha        1 BDU      0.130500
     65 H2Z         0.1140   -6.0260    7.9630 ha        1 BDU      0.130500
@<TRIPOS>BOND
     1    1    2 1   
     2    1    4 1   
     3    4    5 1   
     4    4    7 1   
     5    4   16 1   
     6    5    6 1   
     7    6   37 1   
     8    6   38 1   
     9    6   39 1   
    10    7    8 1   
    11    7   40 1   
    12    7   41 1   
    13    8    9 1   
    14    8   10 1   
    15    8   42 1   
    16    9   43 1   
    17   10   11 1   
    18   10   15 1   
    19   10   44 1   
    20   11   12 1   
    21   11   45 1   
    22   12   13 1   
    23   12   14 1   
    24   14   46 1   
    25   14   47 1   
    26   14   48 1   
    27   15   16 1   
    28   15   17 1   
    29   15   49 1   
    30   17   18 1   
    31   17   19 1   
    32   17   50 1   
    33   18   51 1   
    34   19   20 1   
    35   19   21 1   
    36   19   52 1   
    37   20   53 1   
    38   21   22 1   
    39   21   54 1   
    40   21   55 1   
    41   22   23 1   
    42   22   56 1   
    43   23   24 1   
    44   23   25 1   
    45   25   26 1   
    46   25   28 1   
    47   26   27 1   
    48   26   57 1   
    49   27   58 1   
    50   28   59 1   
    51   29   30 1   
    52   29   60 1   
    53   31   33 1   
    54   32   34 1   
    55   32   61 1   
    56   33   62 1   
    57   34   63 1   
    58   35   36 1   
    59   35   64 1   
    60   36   65 1   
@<TRIPOS>SUBSTRUCTURE
     1 BDU         1 TEMP              0 ****  ****    0 ROOT
