@<TRIPOS>MOLECULE
BDU
   67    69     1     0     0
SMALL
bcc


@<TRIPOS>ATOM
      1 CX1         1.7860   -0.9890   -1.6470 c         1 BDU      0.901600
      2 O1A         1.6270   -1.7400   -2.6590 o         1 BDU     -0.802800
      3 O1B         2.6950   -0.1500   -1.4890 o         1 BDU     -0.802800
      4 CX2         0.6490   -1.0580   -0.5670 c3        1 BDU      0.211600
      5 OX2         0.6440   -2.1750    0.2790 os        1 BDU     -0.394600
      6 CO2         1.2750   -3.3350   -0.2590 c3        1 BDU      0.125700
      7 CX3         0.5300    0.1870    0.3220 c3        1 BDU     -0.122400
      8 CX4        -0.0350    1.3820   -0.4320 c3        1 BDU      0.137100
      9 OX4        -0.3550    2.4810    0.3920 oh        1 BDU     -0.613800
     10 CX5        -1.3300    0.9670   -1.2200 c3        1 BDU      0.051500
     11 NX5        -1.9280    2.1510   -1.9180 n4        1 BDU     -0.671800
     12 C10        -3.4390    2.1750   -1.8260 c         1 BDU      0.555100
     13 O10        -3.8970    2.6080   -0.7800 o         1 BDU     -0.406100
     14 C11        -4.1890    1.6680   -3.0070 c3        1 BDU     -0.195100
     15 CX6        -0.8670   -0.1760   -2.1500 c3        1 BDU      0.094100
     16 OX6        -0.6130   -1.2580   -1.2690 os        1 BDU     -0.446600
     17 CX7        -1.7890   -0.7460   -3.2380 c3        1 BDU      0.132100
     18 OX7        -2.9590   -1.3280   -2.7120 oh        1 BDU     -0.614800
     19 CX8        -0.9170   -1.7800   -3.9950 c3        1 BDU      0.085100
     20 OX8        -0.0020   -1.0940   -4.8290 oh        1 BDU     -0.651800
     21 CX9        -1.7760   -2.6610   -4.9150 c3        1 BDU      0.108800
     22 NX6        -0.8960   -3.5890   -5.6840 n4        1 BDU     -0.669800
     23 C12        -1.6250   -4.4300   -6.7100 c         1 BDU      0.576700
     24 O12        -2.8150   -4.1740   -6.8590 o         1 BDU     -0.446100
     25 C1G        -0.8330   -5.4490   -7.3880 ca        1 BDU     -0.226600
     26 CD1        -1.5390   -6.3590   -8.1990 ca        1 BDU     -0.057500
     27 CE1        -0.8590   -7.3600   -8.8820 ca        1 BDU     -0.134000
     28 CD2         0.5650   -5.5580   -7.2850 ca        1 BDU     -0.057500
     29 CE2         1.2360   -6.5590   -7.9710 ca        1 BDU     -0.134000
     30 C1Z         0.5370   -7.4770   -8.7780 cp        1 BDU      0.075000
     31 C2G         1.2520   -8.5260   -9.4940 cp        1 BDU     -0.096000
     32 CY1         2.3550   -9.1630   -8.9050 ca        1 BDU     -0.098500
     33 CY2         0.8430   -8.9110  -10.7810 ca        1 BDU     -0.098500
     34 CG1         3.0330  -10.1680   -9.5910 ca        1 BDU     -0.127000
     35 CG2         1.5300   -9.9120  -11.4640 ca        1 BDU     -0.127000
     36 C2Z         2.6240  -10.5430  -10.8710 ca        1 BDU     -0.093000
     37 HO21        0.7850   -3.6310   -1.2180 h1        1 BDU      0.046367
     38 HO22        2.3620   -3.1390   -0.4320 h1        1 BDU      0.046367
     39 HO23        1.1230   -4.1090    0.5350 h1        1 BDU      0.046367
     40 HX31        1.5670    0.4460    0.6730 hc        1 BDU      0.097700
     41 HX32       -0.1080   -0.0510    1.2120 hc        1 BDU      0.097700
     42 HX4         0.7420    1.7650   -1.1600 h1        1 BDU      0.112700
     43 HA         -0.5130    2.1670    1.2930 ho        1 BDU      0.437000
     44 HX5        -2.0950    0.5790   -0.4860 hx        1 BDU      0.123700
     45 HB         -1.6300    2.1620   -2.8950 hn        1 BDU      0.464800
     46 H111       -4.2110    0.5430   -2.9730 hc        1 BDU      0.114700
     47 H112       -5.2440    2.0460   -2.9480 hc        1 BDU      0.114700
     48 H113       -3.7380    1.9990   -3.9740 hc        1 BDU      0.114700
     49 HX6         0.0750    0.1690   -2.6770 h1        1 BDU      0.097700
     50 HX7        -2.1430    0.0540   -3.9440 h1        1 BDU      0.065700
     51 HC         -2.6960   -1.9190   -1.9890 ho        1 BDU      0.446000
     52 HX8        -0.3640   -2.4090   -3.2280 h1        1 BDU      0.136700
     53 HD          0.8500   -1.0300   -4.3480 ho        1 BDU      0.489000
     54 HX91       -2.5100   -3.2570   -4.3070 hx        1 BDU      0.114200
     55 HX92       -2.3440   -2.0270   -5.6530 hx        1 BDU      0.114200
     56 HE         -0.1820   -3.0150   -6.1610 hn        1 BDU      0.469300
     57 HD1        -2.6360   -6.2740   -8.2870 ha        1 BDU      0.149500
     58 HE1        -1.4230   -8.0740   -9.5050 ha        1 BDU      0.167500
     59 HD2         1.1620   -4.8580   -6.6800 ha        1 BDU      0.149500
     60 HE2         2.3340   -6.6310   -7.8940 ha        1 BDU      0.167500
     61 HY1         2.6790   -8.8790   -7.8920 ha        1 BDU      0.136500
     62 HY2        -0.0140   -8.4130  -11.2590 ha        1 BDU      0.136500
     63 HG1         3.8940  -10.6670   -9.1190 ha        1 BDU      0.148000
     64 HG2         1.2080  -10.2040  -12.4760 ha        1 BDU      0.148000
     65 H2Z         3.1640  -11.3350  -11.4120 ha        1 BDU      0.149000
     66 HX52       -1.5600    2.9960   -1.4420 hn        1 BDU      0.464800
     67 HX62       -0.4070   -4.2120   -5.0300 hn        1 BDU      0.469300
@<TRIPOS>BOND
     1    1    2 1   
     2    1    3 1   
     3    1    4 1   
     4    4    5 1   
     5    4    7 1   
     6    4   16 1   
     7    5    6 1   
     8    6   37 1   
     9    6   38 1   
    10    6   39 1   
    11    7    8 1   
    12    7   40 1   
    13    7   41 1   
    14    8    9 1   
    15    8   10 1   
    16    8   42 1   
    17    9   43 1   
    18   10   11 1   
    19   10   15 1   
    20   10   44 1   
    21   11   12 1   
    22   11   45 1   
    23   11   66 1   
    24   12   13 2   
    25   12   14 1   
    26   14   46 1   
    27   14   47 1   
    28   14   48 1   
    29   15   16 1   
    30   15   17 1   
    31   15   49 1   
    32   17   18 1   
    33   17   19 1   
    34   17   50 1   
    35   18   51 1   
    36   19   20 1   
    37   19   21 1   
    38   19   52 1   
    39   20   53 1   
    40   21   22 1   
    41   21   54 1   
    42   21   55 1   
    43   22   23 1   
    44   22   56 1   
    45   22   67 1   
    46   23   24 2   
    47   23   25 1   
    48   25   26 ar  
    49   25   28 ar  
    50   26   27 ar  
    51   26   57 1   
    52   27   30 ar  
    53   27   58 1   
    54   28   29 ar  
    55   28   59 1   
    56   29   30 ar  
    57   29   60 1   
    58   30   31 1   
    59   31   32 ar  
    60   31   33 ar  
    61   32   34 ar  
    62   32   61 1   
    63   33   35 ar  
    64   33   62 1   
    65   34   36 ar  
    66   34   63 1   
    67   35   36 ar  
    68   35   64 1   
    69   36   65 1   
@<TRIPOS>SUBSTRUCTURE
     1 BDU         1 TEMP              0 ****  ****    0 ROOT
