@<TRIPOS>MOLECULE
BDU
   65    67     1     0     0
SMALL
bcc


@<TRIPOS>ATOM
      1 CX1         1.6660    0.1760    0.0630 c         1 BDU      0.895600
      2 O1A         2.7240   -0.4960    0.2370 o         1 BDU     -0.817300
      3 O1B         0.6250   -0.2570   -0.4890 o         1 BDU     -0.817300
      4 CX2         1.6510    1.6530    0.5790 c3        1 BDU      0.212600
      5 OX2         1.7390    2.6150   -0.4610 os        1 BDU     -0.410600
      6 CO2         2.6350    2.2470   -1.5000 c3        1 BDU      0.124700
      7 CX3         0.4000    1.9930    1.3900 c3        1 BDU     -0.112400
      8 CX4         0.4580    1.3490    2.7690 c3        1 BDU      0.122100
      9 OX4        -0.6670    1.7170    3.5480 oh        1 BDU     -0.611800
     10 CX5         1.7880    1.7340    3.4780 c3        1 BDU      0.037700
     11 NX5         1.9060    1.1780    4.8050 n         1 BDU     -0.541900
     12 C10         1.3150    1.7740    5.8990 c         1 BDU      0.665100
     13 O10         0.7520    2.8870    5.8270 o         1 BDU     -0.631100
     14 C11         1.4170    1.0420    7.2180 c3        1 BDU     -0.175100
     15 CX6         2.9420    1.2830    2.5490 c3        1 BDU      0.144100
     16 OX6         2.8420    1.9840    1.3180 os        1 BDU     -0.439600
     17 CX7         4.3410    1.5680    3.1190 c3        1 BDU      0.126100
     18 OX7         4.3440    2.8370    3.7490 oh        1 BDU     -0.590800
     19 CX8         5.3890    1.5430    1.9870 c3        1 BDU      0.101100
     20 OX8         5.3820    0.2990    1.3150 oh        1 BDU     -0.649800
     21 CX9         6.8180    1.7580    2.5260 c3        1 BDU      0.065000
     22 NX6         7.3430    0.6810    3.3270 n         1 BDU     -0.519900
     23 C12         7.1570    0.6550    4.6980 c         1 BDU      0.652700
     24 O12         6.8270    1.6780    5.3390 o         1 BDU     -0.625100
     25 C1G         7.4670   -0.6230    5.4050 ca        1 BDU     -0.132600
     26 CD1         8.1970   -0.5710    6.5970 ca        1 BDU     -0.093000
     27 CE1         8.4920   -1.7430    7.2880 ca        1 BDU     -0.130000
     28 CD2         7.0190   -1.8540    4.9170 ca        1 BDU     -0.093000
     29 CE2         7.3110   -3.0260    5.6110 ca        1 BDU     -0.130000
     30 C1Z         8.0530   -2.9830    6.8000 cp        1 BDU     -0.028000
     31 C2G         8.3630   -4.2150    7.5230 cp        1 BDU     -0.035000
     32 CY1         8.7230   -5.3770    6.8250 ca        1 BDU     -0.117000
     33 CY2         8.3040   -4.2500    8.9240 ca        1 BDU     -0.117000
     34 CG1         9.0190   -6.5500    7.5170 ca        1 BDU     -0.132500
     35 CG2         8.5990   -5.4260    9.6110 ca        1 BDU     -0.132500
     36 C2Z         8.9570   -6.5770    8.9100 ca        1 BDU     -0.131000
     37 HO21        2.6640    3.1420   -2.1690 h1        1 BDU      0.031700
     38 HO22        2.2440    1.3520   -2.0460 h1        1 BDU      0.031700
     39 HO23        3.6480    2.0260   -1.0840 h1        1 BDU      0.031700
     40 HX31       -0.4900    1.6020    0.8330 hc        1 BDU      0.068200
     41 HX32        0.3040    3.1040    1.4890 hc        1 BDU      0.068200
     42 HX4         0.3740    0.2290    2.6660 h1        1 BDU      0.083700
     43 HA         -0.5280    2.6250    3.8470 ho        1 BDU      0.411000
     44 HX5         1.8320    2.8610    3.5740 h1        1 BDU      0.103700
     45 HB          2.1760    0.2260    4.8690 hn        1 BDU      0.299500
     46 H111        2.4870    0.8760    7.4920 hc        1 BDU      0.057700
     47 H112        0.9310    1.6610    8.0100 hc        1 BDU      0.057700
     48 H113        0.8970    0.0560    7.1570 hc        1 BDU      0.057700
     49 HX6         2.8670    0.1710    2.3540 h1        1 BDU      0.084700
     50 HX7         4.5770    0.7620    3.8700 h1        1 BDU      0.024700
     51 HC          5.0620    2.8180    4.3980 ho        1 BDU      0.410000
     52 HX8         5.1550    2.3800    1.2700 h1        1 BDU      0.076700
     53 HD          4.5210    0.2160    0.8580 ho        1 BDU      0.480000
     54 HX91        7.5080    1.8700    1.6410 h1        1 BDU      0.066700
     55 HX92        6.8310    2.7110    3.1250 h1        1 BDU      0.066700
     56 HE          7.3620   -0.2010    2.8580 hn        1 BDU      0.313500
     57 HD1         8.5260    0.4060    6.9850 ha        1 BDU      0.153000
     58 HE1         9.0740   -1.6980    8.2200 ha        1 BDU      0.137000
     59 HD2         6.4190   -1.9070    3.9930 ha        1 BDU      0.153000
     60 HE2         6.9470   -3.9910    5.2280 ha        1 BDU      0.137000
     61 HY1         8.7750   -5.3580    5.7260 ha        1 BDU      0.137000
     62 HY2         8.0150   -3.3460    9.4800 ha        1 BDU      0.137000
     63 HG1         9.3010   -7.4560    6.9610 ha        1 BDU      0.129500
     64 HG2         8.5450   -5.4450   10.7090 ha        1 BDU      0.129500
     65 H2Z         9.1890   -7.5040    9.4540 ha        1 BDU      0.127000
@<TRIPOS>BOND
     1    1    2 1   
     2    1    3 1   
     3    1    4 1   
     4    4    5 1   
     5    4    7 1   
     6    4   16 1   
     7    5    6 1   
     8    6   37 1   
     9    6   38 1   
    10    6   39 1   
    11    7    8 1   
    12    7   40 1   
    13    7   41 1   
    14    8    9 1   
    15    8   10 1   
    16    8   42 1   
    17    9   43 1   
    18   10   11 1   
    19   10   15 1   
    20   10   44 1   
    21   11   12 1   
    22   11   45 1   
    23   12   13 2   
    24   12   14 1   
    25   14   46 1   
    26   14   47 1   
    27   14   48 1   
    28   15   16 1   
    29   15   17 1   
    30   15   49 1   
    31   17   18 1   
    32   17   19 1   
    33   17   50 1   
    34   18   51 1   
    35   19   20 1   
    36   19   21 1   
    37   19   52 1   
    38   20   53 1   
    39   21   22 1   
    40   21   54 1   
    41   21   55 1   
    42   22   23 1   
    43   22   56 1   
    44   23   24 2   
    45   23   25 1   
    46   25   26 ar  
    47   25   28 ar  
    48   26   27 ar  
    49   26   57 1   
    50   27   30 ar  
    51   27   58 1   
    52   28   29 ar  
    53   28   59 1   
    54   29   30 ar  
    55   29   60 1   
    56   30   31 1   
    57   31   32 ar  
    58   31   33 ar  
    59   32   34 ar  
    60   32   61 1   
    61   33   35 ar  
    62   33   62 1   
    63   34   36 ar  
    64   34   63 1   
    65   35   36 ar  
    66   35   64 1   
    67   36   65 1   
@<TRIPOS>SUBSTRUCTURE
     1 BDU         1 TEMP              0 ****  ****    0 ROOT
