@<TRIPOS>MOLECULE
BDU
   67    69     1     0     0
SMALL
bcc


@<TRIPOS>ATOM
      1 CX1         1.5930   -1.5080   -0.9750 c         1 BDU      0.901600
      2 O1A         1.3690   -2.6590   -1.4620 o         1 BDU     -0.802800
      3 O1B         2.6550   -0.8610   -1.0750 o         1 BDU     -0.802800
      4 CX2         0.3580   -0.7990   -0.3150 c3        1 BDU      0.212600
      5 OX2        -0.0620   -1.2740    0.9340 os        1 BDU     -0.394600
      6 CO2         0.2870   -2.6300    1.2100 c3        1 BDU      0.125700
      7 CX3         0.4710    0.7270   -0.2090 c3        1 BDU     -0.122400
      8 CX4         0.3690    1.4040   -1.5680 c3        1 BDU      0.137100
      9 OX4         0.2670    2.8080   -1.5040 oh        1 BDU     -0.613800
     10 CX5        -0.8770    0.8580   -2.3570 c3        1 BDU      0.052500
     11 NX5        -1.0220    1.5660   -3.6700 ny        1 BDU     -0.671800
     12 C10        -2.4640    1.8970   -3.9920 c         1 BDU      0.554100
     13 O10        -2.9100    2.8970   -3.4510 o         1 BDU     -0.405100
     14 C11        -3.1710    0.9720   -4.9200 c3        1 BDU     -0.195100
     15 CX6        -0.6370   -0.6640   -2.4540 c3        1 BDU      0.094100
     16 OX6        -0.8100   -1.1270   -1.1250 os        1 BDU     -0.447600
     17 CX7        -1.5300   -1.5670   -3.3180 c3        1 BDU      0.131100
     18 OX7        -2.8770   -1.5580   -2.9040 oh        1 BDU     -0.616800
     19 CX8        -0.9020   -2.9790   -3.2020 c3        1 BDU      0.086100
     20 OX8         0.2740   -3.0390   -3.9880 oh        1 BDU     -0.656800
     21 CX9        -1.8450   -4.0530   -3.7670 c3        1 BDU      0.105800
     22 NX6        -1.2460   -5.4100   -3.5850 ny        1 BDU     -0.672800
     23 C12        -1.7710   -6.3970   -4.6090 c         1 BDU      0.578700
     24 O12        -2.7570   -7.0260   -4.2390 o         1 BDU     -0.446100
     25 C1G        -1.0410   -6.5060   -5.8640 ca        1 BDU     -0.222600
     26 CD1        -1.3530   -7.6120   -6.6800 ca        1 BDU     -0.059000
     27 CE1        -0.6910   -7.8000   -7.8860 ca        1 BDU     -0.137500
     28 CD2        -0.0660   -5.5870   -6.2880 ca        1 BDU     -0.059000
     29 CE2         0.5920   -5.7830   -7.4950 ca        1 BDU     -0.137500
     30 C1Z         0.2940   -6.8920   -8.3100 cp        1 BDU      0.073000
     31 C2G         0.9970   -7.0930   -9.5710 cp        1 BDU     -0.095000
     32 CY1         2.3630   -6.7890   -9.6780 ca        1 BDU     -0.100000
     33 CY2         0.3160   -7.5970  -10.6900 ca        1 BDU     -0.100000
     34 CG1         3.0340   -6.9900  -10.8820 ca        1 BDU     -0.127000
     35 CG2         0.9910   -7.7880  -11.8940 ca        1 BDU     -0.127000
     36 C2Z         2.3500   -7.4870  -11.9920 ca        1 BDU     -0.095000
     37 HO21        1.3980   -2.7460    1.2350 h1        1 BDU      0.047033
     38 HO22       -0.1480   -3.3040    0.4330 h1        1 BDU      0.047033
     39 HO23       -0.1660   -2.8170    2.2150 h1        1 BDU      0.047033
     40 HX31        1.4820    0.9570    0.2270 hc        1 BDU      0.098200
     41 HX32       -0.3210    1.1130    0.4820 hc        1 BDU      0.098200
     42 HX4         1.3110    1.1940   -2.1600 h1        1 BDU      0.114700
     43 HA         -0.0850    3.0620   -0.6390 ho        1 BDU      0.438000
     44 HX5        -1.8090    1.0620   -1.7520 hx        1 BDU      0.123700
     45 HB         -0.6110    1.0000   -4.4140 hn        1 BDU      0.464300
     46 H111       -2.5280    0.6540   -5.7770 hc        1 BDU      0.114033
     47 H112       -4.0790    1.4960   -5.3210 hc        1 BDU      0.114033
     48 H113       -3.5060    0.0620   -4.3480 hc        1 BDU      0.114033
     49 HX6         0.4240   -0.8230   -2.8230 h1        1 BDU      0.097700
     50 HX7        -1.5430   -1.2330   -4.3910 h1        1 BDU      0.063700
     51 HC         -2.8920   -1.6830   -1.9420 ho        1 BDU      0.447000
     52 HX8        -0.6610   -3.1730   -2.1090 h1        1 BDU      0.140700
     53 HD          1.0380   -2.8690   -3.3980 ho        1 BDU      0.492000
     54 HX91       -2.8400   -4.0100   -3.2440 hx        1 BDU      0.111700
     55 HX92       -1.9930   -3.8810   -4.8710 hx        1 BDU      0.111700
     56 HE         -0.2210   -5.3270   -3.6780 hn        1 BDU      0.469300
     57 HD1        -2.1230   -8.3320   -6.3520 ha        1 BDU      0.161000
     58 HE1        -0.9320   -8.6760   -8.5100 ha        1 BDU      0.165500
     59 HD2         0.1900   -4.6910   -5.6950 ha        1 BDU      0.161000
     60 HE2         1.3540   -5.0580   -7.8240 ha        1 BDU      0.165500
     61 HY1         2.9120   -6.4060   -8.8040 ha        1 BDU      0.137000
     62 HY2        -0.7570   -7.8320  -10.6220 ha        1 BDU      0.137000
     63 HG1         4.1080   -6.7580  -10.9560 ha        1 BDU      0.148000
     64 HG2         0.4490   -8.1790  -12.7690 ha        1 BDU      0.148000
     65 H2Z         2.8820   -7.6440  -12.9430 ha        1 BDU      0.149000
     66 HX52       -0.4960    2.4560   -3.5900 hn        1 BDU      0.464300
     67 HX62       -1.4610   -5.7500   -2.6400 hn        1 BDU      0.469300
@<TRIPOS>BOND
     1    1    2 1   
     2    1    3 1   
     3    1    4 1   
     4    4    5 1   
     5    4    7 1   
     6    4   16 1   
     7    5    6 1   
     8    6   37 1   
     9    6   38 1   
    10    6   39 1   
    11    7    8 1   
    12    7   40 1   
    13    7   41 1   
    14    8    9 1   
    15    8   10 1   
    16    8   42 1   
    17    9   43 1   
    18   10   11 1   
    19   10   15 1   
    20   10   44 1   
    21   11   12 1   
    22   11   45 1   
    23   11   66 1   
    24   12   13 2   
    25   12   14 1   
    26   14   46 1   
    27   14   47 1   
    28   14   48 1   
    29   15   16 1   
    30   15   17 1   
    31   15   49 1   
    32   17   18 1   
    33   17   19 1   
    34   17   50 1   
    35   18   51 1   
    36   19   20 1   
    37   19   21 1   
    38   19   52 1   
    39   20   53 1   
    40   21   22 1   
    41   21   54 1   
    42   21   55 1   
    43   22   23 1   
    44   22   56 1   
    45   22   67 1   
    46   23   24 2   
    47   23   25 1   
    48   25   26 ar  
    49   25   28 ar  
    50   26   27 ar  
    51   26   57 1   
    52   27   30 ar  
    53   27   58 1   
    54   28   29 ar  
    55   28   59 1   
    56   29   30 ar  
    57   29   60 1   
    58   30   31 1   
    59   31   32 ar  
    60   31   33 ar  
    61   32   34 ar  
    62   32   61 1   
    63   33   35 ar  
    64   33   62 1   
    65   34   36 ar  
    66   34   63 1   
    67   35   36 ar  
    68   35   64 1   
    69   36   65 1   
@<TRIPOS>SUBSTRUCTURE
     1 BDU         1 TEMP              0 ****  ****    0 ROOT
