@<TRIPOS>MOLECULE
BDU
   67    69     1     0     0
SMALL
bcc


@<TRIPOS>ATOM
      1 CX1         1.6210   -1.5670   -0.9700 c         1 BDU      0.901600
      2 O1A         1.3930   -2.7100   -1.4770 o         1 BDU     -0.802800
      3 O1B         2.6790   -0.9160   -1.0700 o         1 BDU     -0.802800
      4 CX2         0.3910   -0.8760   -0.2810 c3        1 BDU      0.212600
      5 OX2        -0.0130   -1.3780    0.9620 os        1 BDU     -0.394600
      6 CO2         0.3400   -2.7380    1.2060 c3        1 BDU      0.125700
      7 CX3         0.5030    0.6480   -0.1450 c3        1 BDU     -0.122400
      8 CX4         0.3840    1.3530   -1.4890 c3        1 BDU      0.137100
      9 OX4         0.2790    2.7550   -1.3940 oh        1 BDU     -0.613800
     10 CX5        -0.8700    0.8200   -2.2740 c3        1 BDU      0.052500
     11 NX5        -1.0310    1.5550   -3.5710 n4        1 BDU     -0.671800
     12 C10        -2.4770    1.8890   -3.8710 c         1 BDU      0.554100
     13 O10        -2.9200    2.8750   -3.3030 o         1 BDU     -0.405100
     14 C11        -3.1920    0.9820   -4.8110 c3        1 BDU     -0.195100
     15 CX6        -0.6270   -0.6990   -2.4060 c3        1 BDU      0.094100
     16 OX6        -0.7850   -1.1890   -1.0850 os        1 BDU     -0.447600
     17 CX7        -1.5280   -1.5850   -3.2790 c3        1 BDU      0.131100
     18 OX7        -2.8710   -1.5880   -2.8510 oh        1 BDU     -0.616800
     19 CX8        -0.8960   -2.9980   -3.1990 c3        1 BDU      0.086100
     20 OX8         0.2720   -3.0390   -3.9980 oh        1 BDU     -0.656800
     21 CX9        -1.8410   -4.0630   -3.7760 c3        1 BDU      0.105800
     22 NX6        -1.2380   -5.4220   -3.6270 n4        1 BDU     -0.672800
     23 C12        -1.7700   -6.3890   -4.6660 c         1 BDU      0.578700
     24 O12        -2.7530   -7.0250   -4.3020 o         1 BDU     -0.446100
     25 C1G        -1.0490   -6.4740   -5.9280 ca        1 BDU     -0.222600
     26 CD1        -1.3630   -7.5670   -6.7610 ca        1 BDU     -0.059000
     27 CE1        -0.7080   -7.7310   -7.9740 ca        1 BDU     -0.137500
     28 CD2        -0.0790   -5.5450   -6.3420 ca        1 BDU     -0.059000
     29 CE2         0.5710   -5.7180   -7.5560 ca        1 BDU     -0.137500
     30 C1Z         0.2720   -6.8130   -8.3880 cp        1 BDU      0.073000
     31 C2G         0.9670   -6.9900   -9.6580 cp        1 BDU     -0.095000
     32 CY1         2.3320   -6.6790   -9.7680 ca        1 BDU     -0.100000
     33 CY2         0.2800   -7.4760  -10.7810 ca        1 BDU     -0.100000
     34 CG1         2.9950   -6.8570  -10.9790 ca        1 BDU     -0.127000
     35 CG2         0.9480   -7.6440  -11.9920 ca        1 BDU     -0.127000
     36 C2Z         2.3050   -7.3380  -12.0930 ca        1 BDU     -0.095000
     37 HO21       -0.1020   -3.3970    0.4200 h1        1 BDU      0.047033
     38 HO22        1.4520   -2.8530    1.2150 h1        1 BDU      0.047033
     39 HO23       -0.1000   -2.9470    2.2120 h1        1 BDU      0.047033
     40 HX31       -0.2830    1.0170    0.5630 hc        1 BDU      0.098200
     41 HX32        1.5180    0.8710    0.2850 hc        1 BDU      0.098200
     42 HX4         1.3190    1.1570   -2.0950 h1        1 BDU      0.114700
     43 HA         -0.0640    2.9900   -0.5200 ho        1 BDU      0.438000
     44 HX5        -1.7950    1.0090   -1.6560 hx        1 BDU      0.123700
     45 HB         -0.6270    1.0060   -4.3320 hn        1 BDU      0.464300
     46 H111       -2.5570    0.6840   -5.6810 hc        1 BDU      0.114033
     47 H112       -4.1050    1.5120   -5.1910 hc        1 BDU      0.114033
     48 H113       -3.5180    0.0600   -4.2550 hc        1 BDU      0.114033
     49 HX6         0.4300   -0.8470   -2.7900 h1        1 BDU      0.097700
     50 HX7        -1.5530   -1.2290   -4.3450 h1        1 BDU      0.063700
     51 HC         -2.8750   -1.7330   -1.8910 ho        1 BDU      0.447000
     52 HX8        -0.6420   -3.2140   -2.1130 h1        1 BDU      0.140700
     53 HD          1.0430   -2.8790   -3.4130 ho        1 BDU      0.492000
     54 HX91       -2.8320   -4.0320   -3.2430 hx        1 BDU      0.111700
     55 HX92       -2.0010   -3.8690   -4.8750 hx        1 BDU      0.111700
     56 HE         -1.4450   -5.7820   -2.6880 hn        1 BDU      0.469300
     57 HD1        -2.1290   -8.2940   -6.4400 ha        1 BDU      0.161000
     58 HE1        -0.9510   -8.5970   -8.6120 ha        1 BDU      0.165500
     59 HD2         0.1780   -4.6580   -5.7350 ha        1 BDU      0.161000
     60 HE2         1.3290   -4.9840   -7.8780 ha        1 BDU      0.165500
     61 HY1         2.8850   -6.3100   -8.8910 ha        1 BDU      0.137000
     62 HY2        -0.7920   -7.7160  -10.7100 ha        1 BDU      0.137000
     63 HG1         4.0670   -6.6200  -11.0560 ha        1 BDU      0.148000
     64 HG2         0.4020   -8.0220  -12.8700 ha        1 BDU      0.148000
     65 H2Z         2.8320   -7.4760  -13.0500 ha        1 BDU      0.149000
     66 HX52       -0.5060    2.4450   -3.4790 hn        1 BDU      0.464300
     67 HX62       -0.2140   -5.3350   -3.7270 hn        1 BDU      0.469300
@<TRIPOS>BOND
     1    1    2 1   
     2    1    3 1   
     3    1    4 1   
     4    4    5 1   
     5    4    7 1   
     6    4   16 1   
     7    5    6 1   
     8    6   37 1   
     9    6   38 1   
    10    6   39 1   
    11    7    8 1   
    12    7   40 1   
    13    7   41 1   
    14    8    9 1   
    15    8   10 1   
    16    8   42 1   
    17    9   43 1   
    18   10   11 1   
    19   10   15 1   
    20   10   44 1   
    21   11   12 1   
    22   11   45 1   
    23   11   66 1   
    24   12   13 2   
    25   12   14 1   
    26   14   46 1   
    27   14   47 1   
    28   14   48 1   
    29   15   16 1   
    30   15   17 1   
    31   15   49 1   
    32   17   18 1   
    33   17   19 1   
    34   17   50 1   
    35   18   51 1   
    36   19   20 1   
    37   19   21 1   
    38   19   52 1   
    39   20   53 1   
    40   21   22 1   
    41   21   54 1   
    42   21   55 1   
    43   22   23 1   
    44   22   56 1   
    45   22   67 1   
    46   23   24 2   
    47   23   25 1   
    48   25   26 ar  
    49   25   28 ar  
    50   26   27 ar  
    51   26   57 1   
    52   27   30 ar  
    53   27   58 1   
    54   28   29 ar  
    55   28   59 1   
    56   29   30 ar  
    57   29   60 1   
    58   30   31 1   
    59   31   32 ar  
    60   31   33 ar  
    61   32   34 ar  
    62   32   61 1   
    63   33   35 ar  
    64   33   62 1   
    65   34   36 ar  
    66   34   63 1   
    67   35   36 ar  
    68   35   64 1   
    69   36   65 1   
@<TRIPOS>SUBSTRUCTURE
     1 BDU         1 TEMP              0 ****  ****    0 ROOT
