@<TRIPOS>MOLECULE
BDV
   63    64     1     0     0
SMALL
bcc


@<TRIPOS>ATOM
      1 C1          0.3400    0.2720   -0.2980 c3        1 BDV      0.143200
      2 N1          1.7960    0.2820   -0.0150 nu        1 BDV     -0.803200
      3 O1         -1.4990    0.3040    1.4310 o         1 BDV     -0.589500
      4 C2          2.0060    0.0350    1.3970 c2        1 BDV      0.631800
      5 N2          0.7200   -0.0450    2.0480 n         1 BDV     -0.432300
      6 O2         -1.2550    6.0860    8.8800 o         1 BDV     -0.297100
      7 C3         -0.3120    0.1870    1.1180 c         1 BDV      0.694500
      8 N3          3.1150   -0.0110    2.0720 n2        1 BDV     -0.859100
      9 C4         -0.1310   -0.9480   -1.0880 c3        1 BDV     -0.119100
     10 N4          0.0340    4.3370    7.9680 ny        1 BDV     -0.681800
     11 C5         -0.1350    1.5790   -0.9530 c3        1 BDV     -0.063400
     12 N5          1.0390    6.1810    9.4320 ny        1 BDV     -0.654800
     13 C6          0.1150    1.6880   -2.4490 c3        1 BDV     -0.065700
     14 C7         -0.5240    2.9680   -2.9580 c3        1 BDV     -0.091600
     15 C8          1.5860    1.6660   -2.8020 c3        1 BDV     -0.091600
     16 C9          0.5410   -0.2540    3.4470 c3        1 BDV      0.145300
     17 C10         0.5620    1.0170    4.2630 ca        1 BDV      0.006700
     18 C11        -0.5640    1.8560    4.2700 ca        1 BDV     -0.107000
     19 C12        -0.5660    3.0150    5.0340 ca        1 BDV     -0.078500
     20 C13         0.5690    3.3570    5.7960 ca        1 BDV     -0.246300
     21 C14         1.7000    2.5170    5.7800 ca        1 BDV     -0.078500
     22 C15         1.6970    1.3600    5.0140 ca        1 BDV     -0.107000
     23 C16         0.5930    4.6160    6.5450 c3        1 BDV      0.219100
     24 C17         0.6960    7.5020   10.1050 c3        1 BDV      0.117800
     25 C18         1.9200    8.1060   10.7770 c3        1 BDV     -0.118400
     26 C19         1.5080    9.4200   11.4300 c3        1 BDV     -0.073400
     27 C20        -0.1550    5.5660    8.7750 c         1 BDV      0.476100
     28 C21         2.6930   10.0570   12.1110 c3        1 BDV     -0.105100
     29 HN1         2.3240   -0.3180   -0.6160 hn        1 BDV      0.419800
     30 HN3         3.9510    0.0430    1.5310 hn        1 BDV      0.426400
     31 H4          0.0600   -1.8920   -0.5210 hc        1 BDV      0.067033
     32 H4A         0.4020   -1.0070   -2.0690 hc        1 BDV      0.067033
     33 H4B        -1.2280   -0.8600   -1.2800 hc        1 BDV      0.067033
     34 HN4        -0.9000    3.8940    7.8450 hn        1 BDV      0.490800
     35 H5          0.3460    2.4520   -0.4390 hc        1 BDV      0.060200
     36 H5A        -1.2440    1.6430   -0.7720 hc        1 BDV      0.060200
     37 HN5         1.7800    6.3540    8.7350 hn        1 BDV      0.484300
     38 H6         -0.3920    0.8220   -2.9640 hc        1 BDV      0.054700
     39 H7         -0.0320    3.8600   -2.5010 hc        1 BDV      0.039533
     40 H7A        -1.6110    2.9920   -2.7070 hc        1 BDV      0.039533
     41 H7B        -0.4150    3.0340   -4.0670 hc        1 BDV      0.039533
     42 H8          2.1670    2.3400   -2.1280 hc        1 BDV      0.039533
     43 H8A         1.7330    2.0070   -3.8570 hc        1 BDV      0.039533
     44 H8B         1.9990    0.6320   -2.7170 hc        1 BDV      0.039533
     45 H9         -0.4690   -0.7460    3.5940 h1        1 BDV      0.097200
     46 H9A         1.3430   -0.9530    3.8280 h1        1 BDV      0.097200
     47 H11        -1.4400    1.5890    3.6450 ha        1 BDV      0.196500
     48 H12        -1.4460    3.6780    5.0170 ha        1 BDV      0.141500
     49 H14         2.6040    2.7920    6.3460 ha        1 BDV      0.141500
     50 H15         2.5950    0.7160    4.9670 ha        1 BDV      0.196500
     51 H16         1.6350    5.0150    6.6870 hx        1 BDV      0.107700
     52 H16A       -0.0800    5.4000    6.0920 hx        1 BDV      0.107700
     53 H17         0.2920    8.1930    9.3090 hx        1 BDV      0.130200
     54 H17A       -0.1170    7.2970   10.8610 hx        1 BDV      0.130200
     55 H18         2.3280    7.4180   11.5650 hc        1 BDV      0.078200
     56 H18A        2.7330    8.3070   10.0300 hc        1 BDV      0.078200
     57 H19         1.0990   10.1170   10.6520 hc        1 BDV      0.064700
     58 H19A        0.6970    9.2310   12.1810 hc        1 BDV      0.064700
     59 H21         2.3770   11.0190   12.5860 hc        1 BDV      0.062700
     60 H21A        3.1030    9.3910   12.9090 hc        1 BDV      0.062700
     61 H21B        3.5060   10.2780   11.3780 hc        1 BDV      0.062700
     62 H42         0.6390    3.6490    8.4370 hn        1 BDV      0.490800
     63 H52         1.4110    5.5420   10.1520 hn        1 BDV      0.484300
@<TRIPOS>BOND
     1    1    2 1   
     2    1    7 1   
     3    1    9 1   
     4    1   11 1   
     5    2    4 1   
     6    2   29 1   
     7    3    7 2   
     8    4    5 1   
     9    4    8 2   
    10    5    7 1   
    11    5   16 1   
    12    6   27 2   
    13    8   30 1   
    14    9   31 1   
    15    9   32 1   
    16    9   33 1   
    17   10   23 1   
    18   10   27 1   
    19   10   34 1   
    20   10   62 1   
    21   11   13 1   
    22   11   35 1   
    23   11   36 1   
    24   12   24 1   
    25   12   27 1   
    26   12   37 1   
    27   12   63 1   
    28   13   14 1   
    29   13   15 1   
    30   13   38 1   
    31   14   39 1   
    32   14   40 1   
    33   14   41 1   
    34   15   42 1   
    35   15   43 1   
    36   15   44 1   
    37   16   17 1   
    38   16   45 1   
    39   16   46 1   
    40   17   18 ar  
    41   17   22 ar  
    42   18   19 ar  
    43   18   47 1   
    44   19   20 ar  
    45   19   48 1   
    46   20   21 ar  
    47   20   23 1   
    48   21   22 ar  
    49   21   49 1   
    50   22   50 1   
    51   23   51 1   
    52   23   52 1   
    53   24   25 1   
    54   24   53 1   
    55   24   54 1   
    56   25   26 1   
    57   25   55 1   
    58   25   56 1   
    59   26   28 1   
    60   26   57 1   
    61   26   58 1   
    62   28   59 1   
    63   28   60 1   
    64   28   61 1   
@<TRIPOS>SUBSTRUCTURE
     1 BDV         1 TEMP              0 ****  ****    0 ROOT
