@<TRIPOS>MOLECULE
BDV
   63    64     1     0     0
SMALL
bcc


@<TRIPOS>ATOM
      1 C1          0.3410    0.2700   -0.2980 c3        1 BDV      0.143200
      2 N1          1.7990    0.2870   -0.0220 nh        1 BDV     -0.803200
      3 O1         -1.4900    0.2950    1.4390 o         1 BDV     -0.589500
      4 C2          2.0160    0.0420    1.3900 c2        1 BDV      0.631800
      5 N2          0.7330   -0.0440    2.0460 n         1 BDV     -0.432300
      6 O2         -1.2530    6.0820    8.8800 o         1 BDV     -0.297100
      7 C3         -0.3040    0.1830    1.1210 c         1 BDV      0.694500
      8 N3          3.1280    0.0010    2.0600 n2        1 BDV     -0.858100
      9 C4         -0.1280   -0.9530   -1.0850 c3        1 BDV     -0.119100
     10 N4          0.0410    4.3370    7.9660 n4        1 BDV     -0.681800
     11 C5         -0.1430    1.5750   -0.9510 c3        1 BDV     -0.063400
     12 N5          1.0410    6.1840    9.4300 n4        1 BDV     -0.654800
     13 C6          0.0990    1.6830   -2.4490 c3        1 BDV     -0.065700
     14 C7         -0.5460    2.9600   -2.9550 c3        1 BDV     -0.091600
     15 C8          1.5690    1.6670   -2.8090 c3        1 BDV     -0.091600
     16 C9          0.5610   -0.2530    3.4470 c3        1 BDV      0.145300
     17 C10         0.5780    1.0190    4.2620 ca        1 BDV      0.006700
     18 C11        -0.5520    1.8520    4.2710 ca        1 BDV     -0.107000
     19 C12        -0.5580    3.0110    5.0340 ca        1 BDV     -0.078500
     20 C13         0.5770    3.3590    5.7940 ca        1 BDV     -0.246300
     21 C14         1.7120    2.5250    5.7770 ca        1 BDV     -0.078500
     22 C15         1.7130    1.3670    5.0100 ca        1 BDV     -0.107000
     23 C16         0.5970    4.6180    6.5420 c3        1 BDV      0.219100
     24 C17         0.6930    7.5010   10.1080 c3        1 BDV      0.117800
     25 C18         1.9150    8.1090   10.7800 c3        1 BDV     -0.118400
     26 C19         1.4990    9.4180   11.4380 c3        1 BDV     -0.073400
     27 C20        -0.1520    5.5650    8.7740 c         1 BDV      0.476100
     28 C21         2.6830   10.0590   12.1180 c3        1 BDV     -0.105100
     29 HN1         2.3260   -0.3110   -0.6250 hn        1 BDV      0.419800
     30 HN3         3.9620    0.0580    1.5150 hn        1 BDV      0.426400
     31 H4         -1.2260   -0.8700   -1.2710 hc        1 BDV      0.067033
     32 H4A         0.0700   -1.8950   -0.5190 hc        1 BDV      0.067033
     33 H4B         0.4010   -1.0100   -2.0680 hc        1 BDV      0.067033
     34 HN4        -0.8920    3.8900    7.8450 hn        1 BDV      0.490800
     35 H5          0.3380    2.4500   -0.4400 hc        1 BDV      0.060200
     36 H5A        -1.2510    1.6330   -0.7650 hc        1 BDV      0.060200
     37 HN5         1.7790    6.3630    8.7320 hn        1 BDV      0.484300
     38 H6         -0.4060    0.8150   -2.9610 hc        1 BDV      0.054700
     39 H7         -0.4440    3.0270   -4.0660 hc        1 BDV      0.039533
     40 H7A        -1.6330    2.9800   -2.6990 hc        1 BDV      0.039533
     41 H7B        -0.0560    3.8550   -2.5020 hc        1 BDV      0.039533
     42 H8          1.7100    2.0080   -3.8640 hc        1 BDV      0.039533
     43 H8A         1.9870    0.6350   -2.7250 hc        1 BDV      0.039533
     44 H8B         2.1510    2.3450   -2.1390 hc        1 BDV      0.039533
     45 H9          1.3690   -0.9470    3.8250 h1        1 BDV      0.097200
     46 H9A        -0.4450   -0.7510    3.5980 h1        1 BDV      0.097200
     47 H11        -1.4270    1.5810    3.6480 ha        1 BDV      0.196500
     48 H12        -1.4410    3.6700    5.0180 ha        1 BDV      0.141500
     49 H14         2.6160    2.8030    6.3410 ha        1 BDV      0.141500
     50 H15         2.6140    0.7270    4.9620 ha        1 BDV      0.196500
     51 H16        -0.0810    5.3990    6.0910 hx        1 BDV      0.107700
     52 H16A        1.6370    5.0220    6.6830 hx        1 BDV      0.107700
     53 H17        -0.1170    7.2890   10.8660 hx        1 BDV      0.130200
     54 H17A        0.2830    8.1920    9.3160 hx        1 BDV      0.130200
     55 H18         2.3290    7.4200   11.5640 hc        1 BDV      0.078200
     56 H18A        2.7250    8.3160   10.0310 hc        1 BDV      0.078200
     57 H19         0.6900    9.2220   12.1910 hc        1 BDV      0.064700
     58 H19A        1.0840   10.1160   10.6630 hc        1 BDV      0.064700
     59 H21         2.3630   11.0180   12.5970 hc        1 BDV      0.062700
     60 H21A        3.0980    9.3930   12.9130 hc        1 BDV      0.062700
     61 H21B        3.4920   10.2870   11.3840 hc        1 BDV      0.062700
     62 H42         0.6490    3.6510    8.4340 hn        1 BDV      0.490800
     63 H52         1.4190    5.5440   10.1470 hn        1 BDV      0.484300
@<TRIPOS>BOND
     1    1    2 1   
     2    1    7 1   
     3    1    9 1   
     4    1   11 1   
     5    2    4 1   
     6    2   29 1   
     7    3    7 2   
     8    4    5 1   
     9    4    8 2   
    10    5    7 1   
    11    5   16 1   
    12    6   27 2   
    13    8   30 1   
    14    9   31 1   
    15    9   32 1   
    16    9   33 1   
    17   10   23 1   
    18   10   27 1   
    19   10   34 1   
    20   10   62 1   
    21   11   13 1   
    22   11   35 1   
    23   11   36 1   
    24   12   24 1   
    25   12   27 1   
    26   12   37 1   
    27   12   63 1   
    28   13   14 1   
    29   13   15 1   
    30   13   38 1   
    31   14   39 1   
    32   14   40 1   
    33   14   41 1   
    34   15   42 1   
    35   15   43 1   
    36   15   44 1   
    37   16   17 1   
    38   16   45 1   
    39   16   46 1   
    40   17   18 ar  
    41   17   22 ar  
    42   18   19 ar  
    43   18   47 1   
    44   19   20 ar  
    45   19   48 1   
    46   20   21 ar  
    47   20   23 1   
    48   21   22 ar  
    49   21   49 1   
    50   22   50 1   
    51   23   51 1   
    52   23   52 1   
    53   24   25 1   
    54   24   53 1   
    55   24   54 1   
    56   25   26 1   
    57   25   55 1   
    58   25   56 1   
    59   26   28 1   
    60   26   57 1   
    61   26   58 1   
    62   28   59 1   
    63   28   60 1   
    64   28   61 1   
@<TRIPOS>SUBSTRUCTURE
     1 BDV         1 TEMP              0 ****  ****    0 ROOT
