@<TRIPOS>MOLECULE
BDV
   61    59     1     0     0
SMALL
bcc


@<TRIPOS>ATOM
      1 C1         -3.7470   -0.0810   -4.2270 c3        1 BDV      0.008000
      2 N1         -2.4350   -0.3420   -4.7150 n3        1 BDV     -0.287000
      3 O1         -4.4560    0.0090   -1.9250 o         1 BDV     -0.316000
      4 C2         -1.7420   -1.1360   -3.7270 c2        1 BDV      0.173000
      5 N2         -2.5200   -1.1370   -2.5420 n         1 BDV     -0.293000
      6 O2          2.7160    1.3570    4.1500 o         1 BDV     -0.396000
      7 C3         -3.6420   -0.3250   -2.7630 c2        1 BDV      0.297000
      8 N3         -0.6090   -1.7410   -3.8950 n1        1 BDV     -0.301000
      9 C4         -4.8310   -0.9100   -4.9100 c3        1 BDV     -0.197000
     10 N4          2.3740   -0.6570    3.0770 n         1 BDV     -0.337000
     11 C5         -4.2030    1.3500   -4.5390 c3        1 BDV     -0.173000
     12 N5          3.5660   -0.4510    5.2380 n         1 BDV     -0.341000
     13 C6         -3.6060    1.8010   -5.8960 c3        1 BDV     -0.111000
     14 C7         -4.6600    2.5630   -6.6840 c3        1 BDV     -0.210000
     15 C8         -2.3860    2.7180   -5.6430 c3        1 BDV     -0.210000
     16 C9         -2.2970   -1.9720   -1.3880 c3        1 BDV      0.036000
     17 C10        -1.0530   -1.4750   -0.6250 c2        1 BDV     -0.112000
     18 C11        -1.0790   -0.2350    0.0190 c2        1 BDV     -0.117000
     19 C12         0.0050    0.1670    0.8080 c1        1 BDV     -0.119000
     20 C13         1.1140   -0.6720    0.9530 c1        1 BDV     -0.118000
     21 C14         1.1400   -1.9130    0.3090 c1        1 BDV     -0.129000
     22 C15         0.0570   -2.3140   -0.4800 c1        1 BDV     -0.108000
     23 C16         2.3900   -0.1590    1.7170 c3        1 BDV     -0.008000
     24 C17         3.9890    0.3310    6.3360 c3        1 BDV     -0.045000
     25 C18         5.1000   -0.4050    7.0880 c3        1 BDV     -0.192000
     26 C19         5.6750    0.5110    8.1770 c3        1 BDV     -0.155000
     27 C20         2.9030    0.1590    4.1500 c2        1 BDV      0.351000
     28 C21         6.7360   -0.2540    8.9790 c3        1 BDV     -0.211000
     29 HN1        -2.1150   -0.1110   -5.5360 hn        1 BDV      0.193000
     30 HN3        -0.1770   -1.6850   -4.6940 DU        1 BDV      0.162000
     31 H4         -4.5400   -1.1430   -5.8260 hc        1 BDV      0.094000
     32 H4A        -4.9860   -1.7340   -4.3940 hc        1 BDV      0.094000
     33 H4B        -5.6560   -0.3930   -4.9520 hc        1 BDV      0.094000
     34 HN4         2.1210   -1.5160    3.2430 hn        1 BDV      0.202000
     35 H5         -5.1800    1.3770   -4.5870 hc        1 BDV      0.104500
     36 H5A        -3.8940    1.9530   -3.8320 hc        1 BDV      0.104500
     37 HN5         3.7590   -1.3400    5.2130 hn        1 BDV      0.201000
     38 H6         -3.3240    1.0200   -6.4020 hc        1 BDV      0.094000
     39 H7         -5.4660    2.6690   -6.1350 hc        1 BDV      0.076167
     40 H7A        -4.3090    3.4530   -6.9270 hc        1 BDV      0.076167
     41 H7B        -4.8830    2.0670   -7.4960 hc        1 BDV      0.076167
     42 H8         -2.4490    3.5140   -6.2170 hc        1 BDV      0.076167
     43 H8A        -1.5630    2.2320   -5.8490 hc        1 BDV      0.076167
     44 H8B        -2.3750    2.9950   -4.6980 hc        1 BDV      0.076167
     45 H9         -3.0720   -1.9330   -0.8050 h1        1 BDV      0.117500
     46 H9A        -2.1540   -2.8940   -1.6780 h1        1 BDV      0.117500
     47 H11        -1.8530    0.3510   -0.0810 ha        1 BDV      0.149000
     48 H12        -0.0140    1.0270    1.2550 ha        1 BDV      0.159000
     49 H14         1.9140   -2.4990    0.4100 ha        1 BDV      0.131000
     50 H15         0.0750   -3.1860   -0.9310 ha        1 BDV      0.148000
     51 H16         3.2020   -0.4840    1.2580 h1        1 BDV      0.114500
     52 H16A        2.3920    0.8200    1.7280 h1        1 BDV      0.114500
     53 H17         4.3280    1.1870    6.0140 h1        1 BDV      0.108500
     54 H17A        3.2340    0.4840    6.9370 h1        1 BDV      0.108500
     55 H18         4.7330   -1.2150    7.5010 hc        1 BDV      0.084500
     56 H18A        5.8150   -0.6540    6.4560 hc        1 BDV      0.084500
     57 H19         4.9600    0.7970    8.7730 hc        1 BDV      0.081000
     58 H19A        6.0870    1.2990    7.7570 hc        1 BDV      0.081000
     59 H21         7.5630   -0.3230    8.4480 hc        1 BDV      0.073333
     60 H21A        6.9250    0.2280    9.8160 hc        1 BDV      0.073333
     61 H21B        6.4050   -1.1520    9.1870 hc        1 BDV      0.073333
@<TRIPOS>BOND
     1    1    2 1   
     2    1    7 1   
     3    1    9 1   
     4    1   11 1   
     5    2    4 1   
     6    2   29 1   
     7    3    7 1   
     8    4    5 1   
     9    4    8 1   
    10    5    7 1   
    11    5   16 1   
    12    6   27 1   
    13    9   31 1   
    14    9   32 1   
    15    9   33 1   
    16   10   23 1   
    17   10   27 1   
    18   10   34 1   
    19   11   13 1   
    20   11   35 1   
    21   11   36 1   
    22   12   24 1   
    23   12   27 1   
    24   12   37 1   
    25   13   14 1   
    26   13   15 1   
    27   13   38 1   
    28   14   39 1   
    29   14   40 1   
    30   14   41 1   
    31   15   42 1   
    32   15   43 1   
    33   15   44 1   
    34   16   17 1   
    35   16   45 1   
    36   16   46 1   
    37   17   18 1   
    38   17   22 1   
    39   18   19 1   
    40   18   47 1   
    41   19   48 1   
    42   20   21 1   
    43   20   23 1   
    44   21   49 1   
    45   22   50 1   
    46   23   51 1   
    47   23   52 1   
    48   24   25 1   
    49   24   53 1   
    50   24   54 1   
    51   25   26 1   
    52   25   55 1   
    53   25   56 1   
    54   26   28 1   
    55   26   57 1   
    56   26   58 1   
    57   28   59 1   
    58   28   60 1   
    59   28   61 1   
@<TRIPOS>SUBSTRUCTURE
     1 BDV         1 TEMP              0 ****  ****    0 ROOT
