@<TRIPOS>MOLECULE
BDV
   63    64     1     0     0
SMALL
bcc


@<TRIPOS>ATOM
      1 C1          0.3360    0.2740   -0.2990 c3        1 BDV      0.143200
      2 N1          1.7930    0.2830   -0.0160 nh        1 BDV     -0.803200
      3 O1         -1.5030    0.3080    1.4290 o         1 BDV     -0.589500
      4 C2          2.0020    0.0350    1.3970 c2        1 BDV      0.631800
      5 N2          0.7160   -0.0440    2.0470 n         1 BDV     -0.432300
      6 O2         -1.2520    6.0870    8.8810 o         1 BDV     -0.297100
      7 C3         -0.3160    0.1890    1.1170 c         1 BDV      0.694500
      8 N3          3.1110   -0.0130    2.0720 n2        1 BDV     -0.859100
      9 C4         -0.1350   -0.9460   -1.0890 c3        1 BDV     -0.119100
     10 N4          0.0350    4.3370    7.9680 n4        1 BDV     -0.681800
     11 C5         -0.1370    1.5810   -0.9540 c3        1 BDV     -0.063400
     12 N5          1.0420    6.1790    9.4340 n4        1 BDV     -0.654800
     13 C6          0.1130    1.6890   -2.4500 c3        1 BDV     -0.065700
     14 C7         -0.5240    2.9700   -2.9590 c3        1 BDV     -0.091600
     15 C8          1.5840    1.6660   -2.8030 c3        1 BDV     -0.091600
     16 C9          0.5360   -0.2530    3.4460 c3        1 BDV      0.145300
     17 C10         0.5580    1.0180    4.2630 ca        1 BDV      0.006700
     18 C11        -0.5670    1.8580    4.2700 ca        1 BDV     -0.107000
     19 C12        -0.5670    3.0170    5.0340 ca        1 BDV     -0.078500
     20 C13         0.5680    3.3570    5.7960 ca        1 BDV     -0.246300
     21 C14         1.6990    2.5160    5.7800 ca        1 BDV     -0.078500
     22 C15         1.6940    1.3590    5.0130 ca        1 BDV     -0.107000
     23 C16         0.5940    4.6160    6.5450 c3        1 BDV      0.219100
     24 C17         0.7010    7.5010   10.1060 c3        1 BDV      0.117800
     25 C18         1.9250    8.1030   10.7790 c3        1 BDV     -0.118400
     26 C19         1.5160    9.4180   11.4300 c3        1 BDV     -0.073400
     27 C20        -0.1530    5.5650    8.7770 c         1 BDV      0.476100
     28 C21         2.7010   10.0530   12.1120 c3        1 BDV     -0.105100
     29 HN1         2.3200   -0.3190   -0.6170 hn        1 BDV      0.419800
     30 HN3         3.9470    0.0400    1.5310 hn        1 BDV      0.426400
     31 H4         -1.2320   -0.8570   -1.2810 hc        1 BDV      0.067033
     32 H4A         0.3980   -1.0050   -2.0700 hc        1 BDV      0.067033
     33 H4B         0.0540   -1.8900   -0.5220 hc        1 BDV      0.067033
     34 HN4        -0.9000    3.8940    7.8460 hn        1 BDV      0.490800
     35 H5          0.3460    2.4540   -0.4400 hc        1 BDV      0.060200
     36 H5A        -1.2460    1.6460   -0.7730 hc        1 BDV      0.060200
     37 HN5         1.4130    5.5390   10.1550 hn        1 BDV      0.483800
     38 H6         -0.3940    0.8240   -2.9650 hc        1 BDV      0.054700
     39 H7         -0.0310    3.8620   -2.5030 hc        1 BDV      0.039533
     40 H7A        -0.4150    3.0370   -4.0690 hc        1 BDV      0.039533
     41 H7B        -1.6110    2.9950   -2.7090 hc        1 BDV      0.039533
     42 H8          2.1660    2.3400   -2.1300 hc        1 BDV      0.039533
     43 H8A         1.7320    2.0070   -3.8570 hc        1 BDV      0.039533
     44 H8B         1.9960    0.6320   -2.7180 hc        1 BDV      0.039533
     45 H9         -0.4740   -0.7430    3.5930 h1        1 BDV      0.097200
     46 H9A         1.3370   -0.9530    3.8270 h1        1 BDV      0.097200
     47 H11        -1.4420    1.5920    3.6450 ha        1 BDV      0.196500
     48 H12        -1.4460    3.6810    5.0180 ha        1 BDV      0.141500
     49 H14         2.6030    2.7900    6.3460 ha        1 BDV      0.141500
     50 H15         2.5920    0.7150    4.9660 ha        1 BDV      0.196500
     51 H16         1.6370    5.0140    6.6870 hx        1 BDV      0.107700
     52 H16A       -0.0780    5.4010    6.0930 hx        1 BDV      0.107700
     53 H17         0.2980    8.1920    9.3100 hx        1 BDV      0.130200
     54 H17A       -0.1130    7.2980   10.8620 hx        1 BDV      0.130200
     55 H18         2.3310    7.4150   11.5680 hc        1 BDV      0.078200
     56 H18A        2.7390    8.3020   10.0320 hc        1 BDV      0.078200
     57 H19         0.7030    9.2310   12.1810 hc        1 BDV      0.064700
     58 H19A        1.1080   10.1150   10.6510 hc        1 BDV      0.064700
     59 H21         3.1090    9.3870   12.9110 hc        1 BDV      0.062700
     60 H21A        2.3860   11.0170   12.5860 hc        1 BDV      0.062700
     61 H21B        3.5150   10.2720   11.3800 hc        1 BDV      0.062700
     62 H42         0.6400    3.6480    8.4370 hn        1 BDV      0.490800
     63 H52         1.7840    6.3500    8.7380 hn        1 BDV      0.483800
@<TRIPOS>BOND
     1    1    2 1   
     2    1    7 1   
     3    1    9 1   
     4    1   11 1   
     5    2    4 1   
     6    2   29 1   
     7    3    7 2   
     8    4    5 1   
     9    4    8 2   
    10    5    7 1   
    11    5   16 1   
    12    6   27 2   
    13    8   30 1   
    14    9   31 1   
    15    9   32 1   
    16    9   33 1   
    17   10   23 1   
    18   10   27 1   
    19   10   34 1   
    20   10   62 1   
    21   11   13 1   
    22   11   35 1   
    23   11   36 1   
    24   12   24 1   
    25   12   27 1   
    26   12   37 1   
    27   12   63 1   
    28   13   14 1   
    29   13   15 1   
    30   13   38 1   
    31   14   39 1   
    32   14   40 1   
    33   14   41 1   
    34   15   42 1   
    35   15   43 1   
    36   15   44 1   
    37   16   17 1   
    38   16   45 1   
    39   16   46 1   
    40   17   18 ar  
    41   17   22 ar  
    42   18   19 ar  
    43   18   47 1   
    44   19   20 ar  
    45   19   48 1   
    46   20   21 ar  
    47   20   23 1   
    48   21   22 ar  
    49   21   49 1   
    50   22   50 1   
    51   23   51 1   
    52   23   52 1   
    53   24   25 1   
    54   24   53 1   
    55   24   54 1   
    56   25   26 1   
    57   25   55 1   
    58   25   56 1   
    59   26   28 1   
    60   26   57 1   
    61   26   58 1   
    62   28   59 1   
    63   28   60 1   
    64   28   61 1   
@<TRIPOS>SUBSTRUCTURE
     1 BDV         1 TEMP              0 ****  ****    0 ROOT
