@<TRIPOS>MOLECULE
BDV
   61    62     1     0     0
SMALL
bcc


@<TRIPOS>ATOM
      1 C1          4.6450    0.1980    0.7300 c3        1 BDV      0.123200
      2 N1          4.9380    0.4080   -0.7080 nh        1 BDV     -0.761200
      3 O1          2.7790    1.2060    2.0670 o         1 BDV     -0.598500
      4 C2          3.8090    1.0960   -1.3070 c2        1 BDV      0.625800
      5 N2          2.9280    1.5450   -0.2480 n         1 BDV     -0.455300
      6 O2         -4.0480   -1.5240   -1.0110 o         1 BDV     -0.638100
      7 C3          3.3420    1.0270    0.9830 c         1 BDV      0.692500
      8 N3          3.6940    1.2820   -2.5860 n2        1 BDV     -0.827100
      9 C4          5.7470    0.7870    1.6100 c3        1 BDV     -0.077100
     10 N4         -4.0560    0.2360   -2.5340 n         1 BDV     -0.527900
     11 C5          4.3330   -1.2550    1.1210 c3        1 BDV     -0.095400
     12 N5         -5.6800    0.0910   -0.7350 n         1 BDV     -0.546900
     13 C6          5.5350   -2.1680    1.2970 c3        1 BDV     -0.065700
     14 C7          5.0610   -3.5020    1.8470 c3        1 BDV     -0.097600
     15 C8          6.3080   -2.3860    0.0140 c3        1 BDV     -0.097600
     16 C9          1.7900    2.3910   -0.4600 c3        1 BDV      0.148300
     17 C10         0.6240    1.7250   -1.1360 ca        1 BDV     -0.117300
     18 C11        -0.1070    0.7410   -0.4620 ca        1 BDV     -0.119000
     19 C12        -1.2050    0.1430   -1.0750 ca        1 BDV     -0.116000
     20 C13        -1.5850    0.5270   -2.3660 ca        1 BDV     -0.124300
     21 C14        -0.8580    1.5130   -3.0370 ca        1 BDV     -0.116000
     22 C15         0.2460    2.1070   -2.4260 ca        1 BDV     -0.119000
     23 C16        -2.7550   -0.1440   -3.0290 c3        1 BDV      0.115300
     24 C17        -6.3900   -0.7660    0.1860 c3        1 BDV      0.082000
     25 C18        -7.4420   -0.0140    1.0010 c3        1 BDV     -0.089400
     26 C19        -8.1320   -0.9680    1.9520 c3        1 BDV     -0.079400
     27 C20        -4.5670   -0.4500   -1.4030 c         1 BDV      0.731100
     28 C21        -9.1780   -0.2600    2.7740 c3        1 BDV     -0.093100
     29 HN1         5.1890   -0.4290   -1.1950 hn        1 BDV      0.416800
     30 HN3         2.9030    1.8180   -2.8730 hn        1 BDV      0.404400
     31 H4          5.8410    1.8860    1.4400 hc        1 BDV      0.055033
     32 H4A         5.4840    0.6070    2.6800 hc        1 BDV      0.055033
     33 H4B         6.7290    0.3090    1.3810 hc        1 BDV      0.055033
     34 HN4        -4.2290    1.2180   -2.5620 hn        1 BDV      0.288500
     35 H5          3.7790   -1.2140    2.1000 hc        1 BDV      0.062200
     36 H5A         3.6380   -1.7060    0.3630 hc        1 BDV      0.062200
     37 HN5        -6.2430    0.7490   -1.2240 hn        1 BDV      0.293500
     38 H6          6.2290   -1.7070    2.0570 hc        1 BDV      0.054700
     39 H7          4.3830   -4.0070    1.1180 hc        1 BDV      0.038367
     40 H7A         5.9340   -4.1710    2.0410 hc        1 BDV      0.038367
     41 H7B         4.5070   -3.3560    2.8050 hc        1 BDV      0.038367
     42 H8          6.8960   -1.4750   -0.2560 hc        1 BDV      0.038367
     43 H8A         7.0280   -3.2310    0.1390 hc        1 BDV      0.038367
     44 H8B         5.6200   -2.6390   -0.8290 hc        1 BDV      0.038367
     45 H9          1.4530    2.7600    0.5550 h1        1 BDV      0.071700
     46 H9A         2.1160    3.2840   -1.0690 h1        1 BDV      0.071700
     47 H11         0.1890    0.4430    0.5560 ha        1 BDV      0.139000
     48 H12        -1.7850   -0.6370   -0.5510 ha        1 BDV      0.148000
     49 H14        -1.1490    1.8190   -4.0530 ha        1 BDV      0.148000
     50 H15         0.8130    2.8830   -2.9630 ha        1 BDV      0.139000
     51 H16        -2.6420   -1.2630   -2.9130 h1        1 BDV      0.076700
     52 H16A       -2.7530    0.1010   -4.1310 h1        1 BDV      0.076700
     53 H17        -6.8920   -1.6130   -0.3680 h1        1 BDV      0.054200
     54 H17A       -5.6310   -1.2270    0.8820 h1        1 BDV      0.054200
     55 H18        -6.9600    0.8150    1.5820 hc        1 BDV      0.045700
     56 H18A       -8.2020    0.4510    0.3200 hc        1 BDV      0.045700
     57 H19        -8.6090   -1.8000    1.3700 hc        1 BDV      0.043700
     58 H19A       -7.3700   -1.4350    2.6320 hc        1 BDV      0.043700
     59 H21        -9.6740   -0.9790    3.4700 hc        1 BDV      0.034700
     60 H21A       -8.7180    0.5570    3.3810 hc        1 BDV      0.034700
     61 H21B       -9.9600    0.1900    2.1160 hc        1 BDV      0.034700
@<TRIPOS>BOND
     1    1    2 1   
     2    1    7 1   
     3    1    9 1   
     4    1   11 1   
     5    2    4 1   
     6    2   29 1   
     7    3    7 2   
     8    4    5 1   
     9    4    8 2   
    10    5    7 1   
    11    5   16 1   
    12    6   27 2   
    13    8   30 1   
    14    9   31 1   
    15    9   32 1   
    16    9   33 1   
    17   10   23 1   
    18   10   27 1   
    19   10   34 1   
    20   11   13 1   
    21   11   35 1   
    22   11   36 1   
    23   12   24 1   
    24   12   27 1   
    25   12   37 1   
    26   13   14 1   
    27   13   15 1   
    28   13   38 1   
    29   14   39 1   
    30   14   40 1   
    31   14   41 1   
    32   15   42 1   
    33   15   43 1   
    34   15   44 1   
    35   16   17 1   
    36   16   45 1   
    37   16   46 1   
    38   17   18 ar  
    39   17   22 ar  
    40   18   19 ar  
    41   18   47 1   
    42   19   20 ar  
    43   19   48 1   
    44   20   21 ar  
    45   20   23 1   
    46   21   22 ar  
    47   21   49 1   
    48   22   50 1   
    49   23   51 1   
    50   23   52 1   
    51   24   25 1   
    52   24   53 1   
    53   24   54 1   
    54   25   26 1   
    55   25   55 1   
    56   25   56 1   
    57   26   28 1   
    58   26   57 1   
    59   26   58 1   
    60   28   59 1   
    61   28   60 1   
    62   28   61 1   
@<TRIPOS>SUBSTRUCTURE
     1 BDV         1 TEMP              0 ****  ****    0 ROOT
