@<TRIPOS>MOLECULE
BDW
   88    92     1     0     0
SMALL
bcc


@<TRIPOS>ATOM
      1 C1         -0.0560    0.1370    0.2760 c3        1 BDW      0.115200
      2 N1          1.3760    0.3250   -0.0410 nu        1 BDW     -0.798200
      3 O1         -1.1120    0.0070    2.5400 o         1 BDW     -0.588500
      4 C2          2.1330    0.2680    1.2080 c2        1 BDW      0.616800
      5 N2          1.2210    0.0790    2.3080 n         1 BDW     -0.402300
      6 O2         -0.5550    6.0000    7.2140 o         1 BDW     -0.628500
      7 C3         -0.1040    0.0810    1.8330 c         1 BDW      0.693500
      8 N3          3.4140    0.4050    1.3730 n2        1 BDW     -0.833100
      9 C4         -0.9290    1.3070   -0.2150 c3        1 BDW     -0.057400
     10 N4          1.8150    5.9200    7.0320 n         1 BDW     -0.426800
     11 C5         -0.6690   -1.1580   -0.2860 c3        1 BDW     -0.096400
     12 N5          0.7700    5.3520    9.0610 ns        1 BDW     -0.514900
     13 C6         -0.4560    2.6940    0.1950 c3        1 BDW     -0.056700
     14 C7          1.5890    0.2550    3.6880 c3        1 BDW      0.156300
     15 C8          1.6660    1.6790    4.1620 ca        1 BDW     -0.119300
     16 C9          0.5030    2.3450    4.5620 ca        1 BDW     -0.110500
     17 C10         0.5740    3.6510    5.0410 ca        1 BDW     -0.126500
     18 C11         1.8090    4.3040    5.1180 ca        1 BDW     -0.126300
     19 C12         2.9700    3.6400    4.7120 ca        1 BDW     -0.126500
     20 C13         2.8990    2.3330    4.2320 ca        1 BDW     -0.110500
     21 C14         0.3040    3.3750   -0.9360 c3        1 BDW     -0.073400
     22 C15         0.7480    4.7670   -0.5360 c3        1 BDW     -0.076400
     23 C16        -0.4280    5.6190   -0.1070 c3        1 BDW     -0.076400
     24 C17        -1.2120    4.9470    1.0010 c3        1 BDW     -0.076400
     25 C18        -1.6490    3.5520    0.6040 c3        1 BDW     -0.073400
     26 C19         0.0460   -2.4200    0.1440 c3        1 BDW     -0.084400
     27 C22         1.8730    5.7250    5.6060 c3        1 BDW      0.124300
     28 C23         2.8640    5.3470    7.8700 c3        1 BDW      0.043000
     29 C24         2.1730    4.9730    9.2320 c3        1 BDW      0.053700
     30 C25         0.5590    5.7450    7.7060 c         1 BDW      0.752500
     31 C26         2.4320    3.5100    9.5810 c3        1 BDW     -0.105400
     32 C27         1.9240    3.1570   10.9630 c3        1 BDW     -0.080400
     33 C28         2.2910    1.7430   11.3340 c3        1 BDW     -0.094100
     34 C29        -0.6780   -3.6690   -0.3400 c3        1 BDW     -0.061700
     35 C30         0.2730   -4.8590   -0.3300 c3        1 BDW     -0.073900
     36 C31        -0.4220   -6.1240   -0.7880 c3        1 BDW     -0.076400
     37 C32        -1.6510   -6.4140    0.0500 c3        1 BDW     -0.077400
     38 C33        -2.5970   -5.2320    0.0580 c3        1 BDW     -0.076400
     39 C34        -1.8980   -3.9690    0.5190 c3        1 BDW     -0.073900
     40 HN1         1.7090   -0.3280   -0.7210 hn        1 BDW      0.395800
     41 HN3         3.9400    0.5090    0.5320 hn        1 BDW      0.406400
     42 H4         -1.9570    1.1220    0.2030 hc        1 BDW      0.057700
     43 H4A        -1.0000    1.2470   -1.3330 hc        1 BDW      0.057700
     44 H5         -0.6790   -1.0940   -1.4070 hc        1 BDW      0.065200
     45 H5A        -1.7360   -1.1980    0.0630 hc        1 BDW      0.065200
     46 HN5         0.0820    4.7510    9.4530 hn        1 BDW      0.309500
     47 H6          0.2310    2.6100    1.0830 hc        1 BDW      0.057700
     48 H7          2.5850   -0.2480    3.8520 h1        1 BDW      0.077200
     49 H7A         0.8040   -0.2860    4.2970 h1        1 BDW      0.077200
     50 H9         -0.4710    1.8320    4.4900 ha        1 BDW      0.150000
     51 H10        -0.3400    4.1790    5.3610 ha        1 BDW      0.143000
     52 H12         3.9430    4.1510    4.7630 ha        1 BDW      0.143000
     53 H13         3.8130    1.8170    3.8980 ha        1 BDW      0.150000
     54 H14         1.2000    2.7630   -1.2140 hc        1 BDW      0.041200
     55 H14A       -0.3560    3.4410   -1.8410 hc        1 BDW      0.041200
     56 H15         1.2710    5.2550   -1.4000 hc        1 BDW      0.040950
     57 H15A        1.4850    4.6960    0.3070 hc        1 BDW      0.040950
     58 H16        -0.0620    6.6190    0.2440 hc        1 BDW      0.037700
     59 H16A       -1.1010    5.7970   -0.9870 hc        1 BDW      0.037700
     60 H17        -0.5790    4.8910    1.9250 hc        1 BDW      0.040950
     61 H17A       -2.1160    5.5630    1.2500 hc        1 BDW      0.040950
     62 H18        -2.1790    3.0690    1.4660 hc        1 BDW      0.041200
     63 H18A       -2.3730    3.6130   -0.2500 hc        1 BDW      0.041200
     64 H19         1.0900   -2.4290   -0.2690 hc        1 BDW      0.044200
     65 H19A        0.1290   -2.4470    1.2630 hc        1 BDW      0.044200
     66 H22         2.8350    6.1970    5.2540 h1        1 BDW      0.075200
     67 H22A        1.0060    6.3000    5.1620 h1        1 BDW      0.075200
     68 H23         3.6520    6.1270    8.0400 h1        1 BDW      0.058700
     69 H23A        3.3360    4.4460    7.3940 h1        1 BDW      0.058700
     70 H24         2.5930    5.6240   10.0510 h1        1 BDW      0.076700
     71 H26         3.5400    3.3380    9.5370 hc        1 BDW      0.053700
     72 H26A        1.9600    2.8360    8.8200 hc        1 BDW      0.053700
     73 H27         0.8090    3.2730   11.0030 hc        1 BDW      0.042700
     74 H27A        2.3570    3.8690   11.7150 hc        1 BDW      0.042700
     75 H28         1.8560    1.0170   10.6050 hc        1 BDW      0.036367
     76 H28A        1.9020    1.4970   12.3520 hc        1 BDW      0.036367
     77 H28B        3.4000    1.6110   11.3400 hc        1 BDW      0.036367
     78 H29        -1.0220   -3.5010   -1.4000 hc        1 BDW      0.047700
     79 H30         0.6740   -5.0030    0.7070 hc        1 BDW      0.041950
     80 H30A        1.1450   -4.6480   -1.0030 hc        1 BDW      0.041950
     81 H31         0.2910   -6.9870   -0.7200 hc        1 BDW      0.039700
     82 H31A       -0.7210   -6.0170   -1.8640 hc        1 BDW      0.039700
     83 H32        -1.3390   -6.6500    1.1010 hc        1 BDW      0.040200
     84 H32A       -2.1780   -7.3160   -0.3560 hc        1 BDW      0.040200
     85 H33        -3.4620   -5.4480    0.7380 hc        1 BDW      0.039700
     86 H33A       -3.0100   -5.0760   -0.9730 hc        1 BDW      0.039700
     87 H34        -2.6150   -3.1080    0.4730 hc        1 BDW      0.041950
     88 H34A       -1.5810   -4.0860    1.5890 hc        1 BDW      0.041950
@<TRIPOS>BOND
     1    1    2 1   
     2    1    7 1   
     3    1    9 1   
     4    1   11 1   
     5    2    4 1   
     6    2   40 1   
     7    3    7 2   
     8    4    5 1   
     9    4    8 2   
    10    5    7 1   
    11    5   14 1   
    12    6   30 2   
    13    8   41 1   
    14    9   13 1   
    15    9   42 1   
    16    9   43 1   
    17   10   27 1   
    18   10   28 1   
    19   10   30 1   
    20   11   26 1   
    21   11   44 1   
    22   11   45 1   
    23   12   29 1   
    24   12   30 1   
    25   12   46 1   
    26   13   21 1   
    27   13   25 1   
    28   13   47 1   
    29   14   15 1   
    30   14   48 1   
    31   14   49 1   
    32   15   16 ar  
    33   15   20 ar  
    34   16   17 ar  
    35   16   50 1   
    36   17   18 ar  
    37   17   51 1   
    38   18   19 ar  
    39   18   27 1   
    40   19   20 ar  
    41   19   52 1   
    42   20   53 1   
    43   21   22 1   
    44   21   54 1   
    45   21   55 1   
    46   22   23 1   
    47   22   56 1   
    48   22   57 1   
    49   23   24 1   
    50   23   58 1   
    51   23   59 1   
    52   24   25 1   
    53   24   60 1   
    54   24   61 1   
    55   25   62 1   
    56   25   63 1   
    57   26   34 1   
    58   26   64 1   
    59   26   65 1   
    60   27   66 1   
    61   27   67 1   
    62   28   29 1   
    63   28   68 1   
    64   28   69 1   
    65   29   31 1   
    66   29   70 1   
    67   31   32 1   
    68   31   71 1   
    69   31   72 1   
    70   32   33 1   
    71   32   73 1   
    72   32   74 1   
    73   33   75 1   
    74   33   76 1   
    75   33   77 1   
    76   34   35 1   
    77   34   39 1   
    78   34   78 1   
    79   35   36 1   
    80   35   79 1   
    81   35   80 1   
    82   36   37 1   
    83   36   81 1   
    84   36   82 1   
    85   37   38 1   
    86   37   83 1   
    87   37   84 1   
    88   38   39 1   
    89   38   85 1   
    90   38   86 1   
    91   39   87 1   
    92   39   88 1   
@<TRIPOS>SUBSTRUCTURE
     1 BDW         1 TEMP              0 ****  ****    0 ROOT
