@<TRIPOS>MOLECULE
BDW
   88    92     1     0     0
SMALL
bcc


@<TRIPOS>ATOM
      1 C1         -3.1800   -1.0000    0.0270 c3        1 BDW      0.116200
      2 N1         -3.0360   -1.2700    1.4750 nh        1 BDW     -0.753200
      3 O1         -1.8430    0.5830   -1.3820 o         1 BDW     -0.597500
      4 C2         -1.8190   -0.6230    1.9360 c2        1 BDW      0.623800
      5 N2         -1.3140    0.2240    0.8740 n         1 BDW     -0.459300
      6 O2          5.8990   -1.5900   -1.0970 o         1 BDW     -0.630500
      7 C3         -2.0540    0.0290   -0.2990 c         1 BDW      0.700500
      8 N3         -1.3420   -0.7860    3.1320 n2        1 BDW     -0.825100
      9 C4         -3.0190   -2.2300   -0.8840 c3        1 BDW     -0.096400
     10 N4          6.1300   -0.5800    1.0430 n         1 BDW     -0.429800
     11 C5         -4.5440   -0.3600   -0.3000 c3        1 BDW     -0.058400
     12 N5          6.9800    0.5000   -0.8630 n         1 BDW     -0.515900
     13 C6         -1.7700   -3.0640   -0.6350 c3        1 BDW     -0.072700
     14 C7         -0.2300    1.1470    1.0360 c3        1 BDW      0.147300
     15 C8          1.1220    0.5140    1.2090 ca        1 BDW     -0.115300
     16 C9          1.7050   -0.1970    0.1540 ca        1 BDW     -0.119000
     17 C10         2.9720   -0.7560    0.3030 ca        1 BDW     -0.118000
     18 C11         3.6690   -0.6090    1.5080 ca        1 BDW     -0.125300
     19 C12         3.0880    0.1050    2.5590 ca        1 BDW     -0.118000
     20 C13         1.8170    0.6600    2.4130 ca        1 BDW     -0.119000
     21 C14        -2.1120   -4.3790    0.0540 c3        1 BDW     -0.073400
     22 C15        -0.8700   -5.2150    0.2850 c3        1 BDW     -0.077900
     23 C16        -0.1350   -5.4780   -1.0120 c3        1 BDW     -0.077400
     24 C17         0.1910   -4.1840   -1.7290 c3        1 BDW     -0.077900
     25 C18        -1.0520   -3.3460   -1.9510 c3        1 BDW     -0.073400
     26 C19        -4.8280    0.9070    0.4750 c3        1 BDW     -0.077400
     27 C22         5.0200   -1.2480    1.6700 c3        1 BDW      0.126300
     28 C23         6.4990    0.7620    1.4830 c3        1 BDW      0.045000
     29 C24         7.0790    1.4860    0.2130 c3        1 BDW      0.054700
     30 C25         6.2640   -0.6370   -0.3850 c         1 BDW      0.754500
     31 C26         6.3600    2.8100   -0.0260 c3        1 BDW     -0.105400
     32 C27         7.0000    3.6130   -1.1380 c3        1 BDW     -0.080400
     33 C28         6.3480    4.9640   -1.2820 c3        1 BDW     -0.095100
     34 C29        -6.1280    1.5600    0.0250 c3        1 BDW     -0.062700
     35 C30        -6.6280    2.5170    1.1000 c3        1 BDW     -0.073900
     36 C31        -7.9120    3.2000    0.6770 c3        1 BDW     -0.076400
     37 C32        -7.7460    3.9200   -0.6450 c3        1 BDW     -0.076400
     38 C33        -7.2370    2.9810   -1.7190 c3        1 BDW     -0.076400
     39 C34        -5.9520    2.3020   -1.2930 c3        1 BDW     -0.073900
     40 HN1        -3.0670   -2.2440    1.7040 hn        1 BDW      0.414800
     41 HN3        -0.5320   -0.2450    3.3490 hn        1 BDW      0.404400
     42 H4         -3.9330   -2.8720   -0.7680 hc        1 BDW      0.066200
     43 H4A        -3.0140   -1.8450   -1.9400 hc        1 BDW      0.066200
     44 H5         -4.5430   -0.1390   -1.4010 hc        1 BDW      0.057200
     45 H5A        -5.3500   -1.1130   -0.0970 hc        1 BDW      0.057200
     46 HN5         6.7280    0.8280   -1.7660 hn        1 BDW      0.310500
     47 H6         -1.0550   -2.4960    0.0250 hc        1 BDW      0.052700
     48 H7         -0.2040    1.8000    0.1120 h1        1 BDW      0.071200
     49 H7A        -0.4500    1.8060    1.9270 h1        1 BDW      0.071200
     50 H9          1.1590   -0.3120   -0.7950 ha        1 BDW      0.140000
     51 H10         3.4350   -1.3180   -0.5260 ha        1 BDW      0.146500
     52 H12         3.6290    0.2230    3.5100 ha        1 BDW      0.146500
     53 H13         1.3670    1.2180    3.2480 ha        1 BDW      0.140000
     54 H14        -2.6140   -4.1810    1.0360 hc        1 BDW      0.041200
     55 H14A       -2.8360   -4.9540   -0.5830 hc        1 BDW      0.041200
     56 H15        -0.1880   -4.6830    1.0000 hc        1 BDW      0.043200
     57 H15A       -1.1590   -6.1890    0.7580 hc        1 BDW      0.043200
     58 H16         0.8130   -6.0390   -0.8010 hc        1 BDW      0.040700
     59 H16A       -0.7680   -6.1240   -1.6760 hc        1 BDW      0.040700
     60 H17         0.9330   -3.5990   -1.1250 hc        1 BDW      0.043200
     61 H17A        0.6670   -4.4120   -2.7180 hc        1 BDW      0.043200
     62 H18        -1.7490   -3.8820   -2.6460 hc        1 BDW      0.041200
     63 H18A       -0.7670   -2.3760   -2.4360 hc        1 BDW      0.041200
     64 H19        -4.8990    0.6720    1.5700 hc        1 BDW      0.052200
     65 H19A       -3.9810    1.6310    0.3410 hc        1 BDW      0.052200
     66 H22         4.9800   -2.2920    1.2370 h1        1 BDW      0.076700
     67 H22A        5.2670   -1.3240    2.7690 h1        1 BDW      0.076700
     68 H23         5.6210    1.3230    1.9030 h1        1 BDW      0.058200
     69 H23A        7.2900    0.6760    2.2720 h1        1 BDW      0.058200
     70 H24         8.1770    1.6900    0.3740 h1        1 BDW      0.077700
     71 H26         5.2780    2.6310   -0.2620 hc        1 BDW      0.053200
     72 H26A        6.4000    3.4000    0.9280 hc        1 BDW      0.053200
     73 H27         8.0940    3.7430   -0.9250 hc        1 BDW      0.043200
     74 H27A        6.9180    3.0560   -2.1090 hc        1 BDW      0.043200
     75 H28         6.4500    5.5540   -0.3390 hc        1 BDW      0.036700
     76 H28A        6.8270    5.5380   -2.1110 hc        1 BDW      0.036700
     77 H28B        5.2600    4.8550   -1.5110 hc        1 BDW      0.036700
     78 H29        -6.9050    0.7570   -0.1200 hc        1 BDW      0.046700
     79 H30        -6.8020    1.9520    2.0530 hc        1 BDW      0.041450
     80 H30A       -5.8390    3.2880    1.3030 hc        1 BDW      0.041450
     81 H31        -8.7280    2.4370    0.5860 hc        1 BDW      0.038450
     82 H31A       -8.2230    3.9320    1.4670 hc        1 BDW      0.038450
     83 H32        -8.7290    4.3570   -0.9620 hc        1 BDW      0.038200
     84 H32A       -7.0240    4.7700   -0.5200 hc        1 BDW      0.038200
     85 H33        -8.0170    2.2040   -1.9350 hc        1 BDW      0.038450
     86 H33A       -7.0610    3.5530   -2.6660 hc        1 BDW      0.038450
     87 H34        -5.1410    3.0700   -1.1820 hc        1 BDW      0.041450
     88 H34A       -5.6270    1.5840   -2.0900 hc        1 BDW      0.041450
@<TRIPOS>BOND
     1    1    2 1   
     2    1    7 1   
     3    1    9 1   
     4    1   11 1   
     5    2    4 1   
     6    2   40 1   
     7    3    7 2   
     8    4    5 1   
     9    4    8 2   
    10    5    7 1   
    11    5   14 1   
    12    6   30 2   
    13    8   41 1   
    14    9   13 1   
    15    9   42 1   
    16    9   43 1   
    17   10   27 1   
    18   10   28 1   
    19   10   30 1   
    20   11   26 1   
    21   11   44 1   
    22   11   45 1   
    23   12   29 1   
    24   12   30 1   
    25   12   46 1   
    26   13   21 1   
    27   13   25 1   
    28   13   47 1   
    29   14   15 1   
    30   14   48 1   
    31   14   49 1   
    32   15   16 ar  
    33   15   20 ar  
    34   16   17 ar  
    35   16   50 1   
    36   17   18 ar  
    37   17   51 1   
    38   18   19 ar  
    39   18   27 1   
    40   19   20 ar  
    41   19   52 1   
    42   20   53 1   
    43   21   22 1   
    44   21   54 1   
    45   21   55 1   
    46   22   23 1   
    47   22   56 1   
    48   22   57 1   
    49   23   24 1   
    50   23   58 1   
    51   23   59 1   
    52   24   25 1   
    53   24   60 1   
    54   24   61 1   
    55   25   62 1   
    56   25   63 1   
    57   26   34 1   
    58   26   64 1   
    59   26   65 1   
    60   27   66 1   
    61   27   67 1   
    62   28   29 1   
    63   28   68 1   
    64   28   69 1   
    65   29   31 1   
    66   29   70 1   
    67   31   32 1   
    68   31   71 1   
    69   31   72 1   
    70   32   33 1   
    71   32   73 1   
    72   32   74 1   
    73   33   75 1   
    74   33   76 1   
    75   33   77 1   
    76   34   35 1   
    77   34   39 1   
    78   34   78 1   
    79   35   36 1   
    80   35   79 1   
    81   35   80 1   
    82   36   37 1   
    83   36   81 1   
    84   36   82 1   
    85   37   38 1   
    86   37   83 1   
    87   37   84 1   
    88   38   39 1   
    89   38   85 1   
    90   38   86 1   
    91   39   87 1   
    92   39   88 1   
@<TRIPOS>SUBSTRUCTURE
     1 BDW         1 TEMP              0 ****  ****    0 ROOT
