@<TRIPOS>MOLECULE
BDW
   88    92     1     0     0
SMALL
bcc


@<TRIPOS>ATOM
      1 C1         -0.0580    0.1270    0.2810 c3        1 BDW      0.115200
      2 N1          1.3720    0.3190   -0.0410 nh        1 BDW     -0.798200
      3 O1         -1.1070   -0.0000    2.5490 o         1 BDW     -0.588500
      4 C2          2.1320    0.2680    1.2060 c2        1 BDW      0.616800
      5 N2          1.2250    0.0790    2.3100 n         1 BDW     -0.402300
      6 O2         -0.5580    6.0120    7.1970 o         1 BDW     -0.628500
      7 C3         -0.1020    0.0740    1.8380 c         1 BDW      0.693500
      8 N3          3.4140    0.4100    1.3670 n2        1 BDW     -0.833100
      9 C4         -0.9380    1.2930   -0.2100 c3        1 BDW     -0.057400
     10 N4          1.8120    5.9350    7.0140 n         1 BDW     -0.426800
     11 C5         -0.6690   -1.1720   -0.2760 c3        1 BDW     -0.096400
     12 N5          0.7700    5.3720    9.0450 n         1 BDW     -0.514900
     13 C6         -0.4680    2.6820    0.1940 c3        1 BDW     -0.056700
     14 C7          1.5960    0.2600    3.6870 c3        1 BDW      0.156300
     15 C8          1.6710    1.6850    4.1570 ca        1 BDW     -0.119300
     16 C9          0.5060    2.3490    4.5580 ca        1 BDW     -0.110500
     17 C10         0.5750    3.6570    5.0320 ca        1 BDW     -0.126500
     18 C11         1.8080    4.3140    5.1050 ca        1 BDW     -0.126300
     19 C12         2.9700    3.6510    4.6990 ca        1 BDW     -0.126500
     20 C13         2.9020    2.3430    4.2220 ca        1 BDW     -0.110500
     21 C14         0.2870    3.3640   -0.9400 c3        1 BDW     -0.073400
     22 C15         0.7270    4.7580   -0.5440 c3        1 BDW     -0.076400
     23 C16        -0.4520    5.6070   -0.1140 c3        1 BDW     -0.076400
     24 C17        -1.2300    4.9350    0.9980 c3        1 BDW     -0.076400
     25 C18        -1.6630    3.5370    0.6060 c3        1 BDW     -0.073400
     26 C19         0.0520   -2.4300    0.1550 c3        1 BDW     -0.084400
     27 C22         1.8690    5.7360    5.5880 c3        1 BDW      0.124300
     28 C23         2.8630    5.3670    7.8530 c3        1 BDW      0.043000
     29 C24         2.1730    4.9950    9.2160 c3        1 BDW      0.053700
     30 C25         0.5570    5.7610    7.6890 c         1 BDW      0.752500
     31 C26         2.4350    3.5350    9.5700 c3        1 BDW     -0.105400
     32 C27         1.9290    3.1850   10.9530 c3        1 BDW     -0.080400
     33 C28         2.2990    1.7730   11.3290 c3        1 BDW     -0.094100
     34 C29        -0.6700   -3.6830   -0.3240 c3        1 BDW     -0.061700
     35 C30         0.2860   -4.8690   -0.3140 c3        1 BDW     -0.073900
     36 C31        -0.4070   -6.1380   -0.7660 c3        1 BDW     -0.076400
     37 C32        -1.6310   -6.4300    0.0760 c3        1 BDW     -0.077400
     38 C33        -2.5820   -5.2510    0.0860 c3        1 BDW     -0.076400
     39 C34        -1.8860   -3.9850    0.5410 c3        1 BDW     -0.073900
     40 HN1         1.7050   -0.3350   -0.7210 hn        1 BDW      0.395800
     41 HN3         3.9370    0.5130    0.5240 hn        1 BDW      0.406400
     42 H4         -1.9630    1.1050    0.2110 hc        1 BDW      0.057700
     43 H4A        -1.0100    1.2300   -1.3280 hc        1 BDW      0.057700
     44 H5         -0.6830   -1.1100   -1.3970 hc        1 BDW      0.065200
     45 H5A        -1.7340   -1.2140    0.0770 hc        1 BDW      0.065200
     46 HN5         0.0830    4.7710    9.4390 hn        1 BDW      0.309500
     47 H6          0.2220    2.6030    1.0810 hc        1 BDW      0.057700
     48 H7          2.5940   -0.2400    3.8490 h1        1 BDW      0.077200
     49 H7A         0.8150   -0.2820    4.3000 h1        1 BDW      0.077200
     50 H9         -0.4660    1.8340    4.4890 ha        1 BDW      0.150000
     51 H10        -0.3400    4.1840    5.3530 ha        1 BDW      0.143000
     52 H12         3.9420    4.1650    4.7460 ha        1 BDW      0.143000
     53 H13         3.8170    1.8280    3.8880 ha        1 BDW      0.150000
     54 H14        -0.3770    3.4250   -1.8430 hc        1 BDW      0.041200
     55 H14A        1.1830    2.7530   -1.2190 hc        1 BDW      0.041200
     56 H15         1.2450    5.2450   -1.4110 hc        1 BDW      0.040950
     57 H15A        1.4660    4.6920    0.2970 hc        1 BDW      0.040950
     58 H16        -0.0880    6.6080    0.2340 hc        1 BDW      0.037700
     59 H16A       -1.1280    5.7800   -0.9920 hc        1 BDW      0.037700
     60 H17        -2.1350    5.5480    1.2480 hc        1 BDW      0.040950
     61 H17A       -0.5930    4.8830    1.9200 hc        1 BDW      0.040950
     62 H18        -2.1890    3.0540    1.4700 hc        1 BDW      0.041200
     63 H18A       -2.3890    3.5930   -0.2460 hc        1 BDW      0.041200
     64 H19         0.1390   -2.4540    1.2740 hc        1 BDW      0.044200
     65 H19A        1.0950   -2.4370   -0.2620 hc        1 BDW      0.044200
     66 H22         1.0010    6.3080    5.1430 h1        1 BDW      0.075200
     67 H22A        2.8300    6.2090    5.2340 h1        1 BDW      0.075200
     68 H23         3.3360    4.4650    7.3790 h1        1 BDW      0.058700
     69 H23A        3.6490    6.1490    8.0200 h1        1 BDW      0.058700
     70 H24         2.5930    5.6500   10.0330 h1        1 BDW      0.076700
     71 H26         1.9630    2.8570    8.8110 hc        1 BDW      0.053700
     72 H26A        3.5430    3.3640    9.5260 hc        1 BDW      0.053700
     73 H27         2.3610    3.9000   11.7030 hc        1 BDW      0.042700
     74 H27A        0.8140    3.3000   10.9940 hc        1 BDW      0.042700
     75 H28         1.8640    1.0440   10.6020 hc        1 BDW      0.036367
     76 H28A        1.9110    1.5300   12.3470 hc        1 BDW      0.036367
     77 H28B        3.4080    1.6420   11.3340 hc        1 BDW      0.036367
     78 H29        -1.0180   -3.5180   -1.3820 hc        1 BDW      0.047700
     79 H30         0.6910   -5.0090    0.7220 hc        1 BDW      0.041950
     80 H30A        1.1540   -4.6570   -0.9910 hc        1 BDW      0.041950
     81 H31        -0.7100   -6.0350   -1.8410 hc        1 BDW      0.039700
     82 H31A        0.3090   -6.9980   -0.6990 hc        1 BDW      0.039700
     83 H32        -1.3150   -6.6630    1.1270 hc        1 BDW      0.040200
     84 H32A       -2.1570   -7.3350   -0.3250 hc        1 BDW      0.040200
     85 H33        -3.4440   -5.4680    0.7690 hc        1 BDW      0.039700
     86 H33A       -2.9990   -5.0990   -0.9440 hc        1 BDW      0.039700
     87 H34        -1.5640   -4.0980    1.6100 hc        1 BDW      0.041950
     88 H34A       -2.6050   -3.1270    0.4960 hc        1 BDW      0.041950
@<TRIPOS>BOND
     1    1    2 1   
     2    1    7 1   
     3    1    9 1   
     4    1   11 1   
     5    2    4 1   
     6    2   40 1   
     7    3    7 2   
     8    4    5 1   
     9    4    8 2   
    10    5    7 1   
    11    5   14 1   
    12    6   30 2   
    13    8   41 1   
    14    9   13 1   
    15    9   42 1   
    16    9   43 1   
    17   10   27 1   
    18   10   28 1   
    19   10   30 1   
    20   11   26 1   
    21   11   44 1   
    22   11   45 1   
    23   12   29 1   
    24   12   30 1   
    25   12   46 1   
    26   13   21 1   
    27   13   25 1   
    28   13   47 1   
    29   14   15 1   
    30   14   48 1   
    31   14   49 1   
    32   15   16 ar  
    33   15   20 ar  
    34   16   17 ar  
    35   16   50 1   
    36   17   18 ar  
    37   17   51 1   
    38   18   19 ar  
    39   18   27 1   
    40   19   20 ar  
    41   19   52 1   
    42   20   53 1   
    43   21   22 1   
    44   21   54 1   
    45   21   55 1   
    46   22   23 1   
    47   22   56 1   
    48   22   57 1   
    49   23   24 1   
    50   23   58 1   
    51   23   59 1   
    52   24   25 1   
    53   24   60 1   
    54   24   61 1   
    55   25   62 1   
    56   25   63 1   
    57   26   34 1   
    58   26   64 1   
    59   26   65 1   
    60   27   66 1   
    61   27   67 1   
    62   28   29 1   
    63   28   68 1   
    64   28   69 1   
    65   29   31 1   
    66   29   70 1   
    67   31   32 1   
    68   31   71 1   
    69   31   72 1   
    70   32   33 1   
    71   32   73 1   
    72   32   74 1   
    73   33   75 1   
    74   33   76 1   
    75   33   77 1   
    76   34   35 1   
    77   34   39 1   
    78   34   78 1   
    79   35   36 1   
    80   35   79 1   
    81   35   80 1   
    82   36   37 1   
    83   36   81 1   
    84   36   82 1   
    85   37   38 1   
    86   37   83 1   
    87   37   84 1   
    88   38   39 1   
    89   38   85 1   
    90   38   86 1   
    91   39   87 1   
    92   39   88 1   
@<TRIPOS>SUBSTRUCTURE
     1 BDW         1 TEMP              0 ****  ****    0 ROOT
