@<TRIPOS>MOLECULE
BDW
   88    89     1     0     0
SMALL
bcc


@<TRIPOS>ATOM
      1 C1         -1.1490   -1.7490   -2.9340 c3        1 BDW      0.013000
      2 N1          0.2870   -1.8580   -2.9750 n3        1 BDW     -0.291000
      3 O1         -2.5830   -1.4950   -0.9830 o         1 BDW     -0.323000
      4 C2          0.7880   -1.6020   -1.6550 c2        1 BDW      0.171000
      5 N2         -0.2620   -1.7510   -0.7610 n         1 BDW     -0.295000
      6 O2          3.3290   -0.5610    4.6450 o         1 BDW     -0.349000
      7 C3         -1.4600   -1.6040   -1.4740 c2        1 BDW      0.301000
      8 N3          2.0550   -1.2750   -1.3390 n1        1 BDW     -0.297000
      9 C4         -1.9060   -2.9790   -3.6390 c3        1 BDW     -0.135000
     10 N4          3.3900    1.8220    4.6420 n         1 BDW     -0.281000
     11 C5         -1.6610   -0.5530   -3.7490 c3        1 BDW     -0.173000
     12 N5          4.1000    0.6720    6.5580 n         1 BDW     -0.318000
     13 C6         -3.2460   -2.9340   -3.3330 c3        1 BDW     -0.112000
     14 C7         -0.1410   -2.0550    0.6440 c3        1 BDW      0.035000
     15 C8          0.6730   -0.9700    1.3280 c2        1 BDW     -0.111000
     16 C9          2.0560   -1.1120    1.4550 c2        1 BDW     -0.104000
     17 C10         2.7970   -0.1440    2.1260 c1        1 BDW     -0.119000
     18 C11         2.1610    0.9650    2.6710 c1        1 BDW     -0.119000
     19 C12         0.7790    1.1060    2.5430 c1        1 BDW     -0.129000
     20 C13         0.0380    0.1340    1.8700 c1        1 BDW     -0.121000
     21 C14        -3.7470   -4.2830   -2.6530 c3        1 BDW     -0.150000
     22 C15        -3.4440   -5.5270   -3.4950 c3        1 BDW     -0.155000
     23 C16        -3.2050   -5.2080   -4.7860 c3        1 BDW     -0.153000
     24 C17        -3.8670   -4.2660   -5.4940 c3        1 BDW     -0.155000
     25 C18        -4.1690   -3.0340   -4.6450 c3        1 BDW     -0.150000
     26 C19        -1.2740    0.7870   -3.0130 c3        1 BDW     -0.165000
     27 C22         2.9960    2.1220    3.2240 c3        1 BDW     -0.003000
     28 C23         3.5380    2.7800    5.6910 c3        1 BDW     -0.077000
     29 C24         4.0450    2.0390    6.8850 c3        1 BDW     -0.027000
     30 C25         3.5660    0.5120    5.2100 c2        1 BDW      0.335000
     31 C26         5.4380    2.5390    7.2490 c3        1 BDW     -0.180000
     32 C27         5.8290    2.0080    8.6840 c3        1 BDW     -0.160000
     33 C28         7.3400    2.1500    8.8830 c3        1 BDW     -0.212000
     34 C29        -2.2340    1.9270   -3.4650 c3        1 BDW     -0.099000
     35 C30        -3.2240    2.2220   -2.3370 c3        1 BDW     -0.153000
     36 C31        -4.0830    3.4390   -2.6220 c3        1 BDW     -0.155000
     37 C32        -3.2630    4.6490   -3.0030 c3        1 BDW     -0.156000
     38 C33        -2.2830    4.3540   -4.1260 c3        1 BDW     -0.155000
     39 C34        -1.4190    3.1220   -3.8380 c3        1 BDW     -0.153000
     40 HN1         0.7990   -1.9670   -3.7360 hn        1 BDW      0.192000
     41 HN3         2.6840   -1.1980   -1.9950 DU        1 BDW      0.164000
     42 H4         -1.7890   -2.9180   -4.6180 hc        1 BDW      0.099500
     43 H4A        -1.5260   -3.8220   -3.3170 hc        1 BDW      0.099500
     44 H5         -1.2460   -0.5660   -4.6600 hc        1 BDW      0.107000
     45 H5A        -2.6410   -0.6100   -3.8330 hc        1 BDW      0.107000
     46 HN5         4.3790   -0.0120    7.1180 hn        1 BDW      0.219000
     47 H6         -3.4720   -2.1480   -2.7900 hc        1 BDW      0.114000
     48 H7          0.3100   -2.9250    0.7550 h1        1 BDW      0.118000
     49 H7A        -1.0370   -2.0960    1.0500 h1        1 BDW      0.118000
     50 H9          2.5130   -1.9030    1.0660 ha        1 BDW      0.151000
     51 H10         3.7700   -0.2450    2.2140 ha        1 BDW      0.155000
     52 H12         0.3250    1.8930    2.9290 ha        1 BDW      0.131000
     53 H13        -0.9360    0.2330    1.7810 ha        1 BDW      0.149000
     54 H14        -3.3130   -4.3790   -1.7920 hc        1 BDW      0.079250
     55 H14A       -4.7320   -4.2250   -2.5120 hc        1 BDW      0.079250
     56 H15        -2.6530   -5.9780   -3.1260 hc        1 BDW      0.078500
     57 H15A       -4.2140   -6.1420   -3.4530 hc        1 BDW      0.078500
     58 H16        -2.2570   -4.9580   -4.8280 hc        1 BDW      0.077000
     59 H16A       -3.3020   -6.0480   -5.2960 hc        1 BDW      0.077000
     60 H17        -3.3200   -3.9990   -6.2590 hc        1 BDW      0.078500
     61 H17A       -4.7270   -4.6530   -5.8290 hc        1 BDW      0.078500
     62 H18        -4.0310   -2.2450   -5.1820 hc        1 BDW      0.079250
     63 H18A       -5.0980   -3.0650   -4.3700 hc        1 BDW      0.079250
     64 H19        -0.3410    1.0300   -3.2410 hc        1 BDW      0.084000
     65 H19A       -1.3510    0.6620   -2.0520 hc        1 BDW      0.084000
     66 H22         2.4730    2.9410    3.1990 h1        1 BDW      0.113500
     67 H22A        3.7950    2.2320    2.6810 h1        1 BDW      0.113500
     68 H23         2.6200    3.0930    5.9200 h1        1 BDW      0.100000
     69 H23A        4.2670    3.4030    5.4090 h1        1 BDW      0.100000
     70 H24         3.4360    2.1760    7.6430 h1        1 BDW      0.115000
     71 H26         5.4430    3.5100    7.2510 hc        1 BDW      0.093500
     72 H26A        6.0740    2.2170    6.6030 hc        1 BDW      0.093500
     73 H27         5.5710    1.0570    8.7660 hc        1 BDW      0.082000
     74 H27A        5.3650    2.5270    9.3580 hc        1 BDW      0.082000
     75 H28         7.5930    1.7730    9.7560 hc        1 BDW      0.075667
     76 H28A        7.5870    3.0990    8.8540 hc        1 BDW      0.075667
     77 H28B        7.8080    1.6710    8.1720 hc        1 BDW      0.075667
     78 H29        -2.7320    1.6260   -4.2520 hc        1 BDW      0.087000
     79 H30        -2.7290    2.3710   -1.5130 hc        1 BDW      0.081500
     80 H30A       -3.8110    1.4410   -2.2200 hc        1 BDW      0.081500
     81 H31        -4.6950    3.2290   -3.3560 hc        1 BDW      0.079000
     82 H31A       -4.6120    3.6530   -1.8160 hc        1 BDW      0.079000
     83 H32        -3.8730    5.3650   -3.2940 hc        1 BDW      0.079000
     84 H32A       -2.7610    4.9580   -2.2110 hc        1 BDW      0.079000
     85 H33        -2.7940    4.1970   -4.9620 hc        1 BDW      0.079000
     86 H33A       -1.7070    5.1220   -4.2510 hc        1 BDW      0.079000
     87 H34        -0.8070    3.3290   -3.1020 hc        1 BDW      0.081500
     88 H34A       -0.8900    2.9060   -4.6430 hc        1 BDW      0.081500
@<TRIPOS>BOND
     1    1    2 1   
     2    1    7 1   
     3    1    9 1   
     4    1   11 1   
     5    2    4 1   
     6    2   40 1   
     7    3    7 1   
     8    4    5 1   
     9    4    8 1   
    10    5    7 1   
    11    5   14 1   
    12    6   30 1   
    13    9   13 1   
    14    9   42 1   
    15    9   43 1   
    16   10   27 1   
    17   10   28 1   
    18   10   30 1   
    19   11   26 1   
    20   11   44 1   
    21   11   45 1   
    22   12   29 1   
    23   12   30 1   
    24   12   46 1   
    25   13   21 1   
    26   13   25 1   
    27   13   47 1   
    28   14   15 1   
    29   14   48 1   
    30   14   49 1   
    31   15   16 1   
    32   15   20 1   
    33   16   17 1   
    34   16   50 1   
    35   17   51 1   
    36   18   19 1   
    37   18   27 1   
    38   19   52 1   
    39   20   53 1   
    40   21   22 1   
    41   21   54 1   
    42   21   55 1   
    43   22   23 1   
    44   22   56 1   
    45   22   57 1   
    46   23   24 1   
    47   23   58 1   
    48   23   59 1   
    49   24   25 1   
    50   24   60 1   
    51   24   61 1   
    52   25   62 1   
    53   25   63 1   
    54   26   34 1   
    55   26   64 1   
    56   26   65 1   
    57   27   66 1   
    58   27   67 1   
    59   28   29 1   
    60   28   68 1   
    61   28   69 1   
    62   29   31 1   
    63   29   70 1   
    64   31   32 1   
    65   31   71 1   
    66   31   72 1   
    67   32   33 1   
    68   32   73 1   
    69   32   74 1   
    70   33   75 1   
    71   33   76 1   
    72   33   77 1   
    73   34   35 1   
    74   34   39 1   
    75   34   78 1   
    76   35   36 1   
    77   35   79 1   
    78   35   80 1   
    79   36   37 1   
    80   36   81 1   
    81   36   82 1   
    82   37   38 1   
    83   37   83 1   
    84   37   84 1   
    85   38   39 1   
    86   38   85 1   
    87   38   86 1   
    88   39   87 1   
    89   39   88 1   
@<TRIPOS>SUBSTRUCTURE
     1 BDW         1 TEMP              0 ****  ****    0 ROOT
