@<TRIPOS>MOLECULE
BDX
   56    58     1     0     0
SMALL
bcc


@<TRIPOS>ATOM
      1 C1         -0.2880   -0.2380   -0.2860 c2        1 BDX      0.622800
      2 N1          1.1580   -0.2250   -0.3570 n         1 BDX     -0.460300
      3 O1          2.9130   -0.0220    1.1850 o         1 BDX     -0.593500
      4 C2          1.7080   -0.0790    0.9250 c         1 BDX      0.701500
      5 N2         -0.6910   -0.0040    1.0880 nu        1 BDX     -0.756200
      6 C3          0.5230   -0.0290    1.9360 c3        1 BDX      0.116200
      7 N3         -1.1400   -0.3950   -1.2540 n2        1 BDX     -0.827100
      8 C4          0.6200   -1.2420    2.8780 c3        1 BDX     -0.097400
      9 C5          0.7020    2.5480    2.0260 c3        1 BDX     -0.061700
     10 C6         -0.3190    3.5440    2.5630 c3        1 BDX     -0.076400
     11 C7         -0.2470    4.8580    1.8120 c3        1 BDX     -0.075400
     12 C8          1.1480    5.4460    1.8540 c3        1 BDX     -0.077400
     13 C9          2.1750    4.4570    1.3430 c3        1 BDX     -0.075400
     14 C10         2.1020    3.1480    2.1000 c3        1 BDX     -0.076400
     15 C11         0.6360    1.2400    2.8030 c3        1 BDX     -0.055400
     16 C12         0.5020   -2.5790    2.1810 c3        1 BDX     -0.085400
     17 C13         0.7350   -3.7370    3.1430 c3        1 BDX     -0.060700
     18 C14         0.1460   -5.0180    2.5660 c3        1 BDX     -0.074400
     19 C15         0.3780   -6.1950    3.4900 c3        1 BDX     -0.076400
     20 C16         1.8500   -6.3740    3.8000 c3        1 BDX     -0.077400
     21 C17         2.4490   -5.1010    4.3610 c3        1 BDX     -0.076400
     22 C18         2.2180   -3.9270    3.4320 c3        1 BDX     -0.074400
     23 C19         1.8780   -0.1560   -1.5840 c3        1 BDX      0.086300
     24 HN2        -1.4150   -0.6200    1.3990 hn        1 BDX      0.414800
     25 HN3        -0.7440   -0.4720   -2.1660 hn        1 BDX      0.402400
     26 H4          1.6130   -1.1800    3.3990 hc        1 BDX      0.065200
     27 H4A        -0.1810   -1.1530    3.6600 hc        1 BDX      0.065200
     28 H5          0.4630    2.3640    0.9420 hc        1 BDX      0.059700
     29 H6         -0.1280    3.7230    3.6530 hc        1 BDX      0.043950
     30 H6A        -1.3490    3.1120    2.4630 hc        1 BDX      0.043950
     31 H7         -0.9750    5.5830    2.2600 hc        1 BDX      0.039200
     32 H7A        -0.5510    4.6930    0.7440 hc        1 BDX      0.039200
     33 H8          1.1810    6.3790    1.2330 hc        1 BDX      0.038200
     34 H8A         1.3990    5.7340    2.9090 hc        1 BDX      0.038200
     35 H9          3.2030    4.8930    1.4500 hc        1 BDX      0.039200
     36 H9A         2.0020    4.2690    0.2510 hc        1 BDX      0.039200
     37 H10         2.8410    2.4180    1.6750 hc        1 BDX      0.043950
     38 H10A        2.3780    3.3220    3.1740 hc        1 BDX      0.043950
     39 H11        -0.2420    1.2550    3.5020 hc        1 BDX      0.057700
     40 H11A        1.5630    1.1220    3.4260 hc        1 BDX      0.057700
     41 H12         1.2460   -2.6370    1.3420 hc        1 BDX      0.045200
     42 H12A       -0.5200   -2.6880    1.7300 hc        1 BDX      0.045200
     43 H13         0.2090   -3.5130    4.1130 hc        1 BDX      0.047700
     44 H14        -0.9550   -4.8850    2.4010 hc        1 BDX      0.041950
     45 H14A        0.6150   -5.2240    1.5680 hc        1 BDX      0.041950
     46 H15        -0.1880   -6.0370    4.4460 hc        1 BDX      0.039700
     47 H15A       -0.0220   -7.1280    3.0140 hc        1 BDX      0.039700
     48 H16         2.3960   -6.6630    2.8640 hc        1 BDX      0.040200
     49 H16A        1.9810   -7.2080    4.5380 hc        1 BDX      0.040200
     50 H17         3.5500   -5.2410    4.5170 hc        1 BDX      0.039700
     51 H17A        1.9920   -4.8820    5.3620 hc        1 BDX      0.039700
     52 H18         2.6350   -2.9960    3.8960 hc        1 BDX      0.041950
     53 H18A        2.7660   -4.0980    2.4680 hc        1 BDX      0.041950
     54 H19         1.5670    0.7450   -2.1800 h1        1 BDX      0.051367
     55 H19A        2.9760   -0.0890   -1.3600 h1        1 BDX      0.051367
     56 H19B        1.6820   -1.0770   -2.1960 h1        1 BDX      0.051367
@<TRIPOS>BOND
     1    1    2 1   
     2    1    5 1   
     3    1    7 2   
     4    2    4 1   
     5    2   23 1   
     6    3    4 2   
     7    4    6 1   
     8    5    6 1   
     9    5   24 1   
    10    6    8 1   
    11    6   15 1   
    12    7   25 1   
    13    8   16 1   
    14    8   26 1   
    15    8   27 1   
    16    9   10 1   
    17    9   14 1   
    18    9   15 1   
    19    9   28 1   
    20   10   11 1   
    21   10   29 1   
    22   10   30 1   
    23   11   12 1   
    24   11   31 1   
    25   11   32 1   
    26   12   13 1   
    27   12   33 1   
    28   12   34 1   
    29   13   14 1   
    30   13   35 1   
    31   13   36 1   
    32   14   37 1   
    33   14   38 1   
    34   15   39 1   
    35   15   40 1   
    36   16   17 1   
    37   16   41 1   
    38   16   42 1   
    39   17   18 1   
    40   17   22 1   
    41   17   43 1   
    42   18   19 1   
    43   18   44 1   
    44   18   45 1   
    45   19   20 1   
    46   19   46 1   
    47   19   47 1   
    48   20   21 1   
    49   20   48 1   
    50   20   49 1   
    51   21   22 1   
    52   21   50 1   
    53   21   51 1   
    54   22   52 1   
    55   22   53 1   
    56   23   54 1   
    57   23   55 1   
    58   23   56 1   
@<TRIPOS>SUBSTRUCTURE
     1 BDX         1 TEMP              0 ****  ****    0 ROOT
