@<TRIPOS>MOLECULE
BDX
   56    58     1     0     0
SMALL
bcc


@<TRIPOS>ATOM
      1 C1         -0.2950   -0.2510   -0.2840 c2        1 BDX      0.622800
      2 N1          1.1520   -0.2450   -0.3590 n         1 BDX     -0.460300
      3 O1          2.9120   -0.0380    1.1750 o         1 BDX     -0.593500
      4 C2          1.7060   -0.0920    0.9190 c         1 BDX      0.701500
      5 N2         -0.6920   -0.0040    1.0890 nh        1 BDX     -0.756200
      6 C3          0.5250   -0.0280    1.9340 c3        1 BDX      0.116200
      7 N3         -1.1500   -0.4120   -1.2480 n2        1 BDX     -0.827100
      8 C4          0.6190   -1.2330    2.8860 c3        1 BDX     -0.097400
      9 C5          0.7170    2.5490    2.0020 c3        1 BDX     -0.061700
     10 C6         -0.2980    3.5540    2.5330 c3        1 BDX     -0.076400
     11 C7         -0.2230    4.8610    1.7710 c3        1 BDX     -0.075400
     12 C8          1.1750    5.4440    1.8040 c3        1 BDX     -0.077400
     13 C9          2.1970    4.4460    1.2990 c3        1 BDX     -0.075400
     14 C10         2.1200    3.1430    2.0670 c3        1 BDX     -0.076400
     15 C11         0.6470    1.2480    2.7900 c3        1 BDX     -0.055400
     16 C12         0.4920   -2.5760    2.2000 c3        1 BDX     -0.085400
     17 C13         0.7240   -3.7260    3.1700 c3        1 BDX     -0.060700
     18 C14         0.1260   -5.0100    2.6070 c3        1 BDX     -0.074400
     19 C15         0.3570   -6.1800    3.5400 c3        1 BDX     -0.076400
     20 C16         1.8290   -6.3630    3.8450 c3        1 BDX     -0.077400
     21 C17         2.4370   -5.0880    4.3930 c3        1 BDX     -0.076400
     22 C18         2.2070   -3.9210    3.4540 c3        1 BDX     -0.074400
     23 C19         1.8670   -0.1900   -1.5890 c3        1 BDX      0.086300
     24 HN2        -1.4170   -0.6130    1.4080 hn        1 BDX      0.414800
     25 HN3        -0.7580   -0.4990   -2.1600 hn        1 BDX      0.402400
     26 H4          1.6150   -1.1710    3.4020 hc        1 BDX      0.065200
     27 H4A        -0.1780   -1.1340    3.6690 hc        1 BDX      0.065200
     28 H5          0.4730    2.3570    0.9190 hc        1 BDX      0.059700
     29 H6         -1.3300    3.1260    2.4390 hc        1 BDX      0.043950
     30 H6A        -0.1030    3.7420    3.6210 hc        1 BDX      0.043950
     31 H7         -0.5300    4.6890    0.7060 hc        1 BDX      0.039200
     32 H7A        -0.9460    5.5940    2.2160 hc        1 BDX      0.039200
     33 H8          1.4310    5.7400    2.8550 hc        1 BDX      0.038200
     34 H8A         1.2110    6.3710    1.1750 hc        1 BDX      0.038200
     35 H9          3.2260    4.8780    1.3990 hc        1 BDX      0.039200
     36 H9A         2.0190    4.2490    0.2090 hc        1 BDX      0.039200
     37 H10         2.8540    2.4060    1.6450 hc        1 BDX      0.043950
     38 H10A        2.4000    3.3250    3.1380 hc        1 BDX      0.043950
     39 H11        -0.2290    1.2730    3.4910 hc        1 BDX      0.057700
     40 H11A        1.5750    1.1310    3.4110 hc        1 BDX      0.057700
     41 H12        -0.5320   -2.6830    1.7540 hc        1 BDX      0.045200
     42 H12A        1.2320   -2.6430    1.3580 hc        1 BDX      0.045200
     43 H13         0.2030   -3.4910    4.1410 hc        1 BDX      0.047700
     44 H14         0.5900   -5.2260    1.6090 hc        1 BDX      0.041950
     45 H14A       -0.9750   -4.8720    2.4460 hc        1 BDX      0.041950
     46 H15        -0.2040   -6.0100    4.4970 hc        1 BDX      0.039700
     47 H15A       -0.0500   -7.1150    3.0730 hc        1 BDX      0.039700
     48 H16         1.9590   -7.1920    4.5890 hc        1 BDX      0.040200
     49 H16A        2.3700   -6.6630    2.9090 hc        1 BDX      0.040200
     50 H17         3.5380   -5.2320    4.5450 hc        1 BDX      0.039700
     51 H17A        1.9850   -4.8590    5.3930 hc        1 BDX      0.039700
     52 H18         2.7500   -4.1030    2.4900 hc        1 BDX      0.041950
     53 H18A        2.6310   -2.9890    3.9090 hc        1 BDX      0.041950
     54 H19         1.5590    0.7070   -2.1920 h1        1 BDX      0.051367
     55 H19A        1.6660   -1.1160   -2.1940 h1        1 BDX      0.051367
     56 H19B        2.9670   -0.1260   -1.3690 h1        1 BDX      0.051367
@<TRIPOS>BOND
     1    1    2 1   
     2    1    5 1   
     3    1    7 2   
     4    2    4 1   
     5    2   23 1   
     6    3    4 2   
     7    4    6 1   
     8    5    6 1   
     9    5   24 1   
    10    6    8 1   
    11    6   15 1   
    12    7   25 1   
    13    8   16 1   
    14    8   26 1   
    15    8   27 1   
    16    9   10 1   
    17    9   14 1   
    18    9   15 1   
    19    9   28 1   
    20   10   11 1   
    21   10   29 1   
    22   10   30 1   
    23   11   12 1   
    24   11   31 1   
    25   11   32 1   
    26   12   13 1   
    27   12   33 1   
    28   12   34 1   
    29   13   14 1   
    30   13   35 1   
    31   13   36 1   
    32   14   37 1   
    33   14   38 1   
    34   15   39 1   
    35   15   40 1   
    36   16   17 1   
    37   16   41 1   
    38   16   42 1   
    39   17   18 1   
    40   17   22 1   
    41   17   43 1   
    42   18   19 1   
    43   18   44 1   
    44   18   45 1   
    45   19   20 1   
    46   19   46 1   
    47   19   47 1   
    48   20   21 1   
    49   20   48 1   
    50   20   49 1   
    51   21   22 1   
    52   21   50 1   
    53   21   51 1   
    54   22   52 1   
    55   22   53 1   
    56   23   54 1   
    57   23   55 1   
    58   23   56 1   
@<TRIPOS>SUBSTRUCTURE
     1 BDX         1 TEMP              0 ****  ****    0 ROOT
