@<TRIPOS>MOLECULE
BDX
   56    58     1     0     0
SMALL
bcc


@<TRIPOS>ATOM
      1 C1         -0.8210   -2.0990    1.1300 c2        1 BDX      0.611800
      2 N1         -0.6880   -2.1060   -0.3020 n         1 BDX     -0.410300
      3 O1         -0.3660   -0.4840   -1.9610 o         1 BDX     -0.591500
      4 C2         -0.4760   -0.8010   -0.7740 c         1 BDX      0.695500
      5 N2         -0.6490   -0.7340    1.6240 nh        1 BDX     -0.799200
      6 C3         -0.3750    0.1420    0.4630 c3        1 BDX      0.114200
      7 N3         -1.1090   -3.1700    1.8080 n2        1 BDX     -0.826100
      8 C4          1.0160    0.8000    0.4730 c3        1 BDX     -0.095400
      9 C5         -2.8570    0.8050    0.1660 c3        1 BDX     -0.062700
     10 C6         -3.7780    1.5390    1.1330 c3        1 BDX     -0.076400
     11 C7         -5.2170    1.1000    0.9580 c3        1 BDX     -0.075900
     12 C8         -5.6850    1.2870   -0.4700 c3        1 BDX     -0.077400
     13 C9         -4.7650    0.5810   -1.4450 c3        1 BDX     -0.075900
     14 C10        -3.3290    1.0280   -1.2670 c3        1 BDX     -0.076400
     15 C11        -1.4180    1.2700    0.3380 c3        1 BDX     -0.054400
     16 C12         2.1630   -0.1770    0.6110 c3        1 BDX     -0.084400
     17 C13         3.5100    0.5110    0.4340 c3        1 BDX     -0.060700
     18 C14         4.6130   -0.3350    1.0580 c3        1 BDX     -0.073900
     19 C15         5.9700    0.3130    0.8810 c3        1 BDX     -0.076400
     20 C16         6.2670    0.5870   -0.5790 c3        1 BDX     -0.077400
     21 C17         5.1690    1.4150   -1.2130 c3        1 BDX     -0.076400
     22 C18         3.8140    0.7610   -1.0370 c3        1 BDX     -0.073900
     23 C19        -1.0180   -3.2380   -1.1080 c3        1 BDX      0.099300
     24 HN2         0.0570   -0.6690    2.3300 hn        1 BDX      0.395800
     25 HN3        -1.1670   -3.0430    2.7960 hn        1 BDX      0.406400
     26 H4          1.1220    1.3630   -0.4940 hc        1 BDX      0.065200
     27 H4A         1.0540    1.5470    1.3090 hc        1 BDX      0.065200
     28 H5         -2.9360   -0.2960    0.3880 hc        1 BDX      0.059700
     29 H6         -3.4510    1.3360    2.1860 hc        1 BDX      0.043450
     30 H6A        -3.6980    2.6440    0.9590 hc        1 BDX      0.043450
     31 H7         -5.3140    0.0190    1.2440 hc        1 BDX      0.039700
     32 H7A        -5.8740    1.6910    1.6490 hc        1 BDX      0.039700
     33 H8         -6.7270    0.8890   -0.5800 hc        1 BDX      0.037700
     34 H8A        -5.7150    2.3820   -0.7130 hc        1 BDX      0.037700
     35 H9         -4.8340   -0.5280   -1.2880 hc        1 BDX      0.039700
     36 H9A        -5.0940    0.7930   -2.4950 hc        1 BDX      0.039700
     37 H10        -3.2430    2.1160   -1.5240 hc        1 BDX      0.043450
     38 H10A       -2.6620    0.4610   -1.9700 hc        1 BDX      0.043450
     39 H11        -1.3330    1.9140    1.2540 hc        1 BDX      0.057200
     40 H11A       -1.1150    1.8950   -0.5450 hc        1 BDX      0.057200
     41 H12         2.1380   -0.6570    1.6250 hc        1 BDX      0.044200
     42 H12A        2.0590   -0.9960   -0.1500 hc        1 BDX      0.044200
     43 H13         3.4830    1.5030    0.9660 hc        1 BDX      0.047700
     44 H14         4.4060   -0.4750    2.1510 hc        1 BDX      0.041950
     45 H14A        4.6140   -1.3510    0.5810 hc        1 BDX      0.041950
     46 H15         6.0020    1.2760    1.4550 hc        1 BDX      0.039700
     47 H15A        6.7610   -0.3580    1.3060 hc        1 BDX      0.039700
     48 H16         7.2450    1.1260   -0.6690 hc        1 BDX      0.040200
     49 H16A        6.3660   -0.3860   -1.1290 hc        1 BDX      0.040200
     50 H17         5.1550    2.4360   -0.7490 hc        1 BDX      0.039700
     51 H17A        5.3800    1.5450   -2.3070 hc        1 BDX      0.039700
     52 H18         3.7920   -0.2130   -1.5930 hc        1 BDX      0.041950
     53 H18A        3.0220    1.4190   -1.4800 hc        1 BDX      0.041950
     54 H19        -0.3610   -4.1040   -0.8270 h1        1 BDX      0.055367
     55 H19A       -2.0900   -3.5380   -0.9550 h1        1 BDX      0.055367
     56 H19B       -0.8530   -2.9700   -2.1860 h1        1 BDX      0.055367
@<TRIPOS>BOND
     1    1    2 1   
     2    1    5 1   
     3    1    7 2   
     4    2    4 1   
     5    2   23 1   
     6    3    4 2   
     7    4    6 1   
     8    5    6 1   
     9    5   24 1   
    10    6    8 1   
    11    6   15 1   
    12    7   25 1   
    13    8   16 1   
    14    8   26 1   
    15    8   27 1   
    16    9   10 1   
    17    9   14 1   
    18    9   15 1   
    19    9   28 1   
    20   10   11 1   
    21   10   29 1   
    22   10   30 1   
    23   11   12 1   
    24   11   31 1   
    25   11   32 1   
    26   12   13 1   
    27   12   33 1   
    28   12   34 1   
    29   13   14 1   
    30   13   35 1   
    31   13   36 1   
    32   14   37 1   
    33   14   38 1   
    34   15   39 1   
    35   15   40 1   
    36   16   17 1   
    37   16   41 1   
    38   16   42 1   
    39   17   18 1   
    40   17   22 1   
    41   17   43 1   
    42   18   19 1   
    43   18   44 1   
    44   18   45 1   
    45   19   20 1   
    46   19   46 1   
    47   19   47 1   
    48   20   21 1   
    49   20   48 1   
    50   20   49 1   
    51   21   22 1   
    52   21   50 1   
    53   21   51 1   
    54   22   52 1   
    55   22   53 1   
    56   23   54 1   
    57   23   55 1   
    58   23   56 1   
@<TRIPOS>SUBSTRUCTURE
     1 BDX         1 TEMP              0 ****  ****    0 ROOT
