@<TRIPOS>MOLECULE
BDX
   56    58     1     0     0
SMALL
bcc


@<TRIPOS>ATOM
      1 C1         -0.3150   -0.2410   -0.2730 c2        1 BDX      0.622800
      2 N1          1.1310   -0.2340   -0.3600 n         1 BDX     -0.460300
      3 O1          2.9050   -0.0340    1.1600 o         1 BDX     -0.593500
      4 C2          1.6960   -0.0870    0.9140 c         1 BDX      0.701500
      5 N2         -0.7000    0.0000    1.1060 nh        1 BDX     -0.756200
      6 C3          0.5240   -0.0280    1.9390 c3        1 BDX      0.116200
      7 N3         -1.1780   -0.3970   -1.2290 n2        1 BDX     -0.827100
      8 C4          0.6260   -1.2380    2.8850 c3        1 BDX     -0.097400
      9 C5          0.7160    2.5490    2.0180 c3        1 BDX     -0.061700
     10 C6         -0.2930    3.5520    2.5650 c3        1 BDX     -0.076400
     11 C7         -0.2250    4.8630    1.8080 c3        1 BDX     -0.075400
     12 C8          1.1740    5.4440    1.8290 c3        1 BDX     -0.077400
     13 C9          2.1900    4.4480    1.3080 c3        1 BDX     -0.075400
     14 C10         2.1200    3.1420    2.0710 c3        1 BDX     -0.076400
     15 C11         0.6530    1.2440    2.8000 c3        1 BDX     -0.055400
     16 C12         0.4960   -2.5770    2.1930 c3        1 BDX     -0.085400
     17 C13         0.7330   -3.7320    3.1570 c3        1 BDX     -0.060700
     18 C14         0.1340   -5.0130    2.5910 c3        1 BDX     -0.074400
     19 C15         0.3700   -6.1880    3.5170 c3        1 BDX     -0.076400
     20 C16         1.8440   -6.3710    3.8130 c3        1 BDX     -0.077400
     21 C17         2.4540   -5.0990    4.3630 c3        1 BDX     -0.076400
     22 C18         2.2180   -3.9270    3.4320 c3        1 BDX     -0.074400
     23 C19         1.8360   -0.1730   -1.5960 c3        1 BDX      0.086300
     24 HN2        -1.4230   -0.6110    1.4270 hn        1 BDX      0.414800
     25 HN3        -0.7940   -0.4800   -2.1460 hn        1 BDX      0.402400
     26 H4         -0.1650   -1.1420    3.6750 hc        1 BDX      0.065200
     27 H4A         1.6260   -1.1770    3.3940 hc        1 BDX      0.065200
     28 H5          0.4610    2.3630    0.9370 hc        1 BDX      0.059700
     29 H6         -0.0860    3.7350    3.6520 hc        1 BDX      0.043950
     30 H6A        -1.3260    3.1250    2.4800 hc        1 BDX      0.043950
     31 H7         -0.5430    4.6970    0.7460 hc        1 BDX      0.039200
     32 H7A        -0.9420    5.5940    2.2640 hc        1 BDX      0.039200
     33 H8          1.2040    6.3750    1.2050 hc        1 BDX      0.038200
     34 H8A         1.4420    5.7350    2.8790 hc        1 BDX      0.038200
     35 H9          2.0000    4.2570    0.2190 hc        1 BDX      0.039200
     36 H9A         3.2210    4.8790    1.4000 hc        1 BDX      0.039200
     37 H10         2.8490    2.4070    1.6380 hc        1 BDX      0.043950
     38 H10A        2.4110    3.3180    3.1400 hc        1 BDX      0.043950
     39 H11         1.5870    1.1250    3.4130 hc        1 BDX      0.057700
     40 H11A       -0.2170    1.2660    3.5090 hc        1 BDX      0.057700
     41 H12        -0.5310   -2.6830    1.7530 hc        1 BDX      0.045200
     42 H12A        1.2310   -2.6400    1.3470 hc        1 BDX      0.045200
     43 H13         0.2180   -3.5020    4.1320 hc        1 BDX      0.047700
     44 H14         0.5920   -5.2240    1.5890 hc        1 BDX      0.041950
     45 H14A       -0.9680   -4.8750    2.4360 hc        1 BDX      0.041950
     46 H15        -0.1860   -6.0230    4.4780 hc        1 BDX      0.039700
     47 H15A       -0.0380   -7.1200    3.0470 hc        1 BDX      0.039700
     48 H16         1.9780   -7.2040    4.5520 hc        1 BDX      0.040200
     49 H16A        2.3800   -6.6660    2.8730 hc        1 BDX      0.040200
     50 H17         2.0070   -4.8750    5.3680 hc        1 BDX      0.039700
     51 H17A        3.5560   -5.2420    4.5100 hc        1 BDX      0.039700
     52 H18         2.7560   -4.1040    2.4640 hc        1 BDX      0.041950
     53 H18A        2.6440   -2.9960    3.8890 hc        1 BDX      0.041950
     54 H19         1.5220    0.7270   -2.1920 h1        1 BDX      0.051367
     55 H19A        1.6290   -1.0960   -2.2030 h1        1 BDX      0.051367
     56 H19B        2.9380   -0.1100   -1.3850 h1        1 BDX      0.051367
@<TRIPOS>BOND
     1    1    2 1   
     2    1    5 1   
     3    1    7 2   
     4    2    4 1   
     5    2   23 1   
     6    3    4 2   
     7    4    6 1   
     8    5    6 1   
     9    5   24 1   
    10    6    8 1   
    11    6   15 1   
    12    7   25 1   
    13    8   16 1   
    14    8   26 1   
    15    8   27 1   
    16    9   10 1   
    17    9   14 1   
    18    9   15 1   
    19    9   28 1   
    20   10   11 1   
    21   10   29 1   
    22   10   30 1   
    23   11   12 1   
    24   11   31 1   
    25   11   32 1   
    26   12   13 1   
    27   12   33 1   
    28   12   34 1   
    29   13   14 1   
    30   13   35 1   
    31   13   36 1   
    32   14   37 1   
    33   14   38 1   
    34   15   39 1   
    35   15   40 1   
    36   16   17 1   
    37   16   41 1   
    38   16   42 1   
    39   17   18 1   
    40   17   22 1   
    41   17   43 1   
    42   18   19 1   
    43   18   44 1   
    44   18   45 1   
    45   19   20 1   
    46   19   46 1   
    47   19   47 1   
    48   20   21 1   
    49   20   48 1   
    50   20   49 1   
    51   21   22 1   
    52   21   50 1   
    53   21   51 1   
    54   22   52 1   
    55   22   53 1   
    56   23   54 1   
    57   23   55 1   
    58   23   56 1   
@<TRIPOS>SUBSTRUCTURE
     1 BDX         1 TEMP              0 ****  ****    0 ROOT
