@<TRIPOS>MOLECULE
BDX
   56    56     1     0     0
SMALL
bcc


@<TRIPOS>ATOM
      1 C1         -0.3060    0.8040   -2.6780 c1        1 BDX      0.557600
      2 N1          1.0750    0.4950   -2.7010 n2        1 BDX     -0.474200
      3 O1          2.6330    0.0680   -1.0120 o         1 BDX     -0.581300
      4 C2          1.4940    0.2830   -1.3750 c2        1 BDX      0.622300
      5 N2         -0.8110    0.4700   -1.3840 n3        1 BDX     -0.659800
      6 C3          0.2900    0.4240   -0.4780 c3        1 BDX      0.116200
      7 N3         -0.9970    1.3060   -3.6670 n1        1 BDX     -0.621800
      8 C4          0.1760   -0.6670    0.5650 c3        1 BDX     -0.098400
      9 C5          0.4340    2.9020   -0.5120 c3        1 BDX     -0.050700
     10 C6         -0.8280    3.7190   -0.3130 c3        1 BDX     -0.075400
     11 C7         -0.8940    4.3560    1.0580 c3        1 BDX     -0.076400
     12 C8          0.3620    5.1380    1.3960 c3        1 BDX     -0.076400
     13 C9          1.6240    4.3210    1.1970 c3        1 BDX     -0.076400
     14 C10         1.6920    3.6840   -0.1740 c3        1 BDX     -0.075400
     15 C11         0.3670    1.6640    0.3820 c3        1 BDX     -0.057400
     16 C12        -0.6200   -1.8220    0.0000 c3        1 BDX     -0.084400
     17 C13        -0.4810   -2.8950    0.8000 c3        1 BDX     -0.060700
     18 C14        -1.8210   -3.2240    1.5890 c3        1 BDX     -0.072900
     19 C15        -1.7020   -4.4510    2.4800 c3        1 BDX     -0.074900
     20 C16        -0.6610   -5.2320    2.1120 c3        1 BDX     -0.075400
     21 C17        -0.2870   -5.4900    0.8300 c3        1 BDX     -0.074900
     22 C18        -0.4180   -4.2680   -0.0420 c3        1 BDX     -0.072900
     23 C19         1.8820    0.3580   -3.8650 c3        1 BDX      0.174100
     24 HN2        -1.6860    0.3190   -1.1730 hn        1 BDX      0.413800
     25 HN3        -0.5880    1.4890   -4.4630 DU        1 BDX      0.158000
     26 H4          1.0700   -0.9770    0.8120 hc        1 BDX      0.065700
     27 H4A        -0.2770   -0.3150    1.3570 hc        1 BDX      0.065700
     28 H5          0.4820    2.6160   -1.4440 hc        1 BDX      0.048700
     29 H6         -0.8580    4.4240   -0.9910 hc        1 BDX      0.045950
     30 H6A        -1.6040    3.1350   -0.4290 hc        1 BDX      0.045950
     31 H7         -1.0190    3.6540    1.7270 hc        1 BDX      0.037200
     32 H7A        -1.6620    4.9620    1.0880 hc        1 BDX      0.037200
     33 H8          0.4050    5.9300    0.8230 hc        1 BDX      0.038200
     34 H8A         0.3140    5.4240    2.3300 hc        1 BDX      0.038200
     35 H9          2.4010    4.9060    1.3120 hc        1 BDX      0.037200
     36 H9A         1.6550    3.6170    1.8750 hc        1 BDX      0.037200
     37 H10         2.4590    3.0780   -0.2040 hc        1 BDX      0.045950
     38 H10A        1.8160    4.3870   -0.8430 hc        1 BDX      0.045950
     39 H11         1.1690    1.6230    0.9430 hc        1 BDX      0.059200
     40 H11A       -0.4260    1.7160    0.9510 hc        1 BDX      0.059200
     41 H12        -1.5670   -1.5730   -0.0500 hc        1 BDX      0.045700
     42 H12A       -0.2910   -2.0390   -0.8970 hc        1 BDX      0.045700
     43 H13         0.2820   -2.8070    1.4040 hc        1 BDX      0.053700
     44 H14        -2.0550   -2.4540    2.1450 hc        1 BDX      0.038950
     45 H14A       -2.5380   -3.3750    0.9420 hc        1 BDX      0.038950
     46 H15        -1.5730   -4.1620    3.4070 hc        1 BDX      0.039200
     47 H15A       -2.5300   -4.9720    2.4180 hc        1 BDX      0.039200
     48 H16        -0.8200   -6.1070    2.5270 hc        1 BDX      0.039700
     49 H16A        0.1300   -4.8510    2.5510 hc        1 BDX      0.039700
     50 H17        -0.8550   -6.2020    0.4700 hc        1 BDX      0.039200
     51 H17A        0.6460   -5.7900    0.8230 hc        1 BDX      0.039200
     52 H18         0.3490   -4.2300   -0.6470 hc        1 BDX      0.038950
     53 H18A       -1.2350   -4.3470   -0.5740 hc        1 BDX      0.038950
     54 H19         2.7830    0.0650   -3.6070 h1        1 BDX      0.051700
     55 H19A        1.9400    1.2220   -4.3270 h1        1 BDX      0.051700
     56 H19B        1.4810   -0.3080   -4.4650 h1        1 BDX      0.051700
@<TRIPOS>BOND
     1    1    5 1   
     2    1    7 3   
     3    2    4 2   
     4    2   23 1   
     5    3    4 1   
     6    4    6 1   
     7    5    6 1   
     8    5   24 1   
     9    6    8 1   
    10    6   15 1   
    11    8   16 1   
    12    8   26 1   
    13    8   27 1   
    14    9   10 1   
    15    9   14 1   
    16    9   15 1   
    17    9   28 1   
    18   10   11 1   
    19   10   29 1   
    20   10   30 1   
    21   11   12 1   
    22   11   31 1   
    23   11   32 1   
    24   12   13 1   
    25   12   33 1   
    26   12   34 1   
    27   13   14 1   
    28   13   35 1   
    29   13   36 1   
    30   14   37 1   
    31   14   38 1   
    32   15   39 1   
    33   15   40 1   
    34   16   17 1   
    35   16   41 1   
    36   16   42 1   
    37   17   18 1   
    38   17   22 1   
    39   17   43 1   
    40   18   19 1   
    41   18   44 1   
    42   18   45 1   
    43   19   20 1   
    44   19   46 1   
    45   19   47 1   
    46   20   21 1   
    47   20   48 1   
    48   20   49 1   
    49   21   22 1   
    50   21   50 1   
    51   21   51 1   
    52   22   52 1   
    53   22   53 1   
    54   23   54 1   
    55   23   55 1   
    56   23   56 1   
@<TRIPOS>SUBSTRUCTURE
     1 BDX         1 TEMP              0 ****  ****    0 ROOT
