@<TRIPOS>MOLECULE
BDY
   66    84     1     0     0
SMALL
bcc


@<TRIPOS>ATOM
      1 N1          0.0000    0.0000    0.0000 n8        1 BDY      0.047000
      2 N3          2.3510    0.0000    0.0000 n2        1 BDY      0.143000
      3 C4          3.5070    0.0000    0.6430 c2        1 BDY     -0.121000
      4 C5          3.5320    0.0010    2.0340 c2        1 BDY     -0.225000
      5 C7          1.2340    0.0020    2.0820 c3        1 BDY     -0.183000
      6 C10        -1.3500    0.0030    4.7870 c2        1 BDY     -0.184000
      7 C13        -3.2940   -1.1950    5.5110 c2        1 BDY     -0.107000
      8 C15        -3.2930    1.2000    5.5140 c3        1 BDY      0.101000
      9 C20         7.2270    0.1070    2.7000 c2        1 BDY      0.034000
     10 C21         7.2550    0.0030    4.0930 c2        1 BDY      0.055000
     11 C22         6.0600   -0.1030    4.8090 c2        1 BDY     -0.322000
     12 C24         8.5470    0.0030    4.8070 c2        1 BDY      0.272000
     13 C28         8.1100   -1.5400    8.1120 DU        1 BDY     -0.062000
     14 C2          1.2130    0.0010    0.6780 DU        1 BDY     -0.161000
     15 N6          2.3900    0.0010    2.7230 n2        1 BDY      0.031000
     16 C9          0.0640    0.0030    4.2610 DU        1 BDY     -0.355000
     17 C11        -1.9970   -1.1950    5.0280 c2        1 BDY      0.156000
     18 Cl12       -1.1840   -2.6990    4.7270 cl        1 BDY      0.106000
     19 C14        -3.9420    0.0020    5.7500 c2        1 BDY      0.523000
     20 C16        -1.9960    1.2000    5.0320 c2        1 BDY     -0.058000
     21 Cl17       -1.1810    2.7050    4.7360 cl        1 BDY      0.077000
     22 C18         4.8280    0.0010    2.7510 c2        1 BDY      0.697000
     23 C19         6.0210    0.1060    2.0350 c3        1 BDY      0.100000
     24 C23         4.8560   -0.1030    4.1430 c2        1 BDY     -0.095000
     25 O25         9.5720    0.2740    4.2110 o         1 BDY     -0.228000
     26 N26         8.5920   -0.2960    6.1200 n         1 BDY      0.053000
     27 C27         7.4580   -0.7770    6.9310 c3        1 BDY     -0.029000
     28 C29         9.3610   -0.6670    8.3920 DU        1 BDY     -0.328000
     29 C30         9.7790   -0.1970    6.9830 DU        1 BDY     -0.204000
     30 C31        10.2610    1.2540    7.0390 c3        1 BDY     -0.677000
     31 N32        10.6550    1.6920    5.6940 n3        1 BDY      0.009000
     32 C33        10.7490    3.1610    5.6230 DU        1 BDY     -0.344000
     33 C34        12.1770    3.5060    5.1490 DU        1 BDY     -0.315000
     34 C35        12.6310    2.2060    4.4340 DU        1 BDY     -0.352000
     35 C36        11.9610    1.1170    5.3100 c3        1 BDY     -0.485000
     36 HN1         0.0270    0.1400    0.9910 DU        1 BDY      0.085000
     37 HN1A       -0.3720    0.8570   -0.3590 hn        1 BDY      0.092000
     38 H4          2.4690   -0.2260    0.4300 DU        1 BDY      0.177000
     39 H13        -2.4140   -1.0590    4.8930 ha        1 BDY     -0.023000
     40 H15        -3.4570    0.1310    5.5730 DU        1 BDY     -0.707000
     41 H20         6.1980    0.2970    2.9800 DU        1 BDY      0.090000
     42 H22         6.7270   -0.0100    3.9600 ha        1 BDY      0.067000
     43 H28         7.4440   -1.0950    7.3820 ha        1 BDY      0.038500
     44 H28A        7.4510   -1.5560    8.9710 ha        1 BDY      0.038500
     45 HN8         0.8710   -0.2520    3.2940 DU        1 BDY      0.381000
     46 H9         -0.2830    0.5980    3.4240 DU        1 BDY      0.286000
     47 H9A         0.4650   -1.0020    4.3090 hx        1 BDY      0.049000
     48 H14        -2.8890    0.1540    5.5500 DU        1 BDY      0.063000
     49 H19         5.0060    0.0960    2.4130 hc        1 BDY     -0.385000
     50 H23         5.2200   -0.0110    3.1260 ha        1 BDY     -0.222000
     51 H27         6.5510   -0.6260    6.3580 h1        1 BDY      0.144500
     52 H27A        6.8770    0.0600    7.3000 h1        1 BDY      0.144500
     53 H29         8.5430   -0.9210    7.7290 DU        1 BDY      0.256000
     54 H29A       10.1460   -1.2610    8.8440 ha        1 BDY      0.177000
     55 H30         9.4420   -0.0070    7.9950 DU        1 BDY      0.188000
     56 H31        10.4160    0.2040    6.8180 DU        1 BDY      0.236000
     57 H31A       11.1120    1.3260    7.7060 h1        1 BDY      0.088000
     58 H33        10.1990    2.6200    6.3830 ha        1 BDY      0.271500
     59 H33A       10.5740    3.5880    6.6030 ha        1 BDY      0.271500
     60 H34        11.1010    3.5250    5.0300 DU        1 BDY      0.212000
     61 H34A       12.8190    3.7200    5.9950 ha        1 BDY      0.098000
     62 H35        12.3970    3.2630    4.4420 DU        1 BDY      0.223000
     63 H35A       12.2530    2.1710    3.4200 ha        1 BDY      0.133000
     64 H36        12.8300    1.6080    4.8880 DU        1 BDY      0.211000
     65 H36A       12.3920    0.9080    6.2820 h1        1 BDY      0.047000
     66 N8          0.0400    0.0010    2.7960 ny        1 BDY     -0.301000
@<TRIPOS>BOND
     1    1   14 1   
     2    1   36 1   
     3    1   37 1   
     4    2    3 1   
     5    2   14 1   
     6    3    4 1   
     7    3   38 1   
     8    4   15 1   
     9    4   22 1   
    10    5   14 1   
    11    5   15 1   
    12    5   45 1   
    13    5   66 1   
    14    6   16 1   
    15    6   17 1   
    16    6   20 1   
    17    7   17 1   
    18    7   19 1   
    19    7   39 1   
    20    8   19 1   
    21    8   20 1   
    22    8   40 1   
    23    8   48 1   
    24    9   10 1   
    25    9   23 1   
    26    9   41 1   
    27   10   11 1   
    28   10   12 1   
    29   11   24 1   
    30   11   42 1   
    31   12   25 1   
    32   12   26 1   
    33   13   27 1   
    34   13   28 1   
    35   13   43 1   
    36   13   44 1   
    37   13   53 1   
    38   14   36 1   
    39   14   38 1   
    40   16   45 1   
    41   16   46 1   
    42   16   47 1   
    43   16   66 1   
    44   17   18 1   
    45   19   48 1   
    46   20   21 1   
    47   22   23 1   
    48   22   24 1   
    49   23   41 1   
    50   23   49 1   
    51   24   50 1   
    52   26   27 1   
    53   26   29 1   
    54   27   51 1   
    55   27   52 1   
    56   28   29 1   
    57   28   53 1   
    58   28   54 1   
    59   28   55 1   
    60   29   30 1   
    61   29   55 1   
    62   29   56 1   
    63   30   31 1   
    64   30   56 1   
    65   30   57 1   
    66   31   32 1   
    67   31   35 1   
    68   32   33 1   
    69   32   58 1   
    70   32   59 1   
    71   32   60 1   
    72   33   34 1   
    73   33   60 1   
    74   33   61 1   
    75   33   62 1   
    76   34   35 1   
    77   34   62 1   
    78   34   63 1   
    79   34   64 1   
    80   35   64 1   
    81   35   65 1   
    82   40   48 1   
    83   45   66 1   
    84   46   66 1   
@<TRIPOS>SUBSTRUCTURE
     1 BDY         1 TEMP              0 ****  ****    0 ROOT
