@<TRIPOS>MOLECULE
BDY
   66    70     1     0     0
SMALL
bcc


@<TRIPOS>ATOM
      1 N1          4.8440    3.8780    0.4230 nh        1 BDY     -0.905500
      2 N3          2.5150    4.1430    0.9190 nb        1 BDY     -0.679000
      3 C4          1.2880    3.6000    0.9560 ca        1 BDY      0.300900
      4 C5          1.0460    2.2320    0.6710 cp        1 BDY      0.332500
      5 C7          3.3190    1.9110    0.2860 ca        1 BDY      0.478900
      6 C10         5.4850   -1.0850   -0.4080 ca        1 BDY     -0.077300
      7 C13         7.2790   -2.5820    0.2910 ca        1 BDY     -0.125500
      8 C15         7.2270   -1.7650   -1.9800 ca        1 BDY     -0.125500
      9 C20        -2.4950    1.6790    1.8180 ca        1 BDY     -0.095500
     10 C21        -2.9540    0.7520    0.8740 ca        1 BDY     -0.128600
     11 C22        -2.1020    0.3150   -0.1430 ca        1 BDY     -0.095500
     12 C24        -4.3740    0.3020    0.9560 c         1 BDY      0.676700
     13 C28        -4.4140   -3.2310    1.7740 c3        1 BDY     -0.096400
     14 C2          3.5580    3.3330    0.5810 ca        1 BDY      0.490900
     15 N6          2.0620    1.3990    0.3310 nb        1 BDY     -0.663000
     16 C9          4.2070   -0.3410   -0.1300 c3        1 BDY      0.219100
     17 C11         6.1170   -1.8570    0.5790 ca        1 BDY      0.031900
     18 CL12        5.5030   -1.9460    2.1630 cl        1 BDY     -0.080900
     19 C14         7.8290   -2.5350   -0.9870 ca        1 BDY     -0.110000
     20 C16         6.0670   -1.0440   -1.6860 ca        1 BDY      0.031900
     21 CL17        5.3690   -0.1080   -2.9270 cl        1 BDY     -0.080900
     22 C18        -0.3270    1.7110    0.7370 cp        1 BDY     -0.116500
     23 C19        -1.1870    2.1490    1.7540 ca        1 BDY     -0.118000
     24 C23        -0.7930    0.7910   -0.2120 ca        1 BDY     -0.118000
     25 O25        -5.2910    1.1240    1.1560 o         1 BDY     -0.600100
     26 N26        -4.6480   -1.0480    0.7570 n         1 BDY     -0.439800
     27 C27        -3.6740   -2.0810    1.0690 c3        1 BDY      0.081000
     28 C29        -5.8980   -2.8910    1.7040 c3        1 BDY     -0.096400
     29 C30        -6.0080   -1.5610    0.9190 c3        1 BDY      0.090700
     30 C31        -6.7200   -1.8380   -0.4300 c3        1 BDY      0.175800
     31 N32        -6.8570   -0.6670   -1.2700 n3        1 BDY     -0.719600
     32 C33        -7.2950   -0.9750   -2.6340 c3        1 BDY      0.156800
     33 C34        -8.3730    0.0340   -3.0580 c3        1 BDY     -0.089900
     34 C35        -8.6170    0.9280   -1.8490 c3        1 BDY     -0.089900
     35 C36        -7.7260    0.3790   -0.7250 c3        1 BDY      0.156800
     36 HN1         4.9190    4.8400    0.6830 hn        1 BDY      0.402300
     37 HN1A        5.5580    3.3160    0.8390 hn        1 BDY      0.402300
     38 H4          0.4650    4.2860    1.2230 h4        1 BDY      0.037100
     39 H13         7.7600   -3.1870    1.0760 ha        1 BDY      0.153000
     40 H15         7.6650   -1.7240   -2.9890 ha        1 BDY      0.153000
     41 H20        -3.1800    2.0390    2.6020 ha        1 BDY      0.150000
     42 H22        -2.4640   -0.4000   -0.8990 ha        1 BDY      0.150000
     43 H28        -4.1960   -4.2000    1.2620 hc        1 BDY      0.051200
     44 H28A       -4.0740   -3.3200    2.8350 hc        1 BDY      0.051200
     45 HN8         5.0110    1.4610   -0.6960 hn        1 BDY      0.403800
     46 H9          3.4860   -0.5590   -0.9750 h1        1 BDY      0.071700
     47 H9A         3.7300   -0.7250    0.8170 h1        1 BDY      0.071700
     48 H14         8.7420   -3.1060   -1.2130 ha        1 BDY      0.145000
     49 H19        -0.8270    2.8660    2.5090 ha        1 BDY      0.144000
     50 H23        -0.1280    0.4430   -1.0170 ha        1 BDY      0.144000
     51 H27        -2.8450   -1.6780    1.7110 h1        1 BDY      0.050700
     52 H27A       -3.2200   -2.4460    0.1050 h1        1 BDY      0.050700
     53 H29        -6.4720   -3.7040    1.1970 hc        1 BDY      0.052700
     54 H29A       -6.3250   -2.7590    2.7280 hc        1 BDY      0.052700
     55 H30        -6.6210   -0.8090    1.4970 h1        1 BDY      0.079700
     56 H31        -6.1250   -2.6030   -1.0050 h1        1 BDY      0.030700
     57 H31A       -7.7190   -2.3010   -0.1700 h1        1 BDY      0.030700
     58 H33        -6.3910   -0.8880   -3.2960 h1        1 BDY      0.045200
     59 H33A       -7.6910   -2.0230   -2.7330 h1        1 BDY      0.045200
     60 H34        -8.0230    0.6310   -3.9350 hc        1 BDY      0.044950
     61 H34A       -9.3080   -0.4990   -3.3600 hc        1 BDY      0.044950
     62 H35        -8.3440    1.9870   -2.0750 hc        1 BDY      0.044950
     63 H35A       -9.6910    0.9100   -1.5430 hc        1 BDY      0.044950
     64 H36        -8.3690   -0.0020    0.1180 h1        1 BDY      0.045200
     65 H36A       -7.0560    1.1810   -0.3080 h1        1 BDY      0.045200
     66 N8          4.4420    1.0820    0.0400 nh        1 BDY     -0.807900
@<TRIPOS>BOND
     1    1   14 1   
     2    1   36 1   
     3    1   37 1   
     4    2    3 ar  
     5    2   14 ar  
     6    3    4 ar  
     7    3   38 1   
     8    4   15 ar  
     9    4   22 1   
    10    5   14 ar  
    11    5   15 ar  
    12    5   66 1   
    13    6   16 1   
    14    6   17 ar  
    15    6   20 ar  
    16    7   17 ar  
    17    7   19 ar  
    18    7   39 1   
    19    8   19 ar  
    20    8   20 ar  
    21    8   40 1   
    22    9   10 ar  
    23    9   23 ar  
    24    9   41 1   
    25   10   11 ar  
    26   10   12 1   
    27   11   24 ar  
    28   11   42 1   
    29   12   25 2   
    30   12   26 1   
    31   13   27 1   
    32   13   28 1   
    33   13   43 1   
    34   13   44 1   
    35   16   46 1   
    36   16   47 1   
    37   16   66 1   
    38   17   18 1   
    39   19   48 1   
    40   20   21 1   
    41   22   23 ar  
    42   22   24 ar  
    43   23   49 1   
    44   24   50 1   
    45   26   27 1   
    46   26   29 1   
    47   27   51 1   
    48   27   52 1   
    49   28   29 1   
    50   28   53 1   
    51   28   54 1   
    52   29   30 1   
    53   29   55 1   
    54   30   31 1   
    55   30   56 1   
    56   30   57 1   
    57   31   32 1   
    58   31   35 1   
    59   32   33 1   
    60   32   58 1   
    61   32   59 1   
    62   33   34 1   
    63   33   60 1   
    64   33   61 1   
    65   34   35 1   
    66   34   62 1   
    67   34   63 1   
    68   35   64 1   
    69   35   65 1   
    70   45   66 1   
@<TRIPOS>SUBSTRUCTURE
     1 BDY         1 TEMP              0 ****  ****    0 ROOT
