@<TRIPOS>MOLECULE
BDY
   68    70     1     0     0
SMALL
bcc


@<TRIPOS>ATOM
      1 N1       -331.7600  -33.9180  -69.7760 n4        1 BDY      0.080000
      2 N3       -330.1860  -33.4740  -71.6530 n3        1 BDY     -0.018000
      3 C4       -329.1230  -32.8580  -72.1160 c1        1 BDY     -0.195000
      4 C5       -328.2240  -32.1560  -71.1750 c2        1 BDY     -0.042000
      5 C7       -329.4570  -32.9680  -69.3590 c2        1 BDY      0.172000
      6 C10      -327.3180  -33.1320  -75.3560 c2        1 BDY     -0.274000
      7 C13      -325.6520  -33.5710  -77.0530 c3        1 BDY     -0.289000
      8 C15      -325.2940  -34.3120  -75.7430 c3        1 BDY     -0.392000
      9 C20       322.4520   30.0560   78.8840 c1        1 BDY     -0.059000
     10 C21       321.6160   31.0620   78.8890 c2        1 BDY     -0.198000
     11 C22      -325.5250  -29.9800  -70.3480 c1        1 BDY     -0.158000
     12 C24       320.7110   31.3370   77.7530 c2        1 BDY      0.370000
     13 C28       320.6770   35.0090   77.3290 c3        1 BDY     -0.174000
     14 C2       -330.4630  -33.5260  -70.2650 c2        1 BDY     -0.537000
     15 N6       -328.3760  -32.3400  -69.7890 n2        1 BDY     -0.215000
     16 C9       -328.4290  -32.6430  -74.7260 c2        1 BDY     -0.046000
     17 C11      -326.9500  -32.8160  -76.7940 c3        1 BDY     -0.016000
     18 CL12     -326.7530  -31.0960  -77.0340 cl        1 BDY     -0.034000
     19 C14      -325.7150  -35.0460  -77.0200 c1        1 BDY      0.357000
     20 C16      -326.3260  -33.9600  -74.7770 c2        1 BDY      0.213000
     21 CL17     -326.2690  -34.4760  -73.2190 cl        1 BDY      0.193000
     22 C18      -327.2560  -31.3550  -71.7080 c2        1 BDY     -0.029000
     23 C19       323.3000   29.0770   78.9000 c2        1 BDY     -0.148000
     24 C23      -326.3260  -30.6190  -70.9720 c1        1 BDY     -0.146000
     25 O25       320.2850   30.4340   76.9920 o         1 BDY     -0.436000
     26 N26       320.2400   32.6380   77.5760 n         1 BDY     -0.323000
     27 C27       320.8780   33.7770   78.2240 c3        1 BDY     -0.042000
     28 C29       319.9220   34.5320   76.0940 c3        1 BDY     -0.168000
     29 C30       319.6160   33.0330   76.3190 c3        1 BDY      0.005000
     30 C31       318.0750   32.8440   76.3080 c3        1 BDY     -0.074000
     31 N32       317.6330   31.4780   76.4970 n3        1 BDY     -0.104000
     32 C33       316.5980   31.1460   77.5020 c3        1 BDY     -0.079000
     33 C34       316.4290   29.6130   77.4370 c3        1 BDY     -0.183000
     34 C35       317.4510   29.1370   76.3950 c3        1 BDY     -0.190000
     35 C36       318.0950   30.3990   75.8930 c2        1 BDY      0.161000
     36 HN1      -331.7710  -33.7650  -68.7570 hn        1 BDY      0.232000
     37 HN1A     -331.9320  -34.9090  -69.9670 hn        1 BDY      0.232000
     38 H4       -330.7820  -33.9770  -72.2750 hn        1 BDY      0.235000
     39 H13      -327.7510  -33.1430  -77.5070 h1        1 BDY      0.158000
     40 H15      -324.2640  -34.4820  -75.3740 hc        1 BDY      0.216000
     41 H20       323.0380   28.0780   79.2850 ha        1 BDY      0.164000
     42 H22       321.5500   31.7370   79.7610 ha        1 BDY      0.167000
     43 H28       320.0970   35.7940   77.8760 hc        1 BDY      0.113000
     44 H28A      321.6650   35.4500   77.0480 hc        1 BDY      0.113000
     45 HN8      -329.1180  -31.9900  -75.2850 ha        1 BDY      0.228500
     46 H9       -329.3920  -32.3620  -67.4220 hn        1 BDY      0.188000
     47 H9A      -328.7440  -32.8280  -73.5130 ha        1 BDY      0.228500
     48 H14      -324.8940  -33.0440  -77.6650 hc        1 BDY      0.214000
     49 H19       324.3350   29.1880   78.5350 ha        1 BDY      0.164000
     50 H23      -327.1910  -31.2560  -72.8070 ha        1 BDY      0.126000
     51 H27      -324.8170  -29.4110  -69.7990 ha        1 BDY      0.232000
     52 H27A      321.9740   33.5830   78.3860 h1        1 BDY      0.104500
     53 H29       320.3960   33.9290   79.2300 h1        1 BDY      0.104500
     54 H29A      318.9840   35.1220   75.9470 hc        1 BDY      0.110000
     55 H30       320.5470   34.6490   75.1740 hc        1 BDY      0.110000
     56 H31       320.0480   32.4170   75.4740 h1        1 BDY      0.111000
     57 H31A      317.6100   33.4720   77.1210 h1        1 BDY      0.138500
     58 H33       317.6920   33.2030   75.3080 h1        1 BDY      0.138500
     59 H33A      315.6490   31.6870   77.2390 h1        1 BDY      0.140500
     60 H34       316.9490   31.4850   78.5140 h1        1 BDY      0.140500
     61 H34A      315.3870   29.3460   77.1320 hc        1 BDY      0.132500
     62 H35       316.6300   29.1550   78.4360 hc        1 BDY      0.132500
     63 H35A      316.9750   28.5700   75.5540 hc        1 BDY      0.166500
     64 H36       318.2490   28.4880   76.8500 hc        1 BDY      0.166500
     65 H36A      318.8820   30.4150   75.1160 h4        1 BDY      0.225000
     66 H131     -332.5090  -33.3640  -70.2030 hn        1 BDY      0.232000
     67 H82      -329.2910  -33.9820  -67.6320 hn        1 BDY      0.188000
     68 N8       -329.7300  -33.1410  -67.9600 n3        1 BDY     -0.336000
@<TRIPOS>BOND
     1    1   14 1   
     2    1   36 1   
     3    1   37 1   
     4    1   66 1   
     5    2    3 1   
     6    2   14 1   
     7    2   38 1   
     8    3    4 1   
     9    4   15 1   
    10    4   22 1   
    11    5   14 1   
    12    5   15 1   
    13    5   68 1   
    14    6   16 1   
    15    6   17 1   
    16    6   20 1   
    17    7    8 1   
    18    7   17 1   
    19    7   19 1   
    20    7   48 1   
    21    8   19 1   
    22    8   20 1   
    23    8   40 1   
    24    9   10 1   
    25    9   23 1   
    26   10   12 1   
    27   10   42 1   
    28   11   24 1   
    29   11   51 1   
    30   12   25 1   
    31   12   26 1   
    32   13   27 1   
    33   13   28 1   
    34   13   43 1   
    35   13   44 1   
    36   16   45 1   
    37   16   47 1   
    38   17   18 1   
    39   17   39 1   
    40   20   21 1   
    41   22   24 1   
    42   22   50 1   
    43   23   41 1   
    44   23   49 1   
    45   26   27 1   
    46   26   29 1   
    47   27   52 1   
    48   27   53 1   
    49   28   29 1   
    50   28   54 1   
    51   28   55 1   
    52   29   30 1   
    53   29   56 1   
    54   30   31 1   
    55   30   57 1   
    56   30   58 1   
    57   31   32 1   
    58   31   35 1   
    59   32   33 1   
    60   32   59 1   
    61   32   60 1   
    62   33   34 1   
    63   33   61 1   
    64   33   62 1   
    65   34   35 1   
    66   34   63 1   
    67   34   64 1   
    68   35   65 1   
    69   46   68 1   
    70   67   68 1   
@<TRIPOS>SUBSTRUCTURE
     1 BDY         1 TEMP              0 ****  ****    0 ROOT
