@<TRIPOS>MOLECULE
BDY
   66    60     1     0     0
SMALL
bcc


@<TRIPOS>ATOM
      1 N1         -4.3050    0.5420   -4.1630 n3        1 BDY     -0.323000
      2 N3         -1.9920    0.0030   -3.8340 n1        1 BDY     -0.180000
      3 C4         -0.8760    0.0020   -3.0730 c1        1 BDY     -0.063000
      4 C5         -0.9050    0.5490   -1.7990 c1        1 BDY     -0.076000
      5 C7         -3.1600    1.0860   -2.0770 c1        1 BDY     -0.048000
      6 C10        -6.2290    3.0350   -1.0760 c1        1 BDY     -0.064000
      7 C13        -8.2330    3.9470   -2.0500 c1        1 BDY     -0.126000
      8 C15        -7.1230    5.1180   -0.2670 c1        1 BDY     -0.111250
      9 C20         2.0550    2.0030   -0.1220 c1        1 BDY     -0.099000
     10 C21         2.4840    0.9250    0.6510 c1        1 BDY     -0.099000
     11 C22         1.8160   -0.2850    0.5740 c1        1 BDY     -0.111250
     12 C24         3.4700    1.1740    1.8100 c2        1 BDY      0.341000
     13 C28         4.8370   -1.1480    4.3160 c3        1 BDY     -0.175000
     14 C2         -3.1300    0.5360   -3.3580 c1        1 BDY      0.109000
     15 N6         -2.0490    1.0850   -1.3190 n1        1 BDY     -0.104000
     16 N8         -4.0030    2.1640   -1.5700 n3        1 BDY     -0.241000
     17 C9         -5.2510    1.8530   -0.9120 c2        1 BDY     -0.047000
     18 C11        -7.2690    2.9500   -1.9960 c2        1 BDY     -0.040000
     19 CL12       -7.3660    1.5880   -3.0750 cl        1 BDY     -0.007000
     20 C14        -8.1600    5.0300   -1.1860 c1        1 BDY     -0.111250
     21 C16        -6.1570    4.1190   -0.2120 c1        1 BDY     -0.053000
     22 CL17       -4.7930    4.2850    0.8630 cl        1 BDY     -0.002000
     23 C18         0.2940    0.6500   -1.0450 c1        1 BDY     -0.008000
     24 C19         0.9600    1.8610   -0.9690 c1        1 BDY     -0.126000
     25 C23         0.7190   -0.4250   -0.2760 c1        1 BDY     -0.111250
     26 O25         3.8590    2.3060    2.0340 o         1 BDY     -0.351000
     27 N26         3.6790    0.1290    2.8150 n         1 BDY     -0.322000
     28 C27         4.2530    0.2680    3.9740 c3        1 BDY     -0.031000
     29 C29         4.2140   -2.1070    3.2920 c3        1 BDY     -0.160000
     30 C30         3.2460   -1.4060    2.7080 c3        1 BDY      0.026000
     31 C31         3.1190   -1.8110    1.2650 c3        1 BDY     -0.076000
     32 N32         3.9480   -2.9740    1.0180 n3        1 BDY     -0.255000
     33 C33         3.2570   -4.0590    1.2500 c3        1 BDY     -0.077500
     34 C34         3.7500   -5.1540    0.1650 c3        1 BDY     -0.170500
     35 C35         3.9550   -4.5060   -0.9330 c3        1 BDY     -0.170500
     36 C36         4.3060   -3.0460   -0.4830 c3        1 BDY     -0.077500
     37 HN1        -4.2810    0.9090   -5.0050 hn        1 BDY      0.223500
     38 HN1A       -5.0590    0.1200   -3.8710 hn        1 BDY      0.223500
     39 H4         -0.0470   -0.3860   -3.4210 ha        1 BDY      0.170000
     40 H13        -8.9660    3.8850   -2.6980 ha        1 BDY      0.152000
     41 H15        -7.0720    5.8800    0.3400 ha        1 BDY      0.147750
     42 H20         2.5280    2.8660   -0.0700 ha        1 BDY      0.146000
     43 H22         2.1080   -1.0280    1.1040 ha        1 BDY      0.147750
     44 H28         5.8140   -1.1440    4.2250 hc        1 BDY      0.090500
     45 H28A        4.5810   -1.4100    5.2230 hc        1 BDY      0.090500
     46 HN8        -3.7060    3.0320   -1.6020 hn        1 BDY      0.187000
     47 H9         -5.0860    1.6940    0.0460 h4        1 BDY      0.103500
     48 H9A        -5.6420    1.0450   -1.3160 h4        1 BDY      0.103500
     49 H14        -8.8400    5.7320   -1.2240 ha        1 BDY      0.147750
     50 H19         0.6620    2.6150   -1.5090 ha        1 BDY      0.138000
     51 H23         0.2480   -1.2810   -0.3290 ha        1 BDY      0.147750
     52 H27         3.5920    0.5390    4.6540 h1        1 BDY      0.097500
     53 H27A        4.9760    0.9300    3.9190 h1        1 BDY      0.097500
     54 H29         4.8820   -2.3790    2.6320 hc        1 BDY      0.100000
     55 H29A        3.8400   -2.8930    3.7450 hc        1 BDY      0.100000
     56 H30         2.3960   -1.5500    3.1750 h1        1 BDY      0.092000
     57 H31         3.4110   -1.0750    0.6920 h1        1 BDY      0.080500
     58 H31A        2.1780   -2.0300    1.0660 h1        1 BDY      0.080500
     59 H33         3.4340   -4.3840    2.1640 h1        1 BDY      0.081750
     60 H33A        2.3010   -3.8800    1.1370 h1        1 BDY      0.081750
     61 H34         3.0520   -5.8350    0.0320 hc        1 BDY      0.086750
     62 H34A        4.5730   -5.5730    0.4650 hc        1 BDY      0.086750
     63 H35         3.1460   -4.5070   -1.4840 hc        1 BDY      0.086750
     64 H35A        4.7100   -4.9040   -1.4300 hc        1 BDY      0.086750
     65 H36         3.7770   -2.4020   -0.9880 h1        1 BDY      0.081750
     66 H36A        5.2700   -2.8730   -0.6120 h1        1 BDY      0.081750
@<TRIPOS>BOND
     1    1   14 1   
     2    1   37 1   
     3    1   38 1   
     4    2    3 1   
     5    3   39 1   
     6    4   15 1   
     7    5   14 1   
     8    5   16 1   
     9    6   18 1   
    10    6   21 1   
    11    7   18 1   
    12    7   40 1   
    13    8   20 1   
    14    8   41 1   
    15    9   10 1   
    16    9   42 1   
    17   10   12 1   
    18   11   25 1   
    19   11   43 1   
    20   12   26 1   
    21   12   27 1   
    22   13   28 1   
    23   13   29 1   
    24   13   44 1   
    25   13   45 1   
    26   16   17 1   
    27   16   46 1   
    28   17   47 1   
    29   17   48 1   
    30   18   19 1   
    31   20   49 1   
    32   21   22 1   
    33   23   24 1   
    34   24   50 1   
    35   25   51 1   
    36   27   28 1   
    37   27   30 1   
    38   28   52 1   
    39   28   53 1   
    40   29   30 1   
    41   29   54 1   
    42   29   55 1   
    43   30   31 1   
    44   30   56 1   
    45   31   32 1   
    46   31   57 1   
    47   31   58 1   
    48   32   33 1   
    49   32   36 1   
    50   33   34 1   
    51   33   59 1   
    52   33   60 1   
    53   34   35 1   
    54   34   61 1   
    55   34   62 1   
    56   35   36 1   
    57   35   63 1   
    58   35   64 1   
    59   36   65 1   
    60   36   66 1   
@<TRIPOS>SUBSTRUCTURE
     1 BDY         1 TEMP              0 ****  ****    0 ROOT
