@<TRIPOS>MOLECULE
BE0
   22    21     1     0     0
SMALL
bcc


@<TRIPOS>ATOM
      1 N1         -0.2850    0.1280   -0.5620 n3        1 BE0     -0.832000
      2 O1         -0.2270    0.6860   -3.0440 o         1 BE0     -0.538400
      3 S1         -1.0810    0.6780   -1.8890 s4        1 BE0      2.024800
      4 O2         -2.1020   -0.2440   -2.3030 o         1 BE0     -0.538400
      5 N2         -1.7060    2.1690   -1.5990 n2        1 BE0     -0.955000
      6 CB1         1.1760    0.0920   -0.5500 c3        1 BE0     -0.014000
      7 CC1         1.7430    0.0870    0.8530 c3        1 BE0     -0.175000
      8 CD1         1.1450   -0.9600    1.6950 c3        1 BE0     -0.154000
      9 CC2        -0.3250   -0.9180    1.6780 c3        1 BE0     -0.175000
     10 CB2        -0.8850   -0.9100    0.2720 c3        1 BE0     -0.014000
     11 HN2        -2.5310    2.2520   -1.2130 hn        1 BE0      0.239000
     12 HN2A       -1.2300    2.9160   -1.8250 hn        1 BE0      0.239000
     13 HB1         1.5160    0.8760   -1.0260 h1        1 BE0      0.095000
     14 HB1A        1.4760   -0.7150   -1.0150 h1        1 BE0      0.095000
     15 HC1         1.5750    0.9580    1.2650 hc        1 BE0      0.086000
     16 HC1A        2.7090   -0.0600    0.8030 hc        1 BE0      0.086000
     17 HD1         1.4410   -1.8350    1.3710 hc        1 BE0      0.083500
     18 HD1A        1.4550   -0.8420    2.6150 hc        1 BE0      0.083500
     19 HC2        -0.6690   -1.7020    2.1510 hc        1 BE0      0.086000
     20 HC2A       -0.6240   -0.1110    2.1420 hc        1 BE0      0.086000
     21 HB2        -1.8500   -0.7610    0.3180 h1        1 BE0      0.095000
     22 HB2A       -0.7190   -1.7820   -0.1390 h1        1 BE0      0.095000
@<TRIPOS>BOND
     1    1    3 1   
     2    1    6 1   
     3    1   10 1   
     4    2    3 1   
     5    3    4 1   
     6    5   11 1   
     7    5   12 1   
     8    6    7 1   
     9    6   13 1   
    10    6   14 1   
    11    7    8 1   
    12    7   15 1   
    13    7   16 1   
    14    8    9 1   
    15    8   17 1   
    16    8   18 1   
    17    9   10 1   
    18    9   19 1   
    19    9   20 1   
    20   10   21 1   
    21   10   22 1   
@<TRIPOS>SUBSTRUCTURE
     1 BE0         1 TEMP              0 ****  ****    0 ROOT
