@<TRIPOS>MOLECULE
BE0
   23    23     1     0     0
SMALL
bcc


@<TRIPOS>ATOM
      1 N1         -0.0320    0.1170    0.0230 n3        1 BE0     -0.843500
      2 O1         -2.1050    1.4510   -0.3310 o         1 BE0     -0.551800
      3 S1         -0.7720    1.2910   -0.6660 s6        1 BE0      1.512800
      4 O2          0.0140    2.3560   -1.0680 o         1 BE0     -0.551800
      5 N2         -1.0630    0.4880   -2.4880 nz        1 BE0     -0.783500
      6 CB1         1.4250    0.0020    0.0560 c3        1 BE0      0.200800
      7 CC1         1.9910   -0.1060    1.4710 c3        1 BE0     -0.093400
      8 CD1         1.3090   -1.2090    2.2510 c3        1 BE0     -0.087400
      9 CC2        -0.1940   -1.0380    2.2310 c3        1 BE0     -0.093400
     10 CB2        -0.7170   -0.9130    0.8010 c3        1 BE0      0.200800
     11 HN2        -0.7030   -0.4500   -2.6010 hn        1 BE0      0.446467
     12 HN2A       -2.0600    0.4680   -2.6810 hn        1 BE0      0.446467
     13 HB1         1.8760    0.9020   -0.4560 h1        1 BE0      0.075700
     14 HB1A        1.7090   -0.9250   -0.5220 h1        1 BE0      0.075700
     15 HC1         3.0900   -0.3170    1.3830 hc        1 BE0      0.076200
     16 HC1A        1.8770    0.8720    2.0090 hc        1 BE0      0.076200
     17 HD1         1.6740   -1.1980    3.3120 hc        1 BE0      0.070700
     18 HD1A        1.5830   -2.2060    1.8140 hc        1 BE0      0.070700
     19 HC2        -0.4860   -0.1370    2.8310 hc        1 BE0      0.076200
     20 HC2A       -0.6910   -1.9300    2.6970 hc        1 BE0      0.076200
     21 HB2        -0.5710   -1.8980    0.2710 h1        1 BE0      0.075700
     22 HB2A       -1.8210   -0.6760    0.8300 h1        1 BE0      0.075700
     23 H23        -0.6200    1.0820   -3.1820 hn        1 BE0      0.446467
@<TRIPOS>BOND
     1    1    3 1   
     2    1    6 1   
     3    1   10 1   
     4    2    3 2   
     5    3    4 2   
     6    3    5 1   
     7    5   11 1   
     8    5   12 1   
     9    5   23 1   
    10    6    7 1   
    11    6   13 1   
    12    6   14 1   
    13    7    8 1   
    14    7   15 1   
    15    7   16 1   
    16    8    9 1   
    17    8   17 1   
    18    8   18 1   
    19    9   10 1   
    20    9   19 1   
    21    9   20 1   
    22   10   21 1   
    23   10   22 1   
@<TRIPOS>SUBSTRUCTURE
     1 BE0         1 TEMP              0 ****  ****    0 ROOT
