@<TRIPOS>MOLECULE
BE0
   23    23     1     0     0
SMALL
bcc


@<TRIPOS>ATOM
      1 N1         -0.0300    0.1160    0.0210 n3        1 BE0     -0.843500
      2 O1         -2.0960    1.4590   -0.3420 o         1 BE0     -0.551800
      3 S1         -0.7640    1.2900   -0.6750 s6        1 BE0      1.512800
      4 O2          0.0290    2.3480   -1.0840 o         1 BE0     -0.551800
      5 N2         -1.0590    0.4770   -2.4920 n4        1 BE0     -0.783500
      6 CB1         1.4260   -0.0070    0.0550 c3        1 BE0      0.200800
      7 CC1         1.9910   -0.1090    1.4710 c3        1 BE0     -0.093400
      8 CD1         1.3030   -1.2030    2.2570 c3        1 BE0     -0.087400
      9 CC2        -0.1990   -1.0250    2.2360 c3        1 BE0     -0.093400
     10 CB2        -0.7220   -0.9050    0.8060 c3        1 BE0      0.200800
     11 HN2        -0.6130    1.0650   -3.1900 hn        1 BE0      0.446467
     12 HN2A       -2.0560    0.4610   -2.6860 hn        1 BE0      0.446467
     13 HB1         1.8820    0.8870   -0.4620 h1        1 BE0      0.075700
     14 HB1A        1.7050   -0.9390   -0.5170 h1        1 BE0      0.075700
     15 HC1         1.8820    0.8720    2.0030 hc        1 BE0      0.076200
     16 HC1A        3.0890   -0.3260    1.3840 hc        1 BE0      0.076200
     17 HD1         1.5710   -2.2040    1.8270 hc        1 BE0      0.070700
     18 HD1A        1.6680   -1.1880    3.3190 hc        1 BE0      0.070700
     19 HC2        -0.4860   -0.1180    2.8300 hc        1 BE0      0.076200
     20 HC2A       -0.7010   -1.9110    2.7080 hc        1 BE0      0.076200
     21 HB2        -1.8240   -0.6620    0.8330 h1        1 BE0      0.075700
     22 HB2A       -0.5800   -1.8950    0.2820 h1        1 BE0      0.075700
     23 H23        -0.7030   -0.4640   -2.5990 hn        1 BE0      0.446467
@<TRIPOS>BOND
     1    1    3 1   
     2    1    6 1   
     3    1   10 1   
     4    2    3 2   
     5    3    4 2   
     6    3    5 1   
     7    5   11 1   
     8    5   12 1   
     9    5   23 1   
    10    6    7 1   
    11    6   13 1   
    12    6   14 1   
    13    7    8 1   
    14    7   15 1   
    15    7   16 1   
    16    8    9 1   
    17    8   17 1   
    18    8   18 1   
    19    9   10 1   
    20    9   19 1   
    21    9   20 1   
    22   10   21 1   
    23   10   22 1   
@<TRIPOS>SUBSTRUCTURE
     1 BE0         1 TEMP              0 ****  ****    0 ROOT
