@<TRIPOS>MOLECULE
BE0
   22    22     1     0     0
SMALL
bcc


@<TRIPOS>ATOM
      1 N1          0.1450   -0.0110   -0.2650 n3        1 BE0     -0.820500
      2 O1         -1.7070   -1.2960    0.8000 o         1 BE0     -0.652800
      3 S1         -1.4360   -0.0580    0.1560 s6        1 BE0      1.582800
      4 O2         -1.7580    1.1250    0.8760 o         1 BE0     -0.652800
      5 N2         -2.2520   -0.0310   -1.2340 n3        1 BE0     -1.026700
      6 CB1         0.8660    1.2260   -0.4230 c3        1 BE0      0.223800
      7 CC1         2.2070    1.2610    0.3110 c3        1 BE0     -0.089400
      8 CD1         3.0410    0.0420   -0.0210 c3        1 BE0     -0.076400
      9 CC2         2.2600   -1.2290    0.2330 c3        1 BE0     -0.089400
     10 CB2         0.9170   -1.2050   -0.5000 c3        1 BE0      0.223800
     11 HN2        -2.5300   -0.8460   -1.7200 hn        1 BE0      0.444800
     12 HN2A       -2.5640    0.7990   -1.6680 hn        1 BE0      0.444800
     13 HB1         1.0610    1.3990   -1.5220 h1        1 BE0      0.048700
     14 HB1A        0.2230    2.0720   -0.0410 h1        1 BE0      0.048700
     15 HC1         2.7490    2.1940    0.0100 hc        1 BE0      0.051700
     16 HC1A        2.0330    1.3090    1.4180 hc        1 BE0      0.051700
     17 HD1         3.3500    0.0830   -1.0990 hc        1 BE0      0.042700
     18 HD1A        3.9760    0.0420    0.5980 hc        1 BE0      0.042700
     19 HC2         2.8400   -2.1180   -0.1260 hc        1 BE0      0.051700
     20 HC2A        2.0890   -1.3540    1.3340 hc        1 BE0      0.051700
     21 HB2         0.3110   -2.0990   -0.1720 h1        1 BE0      0.048700
     22 HB2A        1.1180   -1.3000   -1.6080 h1        1 BE0      0.048700
@<TRIPOS>BOND
     1    1    3 1   
     2    1    6 1   
     3    1   10 1   
     4    2    3 2   
     5    3    4 2   
     6    3    5 1   
     7    5   11 1   
     8    5   12 1   
     9    6    7 1   
    10    6   13 1   
    11    6   14 1   
    12    7    8 1   
    13    7   15 1   
    14    7   16 1   
    15    8    9 1   
    16    8   17 1   
    17    8   18 1   
    18    9   10 1   
    19    9   19 1   
    20    9   20 1   
    21   10   21 1   
    22   10   22 1   
@<TRIPOS>SUBSTRUCTURE
     1 BE0         1 TEMP              0 ****  ****    0 ROOT
