@<TRIPOS>MOLECULE
BE0
   23    23     1     0     0
SMALL
bcc


@<TRIPOS>ATOM
      1 N1         -0.0600    0.1060    0.0350 n3        1 BE0     -0.843500
      2 O1         -2.2440    1.2670   -0.2550 o         1 BE0     -0.551800
      3 S1         -0.9070    1.2330   -0.6080 s6        1 BE0      1.512800
      4 O2         -0.2200    2.3740   -0.9820 o         1 BE0     -0.551800
      5 N2         -1.1500    0.4670   -2.4530 n4        1 BE0     -0.783500
      6 CB1         1.4020    0.1150    0.0510 c3        1 BE0      0.200800
      7 CC1         1.9920    0.0110    1.4560 c3        1 BE0     -0.093400
      8 CD1         1.4170   -1.1710    2.2050 c3        1 BE0     -0.087400
      9 CC2        -0.0950   -1.1300    2.2050 c3        1 BE0     -0.093400
     10 CB2        -0.6450   -1.0040    0.7860 c3        1 BE0      0.200800
     11 HN2        -0.7110   -0.4320   -2.6000 hn        1 BE0      0.446467
     12 HN2A       -0.7690    1.1200   -3.1310 hn        1 BE0      0.446467
     13 HB1         1.7670    1.0670   -0.4360 h1        1 BE0      0.075700
     14 HB1A        1.7570   -0.7650   -0.5610 h1        1 BE0      0.075700
     15 HC1         1.8020    0.9570    2.0260 hc        1 BE0      0.076200
     16 HC1A        3.1040   -0.1010    1.3490 hc        1 BE0      0.076200
     17 HD1         1.7930   -1.1630    3.2620 hc        1 BE0      0.070700
     18 HD1A        1.7700   -2.1260    1.7320 hc        1 BE0      0.070700
     19 HC2        -0.5080   -2.0750    2.6470 hc        1 BE0      0.076200
     20 HC2A       -0.4560   -0.2760    2.8370 hc        1 BE0      0.076200
     21 HB2        -0.4210   -1.9550    0.2220 h1        1 BE0      0.075700
     22 HB2A       -1.7640   -0.8640    0.8330 h1        1 BE0      0.075700
     23 H23        -2.1440    0.3670   -2.6370 hn        1 BE0      0.446467
@<TRIPOS>BOND
     1    1    3 1   
     2    1    6 1   
     3    1   10 1   
     4    2    3 2   
     5    3    4 2   
     6    3    5 1   
     7    5   11 1   
     8    5   12 1   
     9    5   23 1   
    10    6    7 1   
    11    6   13 1   
    12    6   14 1   
    13    7    8 1   
    14    7   15 1   
    15    7   16 1   
    16    8    9 1   
    17    8   17 1   
    18    8   18 1   
    19    9   10 1   
    20    9   19 1   
    21    9   20 1   
    22   10   21 1   
    23   10   22 1   
@<TRIPOS>SUBSTRUCTURE
     1 BE0         1 TEMP              0 ****  ****    0 ROOT
