@<TRIPOS>MOLECULE
BE1
   19    18     1     0     0
SMALL
bcc


@<TRIPOS>ATOM
      1 C1          0.7200    1.3200   -2.2110 c3        1 BE1     -0.223100
      2 C2          1.3810   -0.0280   -2.2810 c         1 BE1      0.670100
      3 C3          1.0140   -1.5350   -0.4070 c3        1 BE1     -0.015000
      4 C4          1.4510   -0.3700    0.5210 c3        1 BE1      0.214400
      5 O2          2.5150   -0.1600   -2.7740 o         1 BE1     -0.598100
      6 N           0.7230   -1.2170   -1.7990 n         1 BE1     -0.309600
      7 O4          0.4580    0.5440    0.7170 os        1 BE1     -0.565200
      8 P          -0.2120    0.4810    2.3450 p5        1 BE1      1.309900
      9 O1P         1.0140    0.7750    3.1660 o         1 BE1     -0.927500
     10 O2P        -1.2710    1.5420    2.2860 o         1 BE1     -0.927500
     11 O3P        -0.6570   -0.9570    2.3610 o         1 BE1     -0.927500
     12 BR         -1.0880   -1.2790   -2.2610 br        1 BE1     -0.095800
     13 H11         1.4420    2.1050   -2.5380 hc        1 BE1      0.084700
     14 H12        -0.1860    1.3650   -2.8560 hc        1 BE1      0.084700
     15 H13         0.4170    1.5090   -1.1350 hc        1 BE1      0.084700
     16 H31         0.1290   -2.0290    0.0870 h1        1 BE1      0.070700
     17 H32         1.8620   -2.2770   -0.4770 h1        1 BE1      0.070700
     18 H41         1.7760   -0.8370    1.4960 h1        1 BE1     -0.000800
     19 H42         2.3480    0.1280    0.0370 h1        1 BE1     -0.000800
@<TRIPOS>BOND
     1    1    2 1   
     2    1   13 1   
     3    1   14 1   
     4    1   15 1   
     5    2    5 2   
     6    2    6 1   
     7    3    4 1   
     8    3    6 1   
     9    3   16 1   
    10    3   17 1   
    11    4    7 1   
    12    4   18 1   
    13    4   19 1   
    14    6   12 1   
    15    7    8 1   
    16    8    9 1   
    17    8   10 1   
    18    8   11 1   
@<TRIPOS>SUBSTRUCTURE
     1 BE1         1 TEMP              0 ****  ****    0 ROOT
