@<TRIPOS>MOLECULE
BE1
   19    18     1     0     0
SMALL
bcc


@<TRIPOS>ATOM
      1 C1         -3.1020   -1.3530    1.4100 c3        1 BE1     -0.177100
      2 C2         -1.6400   -0.9920    1.4530 c         1 BE1      0.637100
      3 C3          0.4570   -0.6090    0.2700 c3        1 BE1     -0.006000
      4 C4          0.8750    0.5180   -0.6370 c3        1 BE1      0.230400
      5 O2         -1.0630   -0.9310    2.5180 o         1 BE1     -0.619100
      6 N          -0.9470   -0.7200    0.2600 n         1 BE1     -0.334600
      7 O4          2.3210    0.6560   -0.6090 os        1 BE1     -0.548200
      8 P           2.9940    1.8170   -1.4830 p5        1 BE1      1.309900
      9 O1P         2.8680    3.1250   -0.7590 o         1 BE1     -0.929500
     10 O2P         4.4660    1.4990   -1.7030 o         1 BE1     -0.929500
     11 O3P         2.2960    1.9120   -2.8110 o         1 BE1     -0.929500
     12 BR         -1.9230   -0.4390   -1.3810 br        1 BE1     -0.022800
     13 H11        -3.4060   -1.6040    2.3180 hc        1 BE1      0.050367
     14 H12        -3.6190   -0.5820    1.0930 hc        1 BE1      0.050367
     15 H13        -3.2360   -2.1130    0.7970 hc        1 BE1      0.050367
     16 H31         0.8440   -1.4290   -0.0400 h1        1 BE1      0.094200
     17 H32         0.7680   -0.4250    1.1890 h1        1 BE1      0.094200
     18 H41         0.5820    0.3250   -1.5500 h1        1 BE1     -0.010800
     19 H42         0.4650    1.3460   -0.3340 h1        1 BE1     -0.010800
@<TRIPOS>BOND
     1    1    2 1   
     2    1   13 1   
     3    1   14 1   
     4    1   15 1   
     5    2    5 2   
     6    2    6 1   
     7    3    4 1   
     8    3    6 1   
     9    3   16 1   
    10    3   17 1   
    11    4    7 1   
    12    4   18 1   
    13    4   19 1   
    14    6   12 1   
    15    7    8 1   
    16    8    9 1   
    17    8   10 1   
    18    8   11 1   
@<TRIPOS>SUBSTRUCTURE
     1 BE1         1 TEMP              0 ****  ****    0 ROOT
