@<TRIPOS>MOLECULE
BE1
   19    18     1     0     0
SMALL
bcc


@<TRIPOS>ATOM
      1 C1          0.0470    0.3240   -0.0870 c3        1 BE1     -0.178100
      2 C2          1.5600    0.2990   -0.0330 c         1 BE1      0.645100
      3 C3          3.6340   -0.4360   -1.1120 c3        1 BE1      0.008000
      4 C4          3.6970   -1.9430   -0.7380 c3        1 BE1      0.225400
      5 O2          2.1200    0.5130    1.0660 o         1 BE1     -0.633100
      6 N           2.3090    0.1650   -1.2000 n         1 BE1     -0.331600
      7 O4          3.2500   -2.7630   -1.7300 os        1 BE1     -0.555200
      8 P           4.5550   -3.5430   -2.6080 p5        1 BE1      1.310900
      9 O1P         5.2490   -4.2860   -1.4990 o         1 BE1     -0.931500
     10 O2P         3.8290   -4.3680   -3.6310 o         1 BE1     -0.931500
     11 O3P         5.2760   -2.3120   -3.0950 o         1 BE1     -0.931500
     12 BR          1.4060   -0.1070   -2.7920 br        1 BE1      0.001200
     13 H11        -0.3430    0.5080    0.9430 hc        1 BE1      0.051700
     14 H12        -0.3180    1.1350   -0.7600 hc        1 BE1      0.051700
     15 H13        -0.3370   -0.6610   -0.4490 hc        1 BE1      0.051700
     16 H31         4.1720    0.1540   -0.3170 h1        1 BE1      0.077200
     17 H32         4.1540   -0.3080   -2.1060 h1        1 BE1      0.077200
     18 H41         3.0690   -2.0830    0.1950 h1        1 BE1     -0.003300
     19 H42         4.7770   -2.1560   -0.4870 h1        1 BE1     -0.003300
@<TRIPOS>BOND
     1    1    2 1   
     2    1   13 1   
     3    1   14 1   
     4    1   15 1   
     5    2    5 2   
     6    2    6 1   
     7    3    4 1   
     8    3    6 1   
     9    3   16 1   
    10    3   17 1   
    11    4    7 1   
    12    4   18 1   
    13    4   19 1   
    14    6   12 1   
    15    7    8 1   
    16    8    9 1   
    17    8   10 1   
    18    8   11 1   
@<TRIPOS>SUBSTRUCTURE
     1 BE1         1 TEMP              0 ****  ****    0 ROOT
