@<TRIPOS>MOLECULE
BE2
   16    16     1     0     0
SMALL
bcc


@<TRIPOS>ATOM
      1 C          -0.2650    0.0240   -1.6860 c         1 BE2      0.913200
      2 O1          0.7220    0.5200   -2.3100 o         1 BE2     -0.838300
      3 O2         -1.3040   -0.4000   -2.2650 o         1 BE2     -0.838300
      4 C1         -0.2230   -0.0320   -0.1670 ca        1 BE2     -0.172600
      5 C2          0.9880   -0.0890    0.5720 ca        1 BE2      0.148600
      6 C3          0.9230   -0.0410    1.9850 ca        1 BE2     -0.215000
      7 N2          2.2320   -0.2730   -0.0550 nh        1 BE2     -0.817200
      8 C4         -0.3020    0.0210    2.6390 ca        1 BE2     -0.127000
      9 C5         -1.4880    0.0370    1.9110 ca        1 BE2     -0.201000
     10 C6         -1.4370    0.0100    0.5170 ca        1 BE2     -0.082000
     11 H3          1.8490   -0.0590    2.5780 ha        1 BE2      0.105000
     12 HN21        2.9400    0.3080    0.3410 hn        1 BE2      0.388300
     13 HN22        2.1770   -0.1620   -1.0540 hn        1 BE2      0.388300
     14 H4         -0.3290    0.0550    3.7370 ha        1 BE2      0.097000
     15 H5         -2.4550    0.0750    2.4280 ha        1 BE2      0.103000
     16 H6         -2.3630    0.0230   -0.0800 ha        1 BE2      0.146000
@<TRIPOS>BOND
     1    1    2 1   
     2    1    3 1   
     3    1    4 1   
     4    4    5 ar  
     5    4   10 ar  
     6    5    6 ar  
     7    5    7 1   
     8    6    8 ar  
     9    6   11 1   
    10    7   12 1   
    11    7   13 1   
    12    8    9 ar  
    13    8   14 1   
    14    9   10 ar  
    15    9   15 1   
    16   10   16 1   
@<TRIPOS>SUBSTRUCTURE
     1 BE2         1 TEMP              0 ****  ****    0 ROOT
