@<TRIPOS>MOLECULE
BE2
   16    13     1     0     0
SMALL
bcc


@<TRIPOS>ATOM
      1 C           1.1180   -0.3780    1.9050 c1        1 BE2      0.362000
      2 O1          2.3770   -0.3780    1.9050 o         1 BE2     -0.590000
      3 O2          0.4890   -0.3780    2.9950 os        1 BE2     -0.556000
      4 C1          0.3620   -0.3780    0.5950 c2        1 BE2     -0.152000
      5 C2         -0.0030    0.8220    0.0050 c1        1 BE2      0.067000
      6 C3         -0.6960    0.8220   -1.1950 c1        1 BE2     -0.171000
      7 N2          0.3010    2.0500    0.6480 n3        1 BE2     -0.326000
      8 C4         -1.0240   -0.3780   -1.8060 c1        1 BE2     -0.171000
      9 C5         -0.6590   -1.5780   -1.2170 c1        1 BE2     -0.201000
     10 C6          0.0340   -1.5780   -0.0160 c2        1 BE2     -0.082000
     11 H3         -0.9410    1.6680   -1.6170 ha        1 BE2      0.101000
     12 HN21        1.1210    2.4330    0.5360 hn        1 BE2      0.183500
     13 HN22       -0.3360    2.4740    1.1450 hn        1 BE2      0.183500
     14 H4         -1.5130   -0.3780   -2.6510 ha        1 BE2      0.101000
     15 H5         -0.9050   -2.4230   -1.6380 ha        1 BE2      0.103000
     16 H6          0.2760   -2.4230    0.4070 ha        1 BE2      0.146000
@<TRIPOS>BOND
     1    1    2 1   
     2    1    4 1   
     3    4    5 1   
     4    4   10 1   
     5    5    7 1   
     6    6    8 1   
     7    6   11 1   
     8    7   12 1   
     9    7   13 1   
    10    8   14 1   
    11    9   10 1   
    12    9   15 1   
    13   10   16 1   
@<TRIPOS>SUBSTRUCTURE
     1 BE2         1 TEMP              0 ****  ****    0 ROOT
