@<TRIPOS>MOLECULE
BE9
   34    29     1     0     0
SMALL
bcc


@<TRIPOS>ATOM
      1 C4         -0.0410   -1.6070    0.5360 c1        1 BE9      0.052000
      2 C5         -0.1130   -2.8500    1.2020 c1        1 BE9     -0.122750
      3 C6         -0.1370   -4.0300    0.4700 c1        1 BE9     -0.122750
      4 C8         -0.1590    0.9230    0.6130 c1        1 BE9      0.525000
      5 C15         1.5480    2.8440   -0.3240 c3        1 BE9     -0.066500
      6 C2         -0.0200   -2.7660   -1.5700 c1        1 BE9     -0.122750
      7 C3          0.0050   -1.5730   -0.8370 c1        1 BE9     -0.129000
      8 O7          0.2780   -0.3820    1.3050 o         1 BE9     -0.203000
      9 N14         0.8100    1.6120   -0.5900 n3        1 BE9     -0.282000
     10 C19         1.4640    0.7730   -1.5690 c3        1 BE9     -0.066500
     11 C18         1.4700    0.7860   -1.5910 c3        1 BE9     -0.037500
     12 O17         2.2100    2.0010   -1.3160 os        1 BE9     -0.272000
     13 C16         1.5620    2.8420   -0.3210 c3        1 BE9     -0.037500
     14 N9         -1.3600    1.5420    0.9810 n1        1 BE9     -1.111000
     15 S10        -2.3530    0.8450    2.2110 ss        1 BE9      2.929000
     16 N13        -3.9560    1.2460    1.9550 n2        1 BE9     -0.946000
     17 O12        -1.9140    1.2510    3.5330 o         1 BE9     -0.965000
     18 O11        -2.1760   -0.5900    2.2830 o         1 BE9     -0.965000
     19 C1         -0.0900   -3.9880   -0.9110 c1        1 BE9     -0.122750
     20 H5         -0.1470   -2.8810    2.2060 ha        1 BE9      0.144750
     21 H6         -0.1850   -4.8690    0.9200 ha        1 BE9      0.144750
     22 H15         1.1250    3.3140    0.4380 h1        1 BE9      0.116750
     23 H15A        1.5020    3.4340   -1.1360 h1        1 BE9      0.116750
     24 H2          0.0130   -2.7400   -2.5370 ha        1 BE9      0.144750
     25 H3          0.0520   -0.7530   -1.2820 ha        1 BE9      0.146000
     26 H19         2.3050    0.4040   -1.1690 h1        1 BE9      0.116750
     27 H19A        0.8450   -0.0010   -1.8090 h1        1 BE9      0.116750
     28 H18         2.0440    0.1740   -2.2030 h1        1 BE9      0.100500
     29 H18A        0.6210    1.0260   -2.0740 h1        1 BE9      0.100500
     30 H16         2.0550    3.7330   -0.2720 h1        1 BE9      0.100500
     31 H16A        1.6150    2.3960    0.5640 h1        1 BE9      0.100500
     32 HN13       -4.4770    0.7150    1.4500 hn        1 BE9      0.235500
     33 HN1A       -4.2890    2.0210    2.2920 hn        1 BE9      0.235500
     34 H1         -0.1080   -4.8510   -1.4450 ha        1 BE9      0.144750
@<TRIPOS>BOND
     1    1    7 1   
     2    1    8 1   
     3    2    3 1   
     4    2   20 1   
     5    3   21 1   
     6    4    9 1   
     7    4   14 1   
     8    5    9 1   
     9    5   13 1   
    10    5   22 1   
    11    5   23 1   
    12    6   19 1   
    13    6   24 1   
    14    7   25 1   
    15    9   10 1   
    16   10   11 1   
    17   10   26 1   
    18   10   27 1   
    19   11   12 1   
    20   11   28 1   
    21   11   29 1   
    22   12   13 1   
    23   13   30 1   
    24   13   31 1   
    25   15   17 1   
    26   15   18 1   
    27   16   32 1   
    28   16   33 1   
    29   19   34 1   
@<TRIPOS>SUBSTRUCTURE
     1 BE9         1 TEMP              0 ****  ****    0 ROOT
