@<TRIPOS>MOLECULE
BE9
   35    35     1     0     0
SMALL
bcc


@<TRIPOS>ATOM
      1 C4          0.0970   -0.4700    0.7130 ca        1 BE9      0.019100
      2 C5          1.2240   -0.0030    0.0280 ca        1 BE9     -0.118000
      3 C6          2.2610    0.5600    0.7720 ca        1 BE9     -0.109000
      4 C8         -1.9490   -0.5160   -0.5410 c2        1 BE9      1.126500
      5 C15        -4.0870   -0.9150   -1.7090 c3        1 BE9      0.162800
      6 C2          1.0290    0.1770    2.8250 ca        1 BE9     -0.109000
      7 C3         -0.0230   -0.3890    2.1050 ca        1 BE9     -0.118000
      8 O7         -0.8760   -1.1960    0.0020 os        1 BE9     -0.330700
      9 N14        -2.7830   -1.3460   -1.2230 nh        1 BE9     -0.689600
     10 C19        -2.5330   -2.7880   -1.2560 c3        1 BE9      0.162800
     11 C18        -3.0510   -3.4480   -2.5410 c3        1 BE9      0.110900
     12 O17        -4.3940   -3.0710   -2.8130 os        1 BE9     -0.379600
     13 C16        -4.5240   -1.6690   -2.9770 c3        1 BE9      0.110900
     14 N9         -2.0830    0.7930   -0.3900 n2        1 BE9     -1.343600
     15 S10        -2.1430    2.1720   -0.1420 s4        1 BE9      2.007700
     16 N13        -3.1650    2.8610   -2.1350 n9        1 BE9     -1.105400
     17 O12        -3.1660    2.6720    0.6150 o         1 BE9     -0.484900
     18 O11        -1.0590    2.9630   -0.4020 o         1 BE9     -0.484900
     19 C1          2.1630    0.6510    2.1620 ca        1 BE9     -0.091000
     20 H5          1.2970   -0.0930   -1.0660 ha        1 BE9      0.156500
     21 H6          3.1620    0.9310    0.2560 ha        1 BE9      0.163000
     22 H2          0.9640    0.2410    3.9230 ha        1 BE9      0.163000
     23 H3         -0.9090   -0.7900    2.6180 ha        1 BE9      0.156500
     24 H19        -3.0520   -3.2450   -0.3640 h1        1 BE9      0.083200
     25 H19A       -1.4270   -2.9890   -1.1740 h1        1 BE9      0.083200
     26 H18        -3.0930   -4.5620   -2.3960 h1        1 BE9      0.081700
     27 H18A       -2.3950   -3.1950   -3.4140 h1        1 BE9      0.081700
     28 H16        -3.9340   -1.3260   -3.8670 h1        1 BE9      0.081700
     29 H16A       -5.6220   -1.5030   -3.1480 h1        1 BE9      0.081700
     30 HN13       -4.0410    3.2880   -1.8870 hn        1 BE9      0.400467
     31 HN1A       -2.5560    3.5650   -2.5150 hn        1 BE9      0.400467
     32 H1          2.9890    1.0950    2.7410 ha        1 BE9      0.163000
     33 H15        -4.8410   -1.1060   -0.8910 h1        1 BE9      0.083200
     34 H133       -3.3260    2.1600   -2.8330 hn        1 BE9      0.400467
     35 H15A       -4.0810    0.1830   -1.9450 h1        1 BE9      0.083200
@<TRIPOS>BOND
     1    1    2 ar  
     2    1    7 ar  
     3    1    8 1   
     4    2    3 ar  
     5    2   20 1   
     6    3   19 ar  
     7    3   21 1   
     8    4    8 1   
     9    4    9 1   
    10    4   14 2   
    11    5    9 1   
    12    5   13 1   
    13    5   33 1   
    14    5   35 1   
    15    6    7 ar  
    16    6   19 ar  
    17    6   22 1   
    18    7   23 1   
    19    9   10 1   
    20   10   11 1   
    21   10   24 1   
    22   10   25 1   
    23   11   12 1   
    24   11   26 1   
    25   11   27 1   
    26   12   13 1   
    27   13   28 1   
    28   13   29 1   
    29   14   15 1   
    30   15   17 1   
    31   15   18 1   
    32   16   30 1   
    33   16   31 1   
    34   16   34 1   
    35   19   32 1   
@<TRIPOS>SUBSTRUCTURE
     1 BE9         1 TEMP              0 ****  ****    0 ROOT
