@<TRIPOS>MOLECULE
BE9
   35    35     1     0     0
SMALL
bcc


@<TRIPOS>ATOM
      1 C4          0.0980   -0.4420    0.7140 ca        1 BE9      0.019100
      2 C5          1.2140    0.0640    0.0380 ca        1 BE9     -0.118000
      3 C6          2.2350    0.6430    0.7920 ca        1 BE9     -0.109000
      4 C8         -1.9430   -0.5230   -0.5440 c2        1 BE9      1.126500
      5 C15        -4.0680   -0.9620   -1.7220 c3        1 BE9      0.162800
      6 C2          1.0090    0.2010    2.8370 ca        1 BE9     -0.109000
      7 C3         -0.0260   -0.3820    2.1070 ca        1 BE9     -0.118000
      8 O7         -0.8540   -1.1830   -0.0080 os        1 BE9     -0.330700
      9 N14        -2.7540   -1.3650   -1.2400 nh        1 BE9     -0.689600
     10 C19        -2.4670   -2.8000   -1.2910 c3        1 BE9      0.162800
     11 C18        -2.9660   -3.4560   -2.5860 c3        1 BE9      0.110900
     12 O17        -4.3170   -3.1110   -2.8550 os        1 BE9     -0.379600
     13 C16        -4.4840   -1.7100   -3.0010 c3        1 BE9      0.110900
     14 N9         -2.1110    0.7790   -0.3760 n2        1 BE9     -1.343600
     15 S10        -2.2080    2.1530   -0.1100 s4        1 BE9      2.007700
     16 N13        -3.2430    2.8410   -2.0960 n3        1 BE9     -1.105400
     17 O12        -3.2450    2.6160    0.6510 o         1 BE9     -0.484900
     18 O11        -1.1440    2.9760   -0.3570 o         1 BE9     -0.484900
     19 C1          2.1320    0.7130    2.1830 ca        1 BE9     -0.091000
     20 H5          1.2910   -0.0100   -1.0560 ha        1 BE9      0.156500
     21 H6          3.1270    1.0440    0.2830 ha        1 BE9      0.163000
     22 H2          0.9400    0.2500    3.9360 ha        1 BE9      0.163000
     23 H3         -0.9030   -0.8130    2.6130 ha        1 BE9      0.156500
     24 H19        -2.9760   -3.2820   -0.4060 h1        1 BE9      0.083200
     25 H19A       -1.3570   -2.9730   -1.2090 h1        1 BE9      0.083200
     26 H18        -2.3140   -3.1740   -3.4540 h1        1 BE9      0.081700
     27 H18A       -2.9790   -4.5720   -2.4560 h1        1 BE9      0.081700
     28 H16        -5.5850   -1.5700   -3.1730 h1        1 BE9      0.081700
     29 H16A       -3.9010   -1.3400   -3.8850 h1        1 BE9      0.081700
     30 HN13       -3.3840    2.1460   -2.8040 hn        1 BE9      0.400467
     31 HN1A       -2.6510    3.5660   -2.4660 hn        1 BE9      0.400467
     32 H1          2.9450    1.1710    2.7690 ha        1 BE9      0.163000
     33 H15        -4.8190   -1.1830   -0.9080 h1        1 BE9      0.083200
     34 H133       -4.1300    3.2420   -1.8460 hn        1 BE9      0.400467
     35 H15A       -4.0910    0.1390   -1.9430 h1        1 BE9      0.083200
@<TRIPOS>BOND
     1    1    2 ar  
     2    1    7 ar  
     3    1    8 1   
     4    2    3 ar  
     5    2   20 1   
     6    3   19 ar  
     7    3   21 1   
     8    4    8 1   
     9    4    9 1   
    10    4   14 2   
    11    5    9 1   
    12    5   13 1   
    13    5   33 1   
    14    5   35 1   
    15    6    7 ar  
    16    6   19 ar  
    17    6   22 1   
    18    7   23 1   
    19    9   10 1   
    20   10   11 1   
    21   10   24 1   
    22   10   25 1   
    23   11   12 1   
    24   11   26 1   
    25   11   27 1   
    26   12   13 1   
    27   13   28 1   
    28   13   29 1   
    29   14   15 1   
    30   15   17 1   
    31   15   18 1   
    32   16   30 1   
    33   16   31 1   
    34   16   34 1   
    35   19   32 1   
@<TRIPOS>SUBSTRUCTURE
     1 BE9         1 TEMP              0 ****  ****    0 ROOT
