@<TRIPOS>MOLECULE
BE9
   34    35     1     0     0
SMALL
bcc


@<TRIPOS>ATOM
      1 C4         -1.1480    1.8040    0.0590 ca        1 BE9      0.089100
      2 C5         -1.6150    2.3250   -1.1560 ca        1 BE9     -0.125000
      3 C6         -2.9470    2.7230   -1.2430 ca        1 BE9     -0.113000
      4 C8          0.6710    0.2680    0.4370 c2        1 BE9      1.087500
      5 C15         2.8180   -0.9470    0.4810 c3        1 BE9      0.156800
      6 C2         -3.3190    2.0520    1.0530 ca        1 BE9     -0.113000
      7 C3         -1.9870    1.6540    1.1670 ca        1 BE9     -0.125000
      8 O7          0.2260    1.5640    0.1410 os        1 BE9     -0.389700
      9 N14         2.0600    0.2810    0.6660 nh        1 BE9     -0.720600
     10 C19         2.8450    1.4580    0.3190 c3        1 BE9      0.156800
     11 C18         3.5540    1.3410   -1.0370 c3        1 BE9      0.094900
     12 O17         4.3140    0.1400   -1.1230 os        1 BE9     -0.408600
     13 C16         3.5310   -1.0230   -0.8780 c3        1 BE9      0.094900
     14 N9         -0.1250   -0.7190    0.5490 ne        1 BE9     -1.109300
     15 S10        -1.0870   -1.9080    0.7820 sy        1 BE9      1.758300
     16 N13        -0.1610   -3.1670    1.2400 n3        1 BE9     -1.032700
     17 O12        -1.9550   -1.6140    1.8680 o         1 BE9     -0.671800
     18 O11        -1.7140   -2.2800   -0.4350 o         1 BE9     -0.671800
     19 C1         -3.7970    2.5860   -0.1430 ca        1 BE9     -0.126000
     20 H5         -0.9350    2.4220   -2.0140 ha        1 BE9      0.152500
     21 H6         -3.3300    3.1370   -2.1870 ha        1 BE9      0.141500
     22 H15A        2.1730   -1.8560    0.6060 h1        1 BE9      0.080200
     23 H2         -3.9950    1.9300    1.9130 ha        1 BE9      0.141500
     24 H3         -1.6130    1.2100    2.1020 ha        1 BE9      0.152500
     25 H19         2.2120    2.3870    0.3290 h1        1 BE9      0.080200
     26 H19A        3.6260    1.5540    1.1280 h1        1 BE9      0.080200
     27 H18         2.8160    1.3820   -1.8810 h1        1 BE9      0.063450
     28 H18A        4.3130    2.1590   -1.1480 h1        1 BE9      0.063450
     29 H16         4.2730   -1.8630   -0.8760 h1        1 BE9      0.063450
     30 H16A        2.7930   -1.1630   -1.7120 h1        1 BE9      0.063450
     31 HN13        0.0550   -3.3690    2.1810 hn        1 BE9      0.435300
     32 HN1A        0.1620   -3.8550    0.6110 hn        1 BE9      0.435300
     33 H1         -4.8500    2.8940   -0.2240 ha        1 BE9      0.137000
     34 H15         3.5960   -0.9550    1.2980 h1        1 BE9      0.080200
@<TRIPOS>BOND
     1    1    2 ar  
     2    1    7 ar  
     3    1    8 1   
     4    2    3 ar  
     5    2   20 1   
     6    3   19 ar  
     7    3   21 1   
     8    4    8 1   
     9    4    9 1   
    10    4   14 2   
    11    5    9 1   
    12    5   13 1   
    13    5   22 1   
    14    5   34 1   
    15    6    7 ar  
    16    6   19 ar  
    17    6   23 1   
    18    7   24 1   
    19    9   10 1   
    20   10   11 1   
    21   10   25 1   
    22   10   26 1   
    23   11   12 1   
    24   11   27 1   
    25   11   28 1   
    26   12   13 1   
    27   13   29 1   
    28   13   30 1   
    29   14   15 1   
    30   15   16 1   
    31   15   17 2   
    32   15   18 2   
    33   16   31 1   
    34   16   32 1   
    35   19   33 1   
@<TRIPOS>SUBSTRUCTURE
     1 BE9         1 TEMP              0 ****  ****    0 ROOT
