@<TRIPOS>MOLECULE
BE9
   35    35     1     0     0
SMALL
bcc


@<TRIPOS>ATOM
      1 C4          0.0970   -0.4570    0.7140 ca        1 BE9      0.019100
      2 C5          1.2210    0.0180    0.0300 ca        1 BE9     -0.118000
      3 C6          2.2530    0.5890    0.7750 ca        1 BE9     -0.109000
      4 C8         -1.9470   -0.5180   -0.5410 c2        1 BE9      1.126500
      5 C15        -4.0810   -0.9330   -1.7120 c3        1 BE9      0.162800
      6 C2          1.0220    0.1970    2.8280 ca        1 BE9     -0.109000
      7 C3         -0.0250   -0.3770    2.1070 ca        1 BE9     -0.118000
      8 O7         -0.8700   -1.1900    0.0030 os        1 BE9     -0.330700
      9 N14        -2.7750   -1.3540   -1.2240 nh        1 BE9     -0.689600
     10 C19        -2.5140   -2.7940   -1.2560 c3        1 BE9      0.162800
     11 C18        -3.0250   -3.4580   -2.5430 c3        1 BE9      0.110900
     12 O17        -4.3700   -3.0910   -2.8170 os        1 BE9     -0.379600
     13 C16        -4.5110   -1.6900   -2.9810 c3        1 BE9      0.110900
     14 N9         -2.0910    0.7900   -0.3910 n2        1 BE9     -1.343600
     15 S10        -2.1610    2.1690   -0.1420 s4        1 BE9      2.007700
     16 N13        -3.1890    2.8500   -2.1340 n3        1 BE9     -1.105400
     17 O12        -3.1870    2.6610    0.6160 o         1 BE9     -0.484900
     18 O11        -1.0830    2.9680   -0.4040 o         1 BE9     -0.484900
     19 C1          2.1530    0.6790    2.1650 ca        1 BE9     -0.091000
     20 H5          1.2960   -0.0720   -1.0630 ha        1 BE9      0.156500
     21 H6          3.1520    0.9660    0.2610 ha        1 BE9      0.163000
     22 H2          0.9560    0.2610    3.9260 ha        1 BE9      0.163000
     23 H3         -0.9090   -0.7840    2.6190 ha        1 BE9      0.156500
     24 H19        -1.4070   -2.9870   -1.1730 h1        1 BE9      0.083200
     25 H19A       -3.0320   -3.2550   -0.3660 h1        1 BE9      0.083200
     26 H18        -2.3690   -3.1990   -3.4150 h1        1 BE9      0.081700
     27 H18A       -3.0590   -4.5720   -2.3990 h1        1 BE9      0.081700
     28 H16        -5.6090   -1.5310   -3.1540 h1        1 BE9      0.081700
     29 H16A       -3.9210   -1.3420   -3.8700 h1        1 BE9      0.081700
     30 HN13       -3.3460    2.1480   -2.8320 hn        1 BE9      0.400467
     31 HN1A       -4.0680    3.2700   -1.8860 hn        1 BE9      0.400467
     32 H1          2.9760    1.1290    2.7450 ha        1 BE9      0.163000
     33 H15        -4.8350   -1.1310   -0.8950 h1        1 BE9      0.083200
     34 H133       -2.5860    3.5590   -2.5150 hn        1 BE9      0.400467
     35 H15A       -4.0840    0.1660   -1.9460 h1        1 BE9      0.083200
@<TRIPOS>BOND
     1    1    2 ar  
     2    1    7 ar  
     3    1    8 1   
     4    2    3 ar  
     5    2   20 1   
     6    3   19 ar  
     7    3   21 1   
     8    4    8 1   
     9    4    9 1   
    10    4   14 2   
    11    5    9 1   
    12    5   13 1   
    13    5   33 1   
    14    5   35 1   
    15    6    7 ar  
    16    6   19 ar  
    17    6   22 1   
    18    7   23 1   
    19    9   10 1   
    20   10   11 1   
    21   10   24 1   
    22   10   25 1   
    23   11   12 1   
    24   11   26 1   
    25   11   27 1   
    26   12   13 1   
    27   13   28 1   
    28   13   29 1   
    29   14   15 1   
    30   15   17 1   
    31   15   18 1   
    32   16   30 1   
    33   16   31 1   
    34   16   34 1   
    35   19   32 1   
@<TRIPOS>SUBSTRUCTURE
     1 BE9         1 TEMP              0 ****  ****    0 ROOT
