@<TRIPOS>MOLECULE
BEA
   21    23     1     0     0
SMALL
bcc


@<TRIPOS>ATOM
      1 C1          1.5380    1.3120    0.0210 ca        1 BEA     -0.025300
      2 C2          1.2340    2.7590    0.0250 c3        1 BEA     -0.077800
      3 C3          2.8570    0.8440    0.0400 ca        1 BEA     -0.079000
      4 C4          3.1520   -0.5220    0.0370 ca        1 BEA     -0.087000
      5 C5          2.1400   -1.4800    0.0150 ca        1 BEA     -0.059000
      6 C6          0.8140   -1.0600   -0.0040 ca        1 BEA     -0.110100
      7 C7         -1.5830   -0.6820   -0.0400 cc        1 BEA     -0.020700
      8 C8          0.5190    0.3440   -0.0000 ca        1 BEA     -0.028200
      9 C9         -1.8370    1.5720   -0.0310 cc        1 BEA      0.469400
     10 N1         -0.8700    0.5480   -0.0210 na        1 BEA     -0.112000
     11 N2         -3.0660    1.0130   -0.0540 n2        1 BEA     -0.426800
     12 N3         -2.9150   -0.3270   -0.0590 na        1 BEA      0.031400
     13 S          -0.5980   -2.0330   -0.0320 ss        1 BEA      0.279200
     14 H21         0.6570    3.0420   -0.8930 hc        1 BEA      0.068367
     15 H22         0.6280    3.0320    0.9270 hc        1 BEA      0.068367
     16 H23         2.1740    3.3670    0.0430 hc        1 BEA      0.068367
     17 H3          3.6820    1.5770    0.0570 ha        1 BEA      0.174000
     18 H4          4.2070   -0.8480    0.0520 ha        1 BEA      0.175000
     19 H5          2.3890   -2.5540    0.0130 ha        1 BEA      0.172000
     20 H9         -1.5970    2.6480   -0.0210 h5        1 BEA      0.129100
     21 HN3        -3.7160   -0.9320   -0.0750 hn        1 BEA      0.390700
@<TRIPOS>BOND
     1    1    2 1   
     2    1    3 ar  
     3    1    8 ar  
     4    2   14 1   
     5    2   15 1   
     6    2   16 1   
     7    3    4 ar  
     8    3   17 1   
     9    4    5 ar  
    10    4   18 1   
    11    5    6 ar  
    12    5   19 1   
    13    6    8 ar  
    14    6   13 1   
    15    7   10 2   
    16    7   12 1   
    17    7   13 1   
    18    8   10 1   
    19    9   10 1   
    20    9   11 2   
    21    9   20 1   
    22   11   12 1   
    23   12   21 1   
@<TRIPOS>SUBSTRUCTURE
     1 BEA         1 TEMP              0 ****  ****    0 ROOT
