@<TRIPOS>MOLECULE
BEH
   83    79     1     0     0
SMALL
bcc


@<TRIPOS>ATOM
      1 C01        -0.1800    0.5070    0.0630 c3        1 BEH      0.044000
      2 O02        -1.5540    0.5230    0.1150 oh        1 BEH     -0.326000
      3 C03         0.3850    0.5510    1.4890 c3        1 BEH     -0.011000
      4 O04         1.7060    0.9330    1.4460 os        1 BEH     -0.255000
      5 C05         2.4470    0.6300    2.6500 c3        1 BEH      0.009000
      6 C06         3.7590    1.3960    2.6400 c2        1 BEH     -0.083000
      7 C07         4.8800    0.8580    3.2510 c2        1 BEH     -0.121000
      8 C08         6.0420    1.5950    3.3310 c1        1 BEH     -0.132000
      9 C09         6.0900    2.8690    2.8030 c1        1 BEH     -0.127000
     10 C10         4.9710    3.4070    2.1920 c1        1 BEH     -0.127000
     11 C11         3.8070    2.6690    2.1120 c1        1 BEH     -0.100000
     12 C12        -0.4220    1.5700    2.3350 c2        1 BEH      0.280000
     13 O13        -0.5270    2.7120    1.9600 o         1 BEH     -0.369000
     14 N14        -0.8850    1.2050    3.6290 n         1 BEH     -0.346000
     15 C15        -1.4720    2.1920    4.4830 c3        1 BEH      0.033000
     16 C16        -2.4420    1.5120    5.4680 c2        1 BEH     -0.110000
     17 C17        -3.6560    0.8590    5.2780 c2        1 BEH     -0.100000
     18 C18        -4.3740    0.3740    6.3840 c1        1 BEH     -0.138000
     19 C19        -3.8640    0.5500    7.6910 c1        1 BEH     -0.127000
     20 C20        -2.6370    1.2110    7.8860 c1        1 BEH     -0.127000
     21 C21        -1.9260    1.6910    6.7940 c1        1 BEH     -0.064000
     22 C22        -0.6400    2.5180    6.6920 c3        1 BEH     -0.128000
     23 C23        -0.4280    2.8590    5.2650 c3        1 BEH      0.017000
     24 O24         0.8720    2.3960    4.8400 oh        1 BEH     -0.332000
     25 C31         0.2890   -0.7760   -0.6380 c3        1 BEH      0.002000
     26 O32        -0.2880   -1.8640   -0.0330 oh        1 BEH     -0.348000
     27 C33        -0.1250   -0.7360   -2.1270 c3        1 BEH     -0.020000
     28 O34         0.9510   -0.2800   -2.9010 os        1 BEH     -0.257000
     29 C35         0.7120   -0.3290   -4.3220 c3        1 BEH      0.020000
     30 C36         2.0740   -0.4500   -5.0740 c2        1 BEH     -0.088000
     31 C37         2.2960    0.2980   -6.2320 c2        1 BEH     -0.116000
     32 C38         3.4420    0.0680   -7.0080 c1        1 BEH     -0.138000
     33 C39         4.3610   -0.9080   -6.6230 c1        1 BEH     -0.127000
     34 C40         4.1410   -1.6600   -5.4600 c1        1 BEH     -0.127000
     35 C41         3.0000   -1.4320   -4.6870 c1        1 BEH     -0.099000
     36 C42        -0.5220   -2.1270   -2.5800 c2        1 BEH      0.275000
     37 O43         0.2500   -3.0300   -2.4760 o         1 BEH     -0.378000
     38 N44        -1.8800   -2.3800   -3.0620 n         1 BEH     -0.368000
     39 C45        -2.1350   -3.5060   -3.9370 c3        1 BEH      0.015000
     40 C46        -3.3380   -3.2080   -4.8060 c2        1 BEH     -0.112000
     41 C47        -4.5460   -3.8650   -4.5730 c2        1 BEH     -0.119000
     42 C48        -5.6610   -3.5690   -5.3520 c1        1 BEH     -0.134000
     43 C49        -5.5700   -2.6160   -6.3650 c1        1 BEH     -0.127000
     44 C50        -4.3620   -1.9590   -6.5990 c1        1 BEH     -0.127000
     45 C51        -3.2460   -2.2560   -5.8190 c1        1 BEH     -0.113000
     46 H011        0.1380    1.2890   -0.4390 h1        1 BEH      0.149000
     47 H021       -1.8400   -0.1510    0.6230 ho        1 BEH      0.224000
     48 H031        0.3150   -0.3330    1.8920 h1        1 BEH      0.103000
     49 H051        2.6320   -0.3390    2.6890 h1        1 BEH      0.088000
     50 H052        1.9140    0.8970    3.4430 h1        1 BEH      0.088000
     51 H071        4.8460   -0.0700    3.6360 ha        1 BEH      0.130000
     52 H081        6.8380    1.2120    3.7660 ha        1 BEH      0.131000
     53 H091        6.9090    3.3880    2.8600 ha        1 BEH      0.132625
     54 H101        5.0040    4.3120    1.8170 ha        1 BEH      0.132625
     55 H111        3.0210    3.0470    1.6830 ha        1 BEH      0.150000
     56 H141       -0.8690    0.3340    3.8860 hn        1 BEH      0.226000
     57 H151       -1.9630    2.8620    3.9360 h1        1 BEH      0.125000
     58 H171       -4.0140    0.7340    4.3600 ha        1 BEH      0.141000
     59 H181       -5.2450   -0.0960    6.2470 ha        1 BEH      0.134000
     60 H191       -4.3630    0.2150    8.4570 ha        1 BEH      0.132625
     61 H201       -2.2800    1.3340    8.8050 ha        1 BEH      0.132625
     62 H221       -0.7310    3.3260    7.2120 hc        1 BEH      0.111000
     63 H222        0.1110    1.9980    7.0230 hc        1 BEH      0.111000
     64 H231       -0.4890    3.8130    5.1450 h1        1 BEH      0.089000
     65 H241        1.4930    3.0020    5.0630 ho        1 BEH      0.225000
     66 H311        1.2770   -0.8460   -0.5710 h1        1 BEH      0.140000
     67 H321        0.3250   -2.4530    0.1520 ho        1 BEH      0.237000
     68 H331       -0.8820   -0.1310   -2.2370 h1        1 BEH      0.109000
     69 H351        0.2510    0.4950   -4.6070 h1        1 BEH      0.083000
     70 H352        0.1470   -1.1140   -4.5350 h1        1 BEH      0.083000
     71 H371        1.6370    0.9990   -6.5090 ha        1 BEH      0.129000
     72 H381        3.6000    0.6050   -7.8390 ha        1 BEH      0.129000
     73 H391        5.1650   -1.0680   -7.1670 ha        1 BEH      0.132625
     74 H401        4.8080   -2.3680   -5.1810 ha        1 BEH      0.132625
     75 H411        2.8470   -1.9550   -3.8790 ha        1 BEH      0.163000
     76 H441       -2.5930   -1.8960   -2.7100 hn        1 BEH      0.246000
     77 H451       -2.3140   -4.3080   -3.3940 h1        1 BEH      0.105500
     78 H452       -1.3400   -3.6660   -4.5140 h1        1 BEH      0.105500
     79 H471       -4.6100   -4.5420   -3.8540 ha        1 BEH      0.130000
     80 H481       -6.4980   -4.0240   -5.1910 ha        1 BEH      0.131000
     81 H491       -6.3470   -2.4110   -6.9070 ha        1 BEH      0.132625
     82 H501       -4.2980   -1.2960   -7.3030 ha        1 BEH      0.132625
     83 H511       -2.3990   -1.7960   -5.9820 ha        1 BEH      0.151000
@<TRIPOS>BOND
     1    1    2 1   
     2    1    3 1   
     3    1   25 1   
     4    1   46 1   
     5    2   47 1   
     6    3    4 1   
     7    3   12 1   
     8    3   48 1   
     9    4    5 1   
    10    5    6 1   
    11    5   49 1   
    12    5   50 1   
    13    6    7 1   
    14    6   11 1   
    15    7    8 1   
    16    7   51 1   
    17    8   52 1   
    18    9   10 1   
    19    9   53 1   
    20   10   54 1   
    21   11   55 1   
    22   12   13 1   
    23   12   14 1   
    24   14   15 1   
    25   14   56 1   
    26   15   16 1   
    27   15   23 1   
    28   15   57 1   
    29   16   17 1   
    30   16   21 1   
    31   17   18 1   
    32   17   58 1   
    33   18   59 1   
    34   19   20 1   
    35   19   60 1   
    36   20   61 1   
    37   21   22 1   
    38   22   23 1   
    39   22   62 1   
    40   22   63 1   
    41   23   24 1   
    42   23   64 1   
    43   24   65 1   
    44   25   26 1   
    45   25   27 1   
    46   25   66 1   
    47   26   67 1   
    48   27   28 1   
    49   27   36 1   
    50   27   68 1   
    51   28   29 1   
    52   29   30 1   
    53   29   69 1   
    54   29   70 1   
    55   30   31 1   
    56   30   35 1   
    57   31   32 1   
    58   31   71 1   
    59   32   72 1   
    60   33   34 1   
    61   33   73 1   
    62   34   74 1   
    63   35   75 1   
    64   36   37 1   
    65   36   38 1   
    66   38   39 1   
    67   38   76 1   
    68   39   40 1   
    69   39   77 1   
    70   39   78 1   
    71   40   41 1   
    72   40   45 1   
    73   41   42 1   
    74   41   79 1   
    75   42   80 1   
    76   43   44 1   
    77   43   81 1   
    78   44   82 1   
    79   45   83 1   
@<TRIPOS>SUBSTRUCTURE
     1 BEH         1 TEMP              0 ****  ****    0 ROOT
