@<TRIPOS>MOLECULE
BEH
   83    87     1     0     0
SMALL
bcc


@<TRIPOS>ATOM
      1 C01        -0.1180    0.1570    0.7360 c3        1 BEH      0.105100
      2 O02        -0.6280   -0.2960    1.9760 oh        1 BEH     -0.601800
      3 C03        -0.3190    1.6640    0.4990 c3        1 BEH      0.045100
      4 O04        -0.3290    1.8260   -0.9150 os        1 BEH     -0.402600
      5 C05        -0.0070    3.1630   -1.3230 c3        1 BEH      0.164700
      6 C06        -0.2140    3.2700   -2.7960 ca        1 BEH     -0.090300
      7 C07        -0.2170    2.1430   -3.6230 ca        1 BEH     -0.114500
      8 C08        -0.3890    2.2880   -5.0000 ca        1 BEH     -0.132000
      9 C09        -0.5540    3.5560   -5.5560 ca        1 BEH     -0.128000
     10 C10        -0.5530    4.6820   -4.7320 ca        1 BEH     -0.132000
     11 C11        -0.3870    4.5420   -3.3570 ca        1 BEH     -0.114500
     12 C12        -1.6080    2.2640    1.0880 c         1 BEH      0.626100
     13 O13        -1.6160    3.4740    1.3930 o         1 BEH     -0.608100
     14 N14        -2.7370    1.4720    1.1800 n         1 BEH     -0.502900
     15 C15        -3.8440    1.8910    2.0050 c3        1 BEH      0.143000
     16 C16        -5.1480    1.2500    1.5930 ca        1 BEH     -0.106300
     17 C17        -5.7380    1.2670    0.3400 ca        1 BEH     -0.093000
     18 C18        -6.9770    0.6340    0.1730 ca        1 BEH     -0.134000
     19 C19        -7.6010    0.0010    1.2450 ca        1 BEH     -0.121000
     20 C20        -7.0030   -0.0190    2.5110 ca        1 BEH     -0.121000
     21 C21        -5.7750    0.6040    2.6790 ca        1 BEH     -0.077300
     22 C22        -4.9600    0.7010    3.9200 c3        1 BEH     -0.073100
     23 C23        -3.7370    1.5640    3.5460 c3        1 BEH      0.114100
     24 O24        -2.5170    0.8960    3.8190 oh        1 BEH     -0.607800
     25 C31         1.3870   -0.1780    0.6540 c3        1 BEH      0.110100
     26 O32         2.0610    0.2890    1.8060 oh        1 BEH     -0.601800
     27 C33         1.5650   -1.6960    0.4740 c3        1 BEH      0.047100
     28 O34         1.1990   -1.9650   -0.8750 os        1 BEH     -0.405600
     29 C35         0.7770   -3.3230   -1.0770 c3        1 BEH      0.163700
     30 C36         0.5490   -3.5270   -2.5380 ca        1 BEH     -0.087300
     31 C37         1.2700   -2.8080   -3.4960 ca        1 BEH     -0.114500
     32 C38         1.0580   -3.0460   -4.8530 ca        1 BEH     -0.132000
     33 C39         0.1290   -4.0040   -5.2600 ca        1 BEH     -0.128000
     34 C40        -0.5920   -4.7220   -4.3060 ca        1 BEH     -0.132000
     35 C41        -0.3870   -4.4830   -2.9480 ca        1 BEH     -0.114500
     36 C42         2.9860   -2.2330    0.7170 c         1 BEH      0.630100
     37 O43         3.1260   -3.4490    0.9690 o         1 BEH     -0.617100
     38 N44         4.0630   -1.3880    0.5590 n         1 BEH     -0.531900
     39 C45         5.4070   -1.8140    0.8550 c3        1 BEH      0.121300
     40 C46         5.9680   -1.2660    2.1370 ca        1 BEH     -0.120300
     41 C47         6.2210   -2.1180    3.2160 ca        1 BEH     -0.115000
     42 C48         6.7670   -1.6100    4.3940 ca        1 BEH     -0.132000
     43 C49         7.0570   -0.2500    4.5020 ca        1 BEH     -0.125000
     44 C50         6.8010    0.6040    3.4280 ca        1 BEH     -0.132000
     45 C51         6.2580    0.0970    2.2490 ca        1 BEH     -0.115000
     46 H011       -0.6660   -0.4380   -0.0510 h1        1 BEH      0.113700
     47 H021       -0.5390    0.4120    2.6290 ho        1 BEH      0.423000
     48 H031        0.5380    2.2340    0.9640 h1        1 BEH      0.084700
     49 H051       -0.6610    3.8920   -0.7690 h1        1 BEH      0.056200
     50 H052        1.0710    3.3650   -1.0680 h1        1 BEH      0.056200
     51 H071       -0.0910    1.1420   -3.1810 ha        1 BEH      0.142000
     52 H081       -0.3940    1.3980   -5.6460 ha        1 BEH      0.132000
     53 H091       -0.6880    3.6690   -6.6420 ha        1 BEH      0.130000
     54 H101       -0.6850    5.6830   -5.1690 ha        1 BEH      0.132000
     55 H111       -0.3930    5.4310   -2.7080 ha        1 BEH      0.142000
     56 H141       -2.6040    0.4830    1.1240 hn        1 BEH      0.323500
     57 H151       -3.9310    3.0160    1.9110 h1        1 BEH      0.099700
     58 H171       -5.2450    1.7640   -0.5080 ha        1 BEH      0.147000
     59 H181       -7.4580    0.6390   -0.8160 ha        1 BEH      0.135000
     60 H191       -8.5740   -0.4910    1.0990 ha        1 BEH      0.133000
     61 H201       -7.4980   -0.5230    3.3530 ha        1 BEH      0.135000
     62 H221       -4.6360   -0.3160    4.2620 hc        1 BEH      0.063200
     63 H222       -5.5400    1.1790    4.7490 hc        1 BEH      0.063200
     64 H231       -3.7540    2.5330    4.1150 h1        1 BEH      0.049700
     65 H241       -2.5450    0.6400    4.7490 ho        1 BEH      0.410000
     66 H311        1.8460    0.3800   -0.2100 h1        1 BEH      0.107700
     67 H321        1.7150   -0.2030    2.5640 ho        1 BEH      0.415000
     68 H331        0.8840   -2.2370    1.1940 h1        1 BEH      0.085700
     69 H351        1.5790   -4.0210   -0.7050 h1        1 BEH      0.058200
     70 H352       -0.1670   -3.4960   -0.4930 h1        1 BEH      0.058200
     71 H371        2.0000   -2.0510   -3.1700 ha        1 BEH      0.139000
     72 H381        1.6270   -2.4780   -5.6030 ha        1 BEH      0.131000
     73 H391       -0.0350   -4.1930   -6.3300 ha        1 BEH      0.130000
     74 H401       -1.3260   -5.4770   -4.6240 ha        1 BEH      0.131000
     75 H411       -0.9600   -5.0480   -2.1980 ha        1 BEH      0.139000
     76 H441        3.8940   -0.4070    0.6110 hn        1 BEH      0.319500
     77 H451        5.4340   -2.9430    0.8780 h1        1 BEH      0.071700
     78 H452        6.0620   -1.4650    0.0030 h1        1 BEH      0.071700
     79 H471        5.9870   -3.1910    3.1360 ha        1 BEH      0.135500
     80 H481        6.9680   -2.2840    5.2400 ha        1 BEH      0.132500
     81 H491        7.4870    0.1500    5.4320 ha        1 BEH      0.132000
     82 H501        7.0270    1.6770    3.5120 ha        1 BEH      0.132500
     83 H511        6.0590    0.7700    1.4010 ha        1 BEH      0.135500
@<TRIPOS>BOND
     1    1    2 1   
     2    1    3 1   
     3    1   25 1   
     4    1   46 1   
     5    2   47 1   
     6    3    4 1   
     7    3   12 1   
     8    3   48 1   
     9    4    5 1   
    10    5    6 1   
    11    5   49 1   
    12    5   50 1   
    13    6    7 ar  
    14    6   11 ar  
    15    7    8 ar  
    16    7   51 1   
    17    8    9 ar  
    18    8   52 1   
    19    9   10 ar  
    20    9   53 1   
    21   10   11 ar  
    22   10   54 1   
    23   11   55 1   
    24   12   13 2   
    25   12   14 1   
    26   14   15 1   
    27   14   56 1   
    28   15   16 1   
    29   15   23 1   
    30   15   57 1   
    31   16   17 ar  
    32   16   21 ar  
    33   17   18 ar  
    34   17   58 1   
    35   18   19 ar  
    36   18   59 1   
    37   19   20 ar  
    38   19   60 1   
    39   20   21 ar  
    40   20   61 1   
    41   21   22 1   
    42   22   23 1   
    43   22   62 1   
    44   22   63 1   
    45   23   24 1   
    46   23   64 1   
    47   24   65 1   
    48   25   26 1   
    49   25   27 1   
    50   25   66 1   
    51   26   67 1   
    52   27   28 1   
    53   27   36 1   
    54   27   68 1   
    55   28   29 1   
    56   29   30 1   
    57   29   69 1   
    58   29   70 1   
    59   30   31 ar  
    60   30   35 ar  
    61   31   32 ar  
    62   31   71 1   
    63   32   33 ar  
    64   32   72 1   
    65   33   34 ar  
    66   33   73 1   
    67   34   35 ar  
    68   34   74 1   
    69   35   75 1   
    70   36   37 2   
    71   36   38 1   
    72   38   39 1   
    73   38   76 1   
    74   39   40 1   
    75   39   77 1   
    76   39   78 1   
    77   40   41 ar  
    78   40   45 ar  
    79   41   42 ar  
    80   41   79 1   
    81   42   43 ar  
    82   42   80 1   
    83   43   44 ar  
    84   43   81 1   
    85   44   45 ar  
    86   44   82 1   
    87   45   83 1   
@<TRIPOS>SUBSTRUCTURE
     1 BEH         1 TEMP              0 ****  ****    0 ROOT
