@<TRIPOS>MOLECULE
BEH
   85    89     1     0     0
SMALL
bcc


@<TRIPOS>ATOM
      1 C01         1.4380    0.2400   -0.2670 c3        1 BEH      0.110100
      2 O02         0.0320    0.2260   -0.1590 oh        1 BEH     -0.601800
      3 C03         2.0250    0.5400    1.1390 c3        1 BEH      0.055100
      4 O04         3.2960   -0.0530    1.2040 os        1 BEH     -0.415600
      5 C05         3.8820   -0.0920    2.5290 c3        1 BEH      0.173700
      6 C06         5.0230   -1.0460    2.4610 ca        1 BEH     -0.139300
      7 C07         6.1350   -0.7530    1.6640 ca        1 BEH     -0.108500
      8 C08         7.2280   -1.6190    1.6470 ca        1 BEH     -0.126000
      9 C09         7.2150   -2.7750    2.4280 ca        1 BEH     -0.097000
     10 C10         6.1060   -3.0690    3.2230 ca        1 BEH     -0.126000
     11 C11         5.0080   -2.2100    3.2380 ca        1 BEH     -0.108500
     12 C12         2.1090    2.0540    1.3250 c         1 BEH      0.514100
     13 O13         3.1060    2.7210    1.5470 o         1 BEH     -0.394100
     14 N14         0.7930    2.7810    1.2290 n4        1 BEH     -0.668800
     15 C15         0.4470    3.5210    2.4990 c3        1 BEH      0.188800
     16 C16        -0.5070    4.6420    2.2100 ca        1 BEH     -0.197300
     17 C17        -0.2750    5.7760    1.4430 ca        1 BEH     -0.093000
     18 C18        -1.2960    6.7260    1.3340 ca        1 BEH     -0.116000
     19 C19        -2.5150    6.5370    1.9870 ca        1 BEH     -0.072000
     20 C20        -2.7440    5.3980    2.7700 ca        1 BEH     -0.101000
     21 C21        -1.7360    4.4510    2.8780 ca        1 BEH     -0.054300
     22 C22        -1.7350    3.1950    3.6760 c3        1 BEH     -0.079100
     23 C23        -0.2950    2.6500    3.5770 c3        1 BEH      0.134100
     24 O24        -0.2540    1.2840    3.1990 oh        1 BEH     -0.653800
     25 C31         2.0170   -1.0580   -0.8540 c3        1 BEH      0.122100
     26 O32         1.6680   -2.1700   -0.0450 oh        1 BEH     -0.646800
     27 C33         1.4070   -1.3140   -2.2520 c3        1 BEH      0.095100
     28 O34         1.7330   -0.1810   -3.0190 os        1 BEH     -0.392600
     29 C35         0.9370   -0.0220   -4.2180 c3        1 BEH      0.177700
     30 C36         1.2820    1.3100   -4.7860 ca        1 BEH     -0.133300
     31 C37         2.6000    1.5980   -5.1560 ca        1 BEH     -0.105500
     32 C38         2.9080    2.8270   -5.7380 ca        1 BEH     -0.126000
     33 C39         1.9010    3.7680   -5.9560 ca        1 BEH     -0.097000
     34 C40         0.5860    3.4830   -5.5850 ca        1 BEH     -0.126000
     35 C41         0.2750    2.2590   -4.9960 ca        1 BEH     -0.105500
     36 C42         2.0510   -2.5480   -2.8960 c         1 BEH      0.492100
     37 O43         2.8350   -2.5460   -3.8300 o         1 BEH     -0.377100
     38 N44         1.6520   -3.8780   -2.3170 n4        1 BEH     -0.678800
     39 C45         2.3590   -5.0500   -2.9460 c3        1 BEH      0.178100
     40 C46         1.8490   -6.3300   -2.3880 ca        1 BEH     -0.197300
     41 C47         0.7490   -6.9620   -2.9830 ca        1 BEH     -0.100500
     42 C48         0.3070   -8.1910   -2.4970 ca        1 BEH     -0.117500
     43 C49         0.9600   -8.7920   -1.4190 ca        1 BEH     -0.071000
     44 C50         2.0570   -8.1640   -0.8260 ca        1 BEH     -0.117500
     45 C51         2.5030   -6.9340   -1.3070 ca        1 BEH     -0.100500
     46 H011        1.6710    1.0750   -0.9930 h1        1 BEH      0.125700
     47 H021       -0.2310   -0.6080    0.2590 ho        1 BEH      0.434000
     48 H031        1.3410    0.1400    1.9500 h1        1 BEH      0.112700
     49 H051        4.2350    0.9460    2.7740 h1        1 BEH      0.061200
     50 H052        3.1060   -0.4230    3.2690 h1        1 BEH      0.061200
     51 H071        6.1480    0.1680    1.0610 ha        1 BEH      0.136000
     52 H081        8.1070   -1.3810    1.0280 ha        1 BEH      0.153000
     53 H091        8.0860   -3.4500    2.4270 ha        1 BEH      0.156000
     54 H101        6.1030   -3.9740    3.8500 ha        1 BEH      0.153000
     55 H111        4.1440   -2.4390    3.8800 ha        1 BEH      0.136000
     56 H141        0.0430    2.1020    1.0220 hn        1 BEH      0.473300
     57 H151        1.4200    3.9090    2.9240 hx        1 BEH      0.127700
     58 H171        0.6930    5.9460    0.9480 ha        1 BEH      0.142000
     59 H181       -1.1300    7.6360    0.7360 ha        1 BEH      0.165000
     60 H191       -3.3080    7.2990    1.8950 ha        1 BEH      0.168000
     61 H201       -3.7040    5.2650    3.2940 ha        1 BEH      0.165000
     62 H221       -2.0030    3.3940    4.7460 hc        1 BEH      0.091200
     63 H222       -2.4720    2.4560    3.2660 hc        1 BEH      0.091200
     64 H231        0.2480    2.7800    4.5540 h1        1 BEH      0.089700
     65 H241       -0.8490    0.8080    3.7960 ho        1 BEH      0.452000
     66 H311        3.1370   -0.9490   -0.9360 h1        1 BEH      0.118700
     67 H321        2.2430   -2.1380    0.7370 ho        1 BEH      0.460000
     68 H331        0.2930   -1.4660   -2.1770 h1        1 BEH      0.094700
     69 H351        1.2180   -0.8470   -4.9280 h1        1 BEH      0.053700
     70 H352       -0.1510   -0.0920   -3.9510 h1        1 BEH      0.053700
     71 H371        3.3900    0.8490   -4.9910 ha        1 BEH      0.136000
     72 H381        3.9450    3.0490   -6.0360 ha        1 BEH      0.151500
     73 H391        2.1430    4.7330   -6.4290 ha        1 BEH      0.154000
     74 H401       -0.2100    4.2210   -5.7690 ha        1 BEH      0.151500
     75 H411       -0.7660    2.0350   -4.7150 ha        1 BEH      0.136000
     76 H441        1.8470   -3.8640   -1.3040 hn        1 BEH      0.464800
     77 H451        3.4630   -4.9230   -2.7500 hx        1 BEH      0.115200
     78 H452        2.1870   -4.9930   -4.0610 hx        1 BEH      0.115200
     79 H471        0.2470   -6.5050   -3.8510 ha        1 BEH      0.137500
     80 H481       -0.5510   -8.6940   -2.9720 ha        1 BEH      0.163000
     81 H491        0.6150   -9.7690   -1.0420 ha        1 BEH      0.166000
     82 H501        2.5790   -8.6460    0.0160 ha        1 BEH      0.163000
     83 H511        3.3830   -6.4550   -0.8520 ha        1 BEH      0.137500
     84 H142        0.8380    3.4700    0.4670 hn        1 BEH      0.473300
     85 H442        0.6400   -4.0020   -2.4330 hn        1 BEH      0.464800
@<TRIPOS>BOND
     1    1    2 1   
     2    1    3 1   
     3    1   25 1   
     4    1   46 1   
     5    2   47 1   
     6    3    4 1   
     7    3   12 1   
     8    3   48 1   
     9    4    5 1   
    10    5    6 1   
    11    5   49 1   
    12    5   50 1   
    13    6    7 ar  
    14    6   11 ar  
    15    7    8 ar  
    16    7   51 1   
    17    8    9 ar  
    18    8   52 1   
    19    9   10 ar  
    20    9   53 1   
    21   10   11 ar  
    22   10   54 1   
    23   11   55 1   
    24   12   13 2   
    25   12   14 1   
    26   14   15 1   
    27   14   56 1   
    28   14   84 1   
    29   15   16 1   
    30   15   23 1   
    31   15   57 1   
    32   16   17 ar  
    33   16   21 ar  
    34   17   18 ar  
    35   17   58 1   
    36   18   19 ar  
    37   18   59 1   
    38   19   20 ar  
    39   19   60 1   
    40   20   21 ar  
    41   20   61 1   
    42   21   22 1   
    43   22   23 1   
    44   22   62 1   
    45   22   63 1   
    46   23   24 1   
    47   23   64 1   
    48   24   65 1   
    49   25   26 1   
    50   25   27 1   
    51   25   66 1   
    52   26   67 1   
    53   27   28 1   
    54   27   36 1   
    55   27   68 1   
    56   28   29 1   
    57   29   30 1   
    58   29   69 1   
    59   29   70 1   
    60   30   31 ar  
    61   30   35 ar  
    62   31   32 ar  
    63   31   71 1   
    64   32   33 ar  
    65   32   72 1   
    66   33   34 ar  
    67   33   73 1   
    68   34   35 ar  
    69   34   74 1   
    70   35   75 1   
    71   36   37 2   
    72   36   38 1   
    73   38   39 1   
    74   38   76 1   
    75   38   85 1   
    76   39   40 1   
    77   39   77 1   
    78   39   78 1   
    79   40   41 ar  
    80   40   45 ar  
    81   41   42 ar  
    82   41   79 1   
    83   42   43 ar  
    84   42   80 1   
    85   43   44 ar  
    86   43   81 1   
    87   44   45 ar  
    88   44   82 1   
    89   45   83 1   
@<TRIPOS>SUBSTRUCTURE
     1 BEH         1 TEMP              0 ****  ****    0 ROOT
