@<TRIPOS>MOLECULE
BEH
   85    89     1     0     0
SMALL
bcc


@<TRIPOS>ATOM
      1 C01         1.1590   -0.0010   -0.2640 c3        1 BEH      0.122100
      2 O02        -0.1820    0.4550   -0.2750 oh        1 BEH     -0.642800
      3 C03         1.6140   -0.0260    1.2150 c3        1 BEH      0.091100
      4 O04         2.9460   -0.4810    1.1880 os        1 BEH     -0.396600
      5 C05         3.4490   -0.9320    2.4680 c3        1 BEH      0.176700
      6 C06         4.7540   -1.5990    2.2040 ca        1 BEH     -0.133300
      7 C07         5.7820   -0.9040    1.5570 ca        1 BEH     -0.108000
      8 C08         7.0200   -1.5160    1.3630 ca        1 BEH     -0.126000
      9 C09         7.2360   -2.8170    1.8180 ca        1 BEH     -0.098000
     10 C10         6.2100   -3.5110    2.4620 ca        1 BEH     -0.126000
     11 C11         4.9680   -2.9070    2.6520 ca        1 BEH     -0.108000
     12 C12         1.5780    1.3880    1.8110 c         1 BEH      0.498100
     13 O13         2.5530    2.0660    2.0890 o         1 BEH     -0.385100
     14 N14         0.2100    1.9430    2.0770 n4        1 BEH     -0.662800
     15 C15         0.1750    3.2060    2.9030 c3        1 BEH      0.188800
     16 C16         0.1420    4.4290    2.0350 ca        1 BEH     -0.195300
     17 C17         1.1530    4.9200    1.2210 ca        1 BEH     -0.087000
     18 C18         0.9310    6.1160    0.5290 ca        1 BEH     -0.125000
     19 C19        -0.2770    6.8010    0.6630 ca        1 BEH     -0.075000
     20 C20        -1.2920    6.3140    1.4980 ca        1 BEH     -0.106000
     21 C21        -1.0770    5.1280    2.1860 ca        1 BEH     -0.053300
     22 C22        -1.9760    4.4570    3.1640 c3        1 BEH     -0.081100
     23 C23        -1.1210    3.3370    3.7910 c3        1 BEH      0.135100
     24 O24        -1.8000    2.0970    3.8260 oh        1 BEH     -0.644800
     25 C31         1.2480   -1.4210   -0.8510 c3        1 BEH      0.109100
     26 O32         0.4510   -2.3610   -0.1620 oh        1 BEH     -0.610800
     27 C33         0.8240   -1.4510   -2.3440 c3        1 BEH      0.060100
     28 O34         1.0730   -0.1800   -2.8830 os        1 BEH     -0.410600
     29 C35         0.4680    0.0630   -4.1790 c3        1 BEH      0.171700
     30 C36         0.5560    1.5290   -4.4200 ca        1 BEH     -0.140300
     31 C37         1.8040    2.1390   -4.5870 ca        1 BEH     -0.106500
     32 C38         1.8810    3.5010   -4.8750 ca        1 BEH     -0.125500
     33 C39         0.7140    4.2550   -5.0020 ca        1 BEH     -0.096000
     34 C40        -0.5320    3.6480   -4.8340 ca        1 BEH     -0.125500
     35 C41        -0.6140    2.2880   -4.5390 ca        1 BEH     -0.106500
     36 C42         1.6270   -2.5250   -3.0800 c         1 BEH      0.498100
     37 O43         2.3110   -2.3720   -4.0780 o         1 BEH     -0.383100
     38 N44         1.5290   -3.9160   -2.5130 n4        1 BEH     -0.685800
     39 C45         2.8810   -4.5660   -2.3400 c3        1 BEH      0.182100
     40 C46         2.7290   -6.0120   -2.0320 ca        1 BEH     -0.202300
     41 C47         2.8010   -6.9560   -3.0640 ca        1 BEH     -0.098000
     42 C48         2.7060   -8.3150   -2.7690 ca        1 BEH     -0.118000
     43 C49         2.5390   -8.7350   -1.4470 ca        1 BEH     -0.068000
     44 C50         2.4680   -7.7930   -0.4170 ca        1 BEH     -0.118000
     45 C51         2.5630   -6.4340   -0.7060 ca        1 BEH     -0.098000
     46 H011        1.8310    0.6800   -0.8610 h1        1 BEH      0.120700
     47 H021       -0.3750    0.7380   -1.1840 ho        1 BEH      0.459000
     48 H031        0.9510   -0.7060    1.8220 h1        1 BEH      0.095700
     49 H051        3.5840   -0.0270    3.1200 h1        1 BEH      0.055700
     50 H052        2.7080   -1.6360    2.9310 h1        1 BEH      0.055700
     51 H071        5.6110    0.1260    1.2110 ha        1 BEH      0.136000
     52 H081        7.8310   -0.9650    0.8610 ha        1 BEH      0.151000
     53 H091        8.2190   -3.2940    1.6770 ha        1 BEH      0.155000
     54 H101        6.3860   -4.5330    2.8330 ha        1 BEH      0.151000
     55 H111        4.1680   -3.4540    3.1720 ha        1 BEH      0.136000
     56 H141       -0.2420    2.1210    1.1660 hn        1 BEH      0.475300
     57 H151        1.0860    3.1920    3.5690 hx        1 BEH      0.126700
     58 H171        2.1190    4.3970    1.1380 ha        1 BEH      0.146000
     59 H181        1.7250    6.5260   -0.1150 ha        1 BEH      0.160000
     60 H191       -0.4340    7.7460    0.1170 ha        1 BEH      0.164000
     61 H201       -2.2340    6.8710    1.6140 ha        1 BEH      0.165000
     62 H221       -2.8820    4.0320    2.6610 hc        1 BEH      0.092200
     63 H222       -2.3220    5.1730    3.9540 hc        1 BEH      0.092200
     64 H231       -0.7880    3.6220    4.8270 h1        1 BEH      0.089700
     65 H241       -2.5630    2.2020    4.4120 ho        1 BEH      0.461000
     66 H311        2.3130   -1.7790   -0.7230 h1        1 BEH      0.124700
     67 H321       -0.4070   -1.9510    0.0280 ho        1 BEH      0.440000
     68 H331       -0.2700   -1.7250   -2.4340 h1        1 BEH      0.090700
     69 H351        1.0600   -0.5100   -4.9440 h1        1 BEH      0.061700
     70 H352       -0.5960   -0.2940   -4.1640 h1        1 BEH      0.061700
     71 H371        2.7220    1.5380   -4.5020 ha        1 BEH      0.136500
     72 H381        2.8640    3.9770   -5.0180 ha        1 BEH      0.152500
     73 H391        0.7750    5.3280   -5.2470 ha        1 BEH      0.155000
     74 H401       -1.4530    4.2410   -4.9470 ha        1 BEH      0.152500
     75 H411       -1.6000    1.8130   -4.4250 ha        1 BEH      0.136500
     76 H441        1.0460   -3.8940   -1.6030 hn        1 BEH      0.467800
     77 H451        3.4070   -4.0210   -1.5040 hx        1 BEH      0.113200
     78 H452        3.4550   -4.4130   -3.3010 hx        1 BEH      0.113200
     79 H471        2.9520   -6.6330   -4.1060 ha        1 BEH      0.138500
     80 H481        2.7720   -9.0590   -3.5800 ha        1 BEH      0.164000
     81 H491        2.4700   -9.8110   -1.2150 ha        1 BEH      0.167000
     82 H501        2.3450   -8.1270    0.6260 ha        1 BEH      0.164000
     83 H511        2.5270   -5.6970    0.1100 ha        1 BEH      0.138500
     84 H142       -0.3450    1.2200    2.5590 hn        1 BEH      0.475300
     85 H442        0.9760   -4.5000   -3.1550 hn        1 BEH      0.467800
@<TRIPOS>BOND
     1    1    2 1   
     2    1    3 1   
     3    1   25 1   
     4    1   46 1   
     5    2   47 1   
     6    3    4 1   
     7    3   12 1   
     8    3   48 1   
     9    4    5 1   
    10    5    6 1   
    11    5   49 1   
    12    5   50 1   
    13    6    7 ar  
    14    6   11 ar  
    15    7    8 ar  
    16    7   51 1   
    17    8    9 ar  
    18    8   52 1   
    19    9   10 ar  
    20    9   53 1   
    21   10   11 ar  
    22   10   54 1   
    23   11   55 1   
    24   12   13 2   
    25   12   14 1   
    26   14   15 1   
    27   14   56 1   
    28   14   84 1   
    29   15   16 1   
    30   15   23 1   
    31   15   57 1   
    32   16   17 ar  
    33   16   21 ar  
    34   17   18 ar  
    35   17   58 1   
    36   18   19 ar  
    37   18   59 1   
    38   19   20 ar  
    39   19   60 1   
    40   20   21 ar  
    41   20   61 1   
    42   21   22 1   
    43   22   23 1   
    44   22   62 1   
    45   22   63 1   
    46   23   24 1   
    47   23   64 1   
    48   24   65 1   
    49   25   26 1   
    50   25   27 1   
    51   25   66 1   
    52   26   67 1   
    53   27   28 1   
    54   27   36 1   
    55   27   68 1   
    56   28   29 1   
    57   29   30 1   
    58   29   69 1   
    59   29   70 1   
    60   30   31 ar  
    61   30   35 ar  
    62   31   32 ar  
    63   31   71 1   
    64   32   33 ar  
    65   32   72 1   
    66   33   34 ar  
    67   33   73 1   
    68   34   35 ar  
    69   34   74 1   
    70   35   75 1   
    71   36   37 2   
    72   36   38 1   
    73   38   39 1   
    74   38   76 1   
    75   38   85 1   
    76   39   40 1   
    77   39   77 1   
    78   39   78 1   
    79   40   41 ar  
    80   40   45 ar  
    81   41   42 ar  
    82   41   79 1   
    83   42   43 ar  
    84   42   80 1   
    85   43   44 ar  
    86   43   81 1   
    87   44   45 ar  
    88   44   82 1   
    89   45   83 1   
@<TRIPOS>SUBSTRUCTURE
     1 BEH         1 TEMP              0 ****  ****    0 ROOT
