@<TRIPOS>MOLECULE
BEH
   85    89     1     0     0
SMALL
bcc


@<TRIPOS>ATOM
      1 C01         1.4380    0.2400   -0.2730 c3        1 BEH      0.110100
      2 O02         0.0300    0.2250   -0.1730 oh        1 BEH     -0.601800
      3 C03         2.0160    0.5450    1.1350 c3        1 BEH      0.055100
      4 O04         3.2860   -0.0480    1.2100 os        1 BEH     -0.415600
      5 C05         3.8650   -0.0810    2.5380 c3        1 BEH      0.173700
      6 C06         5.0060   -1.0360    2.4810 ca        1 BEH     -0.139300
      7 C07         6.1230   -0.7460    1.6890 ca        1 BEH     -0.108500
      8 C08         7.2150   -1.6130    1.6820 ca        1 BEH     -0.126000
      9 C09         7.1980   -2.7660    2.4670 ca        1 BEH     -0.097000
     10 C10         6.0830   -3.0570    3.2570 ca        1 BEH     -0.126000
     11 C11         4.9860   -2.1970    3.2620 ca        1 BEH     -0.108500
     12 C12         2.0990    2.0600    1.3150 c         1 BEH      0.514100
     13 O13         3.0950    2.7280    1.5400 o         1 BEH     -0.394100
     14 N14         0.7830    2.7860    1.2090 ny        1 BEH     -0.668800
     15 C15         0.4300    3.5320    2.4740 c3        1 BEH      0.188800
     16 C16        -0.5220    4.6510    2.1750 ca        1 BEH     -0.197300
     17 C17        -0.2850    5.7820    1.4050 ca        1 BEH     -0.093000
     18 C18        -1.3060    6.7310    1.2860 ca        1 BEH     -0.116000
     19 C19        -2.5290    6.5460    1.9330 ca        1 BEH     -0.072000
     20 C20        -2.7620    5.4090    2.7190 ca        1 BEH     -0.101000
     21 C21        -1.7550    4.4630    2.8370 ca        1 BEH     -0.054300
     22 C22        -1.7590    3.2100    3.6400 c3        1 BEH     -0.079100
     23 C23        -0.3180    2.6650    3.5510 c3        1 BEH      0.134100
     24 O24        -0.2750    1.2980    3.1800 oh        1 BEH     -0.653800
     25 C31         2.0200   -1.0610   -0.8520 c3        1 BEH      0.122100
     26 O32         1.6670   -2.1700   -0.0410 oh        1 BEH     -0.646800
     27 C33         1.4180   -1.3220   -2.2530 c3        1 BEH      0.095100
     28 O34         1.7470   -0.1920   -3.0220 os        1 BEH     -0.392600
     29 C35         0.9570   -0.0380   -4.2250 c3        1 BEH      0.177700
     30 C36         1.3030    1.2930   -4.7960 ca        1 BEH     -0.133300
     31 C37         2.6230    1.5800   -5.1610 ca        1 BEH     -0.105500
     32 C38         2.9320    2.8080   -5.7450 ca        1 BEH     -0.126000
     33 C39         1.9250    3.7480   -5.9710 ca        1 BEH     -0.097000
     34 C40         0.6090    3.4620   -5.6060 ca        1 BEH     -0.126000
     35 C41         0.2960    2.2390   -5.0140 ca        1 BEH     -0.105500
     36 C42         2.0660   -2.5590   -2.8880 c         1 BEH      0.492100
     37 O43         2.8550   -2.5590   -3.8180 o         1 BEH     -0.377100
     38 N44         1.6660   -3.8860   -2.3060 ny        1 BEH     -0.678800
     39 C45         2.3780   -5.0600   -2.9260 c3        1 BEH      0.178100
     40 C46         1.8670   -6.3390   -2.3650 ca        1 BEH     -0.197300
     41 C47         0.7720   -6.9750   -2.9650 ca        1 BEH     -0.100500
     42 C48         0.3300   -8.2020   -2.4750 ca        1 BEH     -0.117500
     43 C49         0.9770   -8.7980   -1.3900 ca        1 BEH     -0.071000
     44 C50         2.0690   -8.1650   -0.7930 ca        1 BEH     -0.117500
     45 C51         2.5150   -6.9360   -1.2780 ca        1 BEH     -0.100500
     46 H011        1.6730    1.0720   -1.0000 h1        1 BEH      0.125700
     47 H021       -0.2340   -0.6070    0.2470 ho        1 BEH      0.434000
     48 H031        1.3280    0.1480    1.9440 h1        1 BEH      0.112700
     49 H051        3.0840   -0.4090    3.2750 h1        1 BEH      0.061200
     50 H052        4.2170    0.9580    2.7810 h1        1 BEH      0.061200
     51 H071        6.1400    0.1720    1.0830 ha        1 BEH      0.136000
     52 H081        8.0990   -1.3780    1.0680 ha        1 BEH      0.153000
     53 H091        8.0680   -3.4420    2.4740 ha        1 BEH      0.156000
     54 H101        6.0760   -3.9600    3.8870 ha        1 BEH      0.153000
     55 H111        4.1180   -2.4230    3.8990 ha        1 BEH      0.136000
     56 H141        0.8330    3.4720    0.4440 hn        1 BEH      0.473300
     57 H151        1.4010    3.9210    2.9030 hx        1 BEH      0.127700
     58 H171        0.6850    5.9500    0.9140 ha        1 BEH      0.142000
     59 H181       -1.1370    7.6390    0.6840 ha        1 BEH      0.165000
     60 H191       -3.3210    7.3070    1.8330 ha        1 BEH      0.168000
     61 H201       -3.7250    5.2790    3.2380 ha        1 BEH      0.165000
     62 H221       -2.0330    3.4140    4.7080 hc        1 BEH      0.091200
     63 H222       -2.4940    2.4700    3.2290 hc        1 BEH      0.091200
     64 H231        0.2200    2.7990    4.5310 h1        1 BEH      0.089700
     65 H241       -0.8730    0.8240    3.7750 ho        1 BEH      0.452000
     66 H311        3.1400   -0.9510   -0.9280 h1        1 BEH      0.118700
     67 H321        2.2370   -2.1350    0.7450 ho        1 BEH      0.460000
     68 H331        0.3030   -1.4760   -2.1820 h1        1 BEH      0.094700
     69 H351        1.2430   -0.8650   -4.9310 h1        1 BEH      0.053700
     70 H352       -0.1320   -0.1090   -3.9640 h1        1 BEH      0.053700
     71 H371        3.4120    0.8330   -4.9890 ha        1 BEH      0.136000
     72 H381        3.9700    3.0300   -6.0380 ha        1 BEH      0.151500
     73 H391        2.1680    4.7110   -6.4460 ha        1 BEH      0.154000
     74 H401       -0.1870    4.1990   -5.7960 ha        1 BEH      0.151500
     75 H411       -0.7460    2.0150   -4.7380 ha        1 BEH      0.136000
     76 H441        0.6550   -4.0120   -2.4270 hn        1 BEH      0.464800
     77 H451        2.2120   -5.0080   -4.0420 hx        1 BEH      0.115200
     78 H452        3.4810   -4.9310   -2.7250 hx        1 BEH      0.115200
     79 H471        0.2750   -6.5240   -3.8370 ha        1 BEH      0.137500
     80 H481       -0.5250   -8.7090   -2.9540 ha        1 BEH      0.163000
     81 H491        0.6310   -9.7740   -1.0110 ha        1 BEH      0.166000
     82 H501        2.5870   -8.6420    0.0540 ha        1 BEH      0.163000
     83 H511        3.3920   -6.4530   -0.8190 ha        1 BEH      0.137500
     84 H142        0.0340    2.1060    1.0000 hn        1 BEH      0.473300
     85 H442        1.8550   -3.8680   -1.2920 hn        1 BEH      0.464800
@<TRIPOS>BOND
     1    1    2 1   
     2    1    3 1   
     3    1   25 1   
     4    1   46 1   
     5    2   47 1   
     6    3    4 1   
     7    3   12 1   
     8    3   48 1   
     9    4    5 1   
    10    5    6 1   
    11    5   49 1   
    12    5   50 1   
    13    6    7 ar  
    14    6   11 ar  
    15    7    8 ar  
    16    7   51 1   
    17    8    9 ar  
    18    8   52 1   
    19    9   10 ar  
    20    9   53 1   
    21   10   11 ar  
    22   10   54 1   
    23   11   55 1   
    24   12   13 2   
    25   12   14 1   
    26   14   15 1   
    27   14   56 1   
    28   14   84 1   
    29   15   16 1   
    30   15   23 1   
    31   15   57 1   
    32   16   17 ar  
    33   16   21 ar  
    34   17   18 ar  
    35   17   58 1   
    36   18   19 ar  
    37   18   59 1   
    38   19   20 ar  
    39   19   60 1   
    40   20   21 ar  
    41   20   61 1   
    42   21   22 1   
    43   22   23 1   
    44   22   62 1   
    45   22   63 1   
    46   23   24 1   
    47   23   64 1   
    48   24   65 1   
    49   25   26 1   
    50   25   27 1   
    51   25   66 1   
    52   26   67 1   
    53   27   28 1   
    54   27   36 1   
    55   27   68 1   
    56   28   29 1   
    57   29   30 1   
    58   29   69 1   
    59   29   70 1   
    60   30   31 ar  
    61   30   35 ar  
    62   31   32 ar  
    63   31   71 1   
    64   32   33 ar  
    65   32   72 1   
    66   33   34 ar  
    67   33   73 1   
    68   34   35 ar  
    69   34   74 1   
    70   35   75 1   
    71   36   37 2   
    72   36   38 1   
    73   38   39 1   
    74   38   76 1   
    75   38   85 1   
    76   39   40 1   
    77   39   77 1   
    78   39   78 1   
    79   40   41 ar  
    80   40   45 ar  
    81   41   42 ar  
    82   41   79 1   
    83   42   43 ar  
    84   42   80 1   
    85   43   44 ar  
    86   43   81 1   
    87   44   45 ar  
    88   44   82 1   
    89   45   83 1   
@<TRIPOS>SUBSTRUCTURE
     1 BEH         1 TEMP              0 ****  ****    0 ROOT
