@<TRIPOS>MOLECULE
BEK
   21    21     1     0     0
SMALL
bcc


@<TRIPOS>ATOM
      1 C1         -0.0210   -0.4450    0.0300 c         1 BEK      0.582700
      2 O           0.7180   -1.4080    0.1710 o         1 BEK     -0.390100
      3 N           0.0190    0.5320    1.1900 nz        1 BEK     -0.757400
      4 C2         -0.9350   -0.1470   -1.0640 ca        1 BEK     -0.297600
      5 C3         -1.4220   -1.2450   -1.8180 ca        1 BEK      0.200900
      6 C7         -1.3120    1.1630   -1.4580 ca        1 BEK      0.200900
      7 F3         -1.0880   -2.5000   -1.4750 f         1 BEK     -0.095400
      8 F7         -0.8520    2.2420   -0.7810 f         1 BEK     -0.095400
      9 C4         -2.2810   -1.0480   -2.9320 ca        1 BEK      0.051400
     10 C6         -2.1530    1.3740   -2.5650 ca        1 BEK      0.051400
     11 C5         -2.6490    0.2590   -3.3170 ca        1 BEK      0.204100
     12 F4         -2.7210   -2.1370   -3.6000 f         1 BEK     -0.077900
     13 F6         -2.4950    2.6250   -2.9250 f         1 BEK     -0.077900
     14 O5         -3.4470    0.6190   -4.3480 os        1 BEK     -0.268900
     15 C8         -3.9890   -0.3930   -5.2100 c3        1 BEK      0.103700
     16 HN1        -0.9280    0.6860    1.5490 hn        1 BEK      0.474133
     17 HN2         0.6160    0.1580    1.9380 hn        1 BEK      0.474133
     18 H81        -4.6620   -1.0710   -4.6330 h1        1 BEK      0.081700
     19 H82        -3.1660   -0.9600   -5.7070 h1        1 BEK      0.081700
     20 H83        -4.5680    0.2200   -5.9520 h1        1 BEK      0.081700
     21 HN3         0.3970    1.4340    0.8720 hn        1 BEK      0.474133
@<TRIPOS>BOND
     1    1    2 2   
     2    1    3 1   
     3    1    4 1   
     4    3   16 1   
     5    3   17 1   
     6    3   21 1   
     7    4    5 ar  
     8    4    6 ar  
     9    5    7 1   
    10    5    9 ar  
    11    6    8 1   
    12    6   10 ar  
    13    9   11 ar  
    14    9   12 1   
    15   10   11 ar  
    16   10   13 1   
    17   11   14 1   
    18   14   15 1   
    19   15   18 1   
    20   15   19 1   
    21   15   20 1   
@<TRIPOS>SUBSTRUCTURE
     1 BEK         1 TEMP              0 ****  ****    0 ROOT
