@<TRIPOS>MOLECULE
BEK
   20    20     1     0     0
SMALL
bcc


@<TRIPOS>ATOM
      1 C1          0.1960   -0.0480   -2.7250 c         1 BEK      0.675700
      2 O           0.7550    0.8680   -3.3570 o         1 BEK     -0.574100
      3 N          -0.3710   -1.1150   -3.3770 n         1 BEK     -0.657000
      4 C2          0.1590   -0.0510   -1.2290 ca        1 BEK     -0.183600
      5 C3         -1.0380   -0.2720   -0.5240 ca        1 BEK      0.152900
      6 C7          1.3430    0.2200   -0.5170 ca        1 BEK      0.152900
      7 F3         -2.1900   -0.5390   -1.1810 f         1 BEK     -0.102400
      8 F7          2.5080    0.4230   -1.1640 f         1 BEK     -0.102400
      9 C4         -1.0660   -0.2070    0.8940 ca        1 BEK      0.077900
     10 C6          1.3320    0.2670    0.9050 ca        1 BEK      0.077900
     11 C5          0.1240    0.0620    1.6020 ca        1 BEK      0.091100
     12 F4         -2.2300   -0.4060    1.5480 f         1 BEK     -0.103400
     13 F6          2.4740    0.5180    1.5760 f         1 BEK     -0.103400
     14 O5          0.1290    0.2530    2.9680 os        1 BEK     -0.311900
     15 C8         -0.1500   -0.9230    3.7360 c3        1 BEK      0.109700
     16 HN1        -0.4070   -1.1030   -4.3670 hn        1 BEK      0.318000
     17 HN2        -0.9340   -1.7640   -2.8890 hn        1 BEK      0.318000
     18 H81        -0.1080   -0.5510    4.7900 h1        1 BEK      0.054367
     19 H82        -1.1650   -1.3180    3.4900 h1        1 BEK      0.054367
     20 H83         0.6330   -1.6970    3.5530 h1        1 BEK      0.054367
@<TRIPOS>BOND
     1    1    2 2   
     2    1    3 1   
     3    1    4 1   
     4    3   16 1   
     5    3   17 1   
     6    4    5 ar  
     7    4    6 ar  
     8    5    7 1   
     9    5    9 ar  
    10    6    8 1   
    11    6   10 ar  
    12    9   11 ar  
    13    9   12 1   
    14   10   11 ar  
    15   10   13 1   
    16   11   14 1   
    17   14   15 1   
    18   15   18 1   
    19   15   19 1   
    20   15   20 1   
@<TRIPOS>SUBSTRUCTURE
     1 BEK         1 TEMP              0 ****  ****    0 ROOT
