@<TRIPOS>MOLECULE
BEK
   21    21     1     0     0
SMALL
bcc


@<TRIPOS>ATOM
      1 C1         -0.0460   -0.4700    0.0460 c         1 BEK      0.582700
      2 O           0.6810   -1.4410    0.1920 o         1 BEK     -0.390100
      3 N          -0.0080    0.5040    1.2090 n4        1 BEK     -0.757400
      4 C2         -0.9460   -0.1590   -1.0560 ca        1 BEK     -0.297600
      5 C3         -1.4380   -1.2490   -1.8180 ca        1 BEK      0.200900
      6 C7         -1.3040    1.1570   -1.4510 ca        1 BEK      0.200900
      7 F3         -1.1220   -2.5090   -1.4740 f         1 BEK     -0.095900
      8 F7         -0.8380    2.2280   -0.7670 f         1 BEK     -0.095900
      9 C4         -2.2840   -1.0390   -2.9400 ca        1 BEK      0.051400
     10 C6         -2.1310    1.3800   -2.5650 ca        1 BEK      0.051400
     11 C5         -2.6330    0.2730   -3.3250 ca        1 BEK      0.204100
     12 F4         -2.7290   -2.1220   -3.6150 f         1 BEK     -0.077900
     13 F6         -2.4550    2.6350   -2.9260 f         1 BEK     -0.077900
     14 O5         -3.4160    0.6440   -4.3630 os        1 BEK     -0.268900
     15 C8         -3.9620   -0.3590   -5.2330 c3        1 BEK      0.103700
     16 HN1        -0.9560    0.6670    1.5590 hn        1 BEK      0.474133
     17 HN2         0.5780    0.1210    1.9620 hn        1 BEK      0.474133
     18 H81        -3.1400   -0.9340   -5.7230 h1        1 BEK      0.081700
     19 H82        -4.5250    0.2620   -5.9790 h1        1 BEK      0.081700
     20 H83        -4.6470   -1.0310   -4.6640 h1        1 BEK      0.081700
     21 HN3         0.3830    1.4030    0.8980 hn        1 BEK      0.474133
@<TRIPOS>BOND
     1    1    2 2   
     2    1    3 1   
     3    1    4 1   
     4    3   16 1   
     5    3   17 1   
     6    3   21 1   
     7    4    5 ar  
     8    4    6 ar  
     9    5    7 1   
    10    5    9 ar  
    11    6    8 1   
    12    6   10 ar  
    13    9   11 ar  
    14    9   12 1   
    15   10   11 ar  
    16   10   13 1   
    17   11   14 1   
    18   14   15 1   
    19   15   18 1   
    20   15   19 1   
    21   15   20 1   
@<TRIPOS>SUBSTRUCTURE
     1 BEK         1 TEMP              0 ****  ****    0 ROOT
