@<TRIPOS>MOLECULE
BEK
   21    21     1     0     0
SMALL
bcc


@<TRIPOS>ATOM
      1 C1         -0.0520   -0.5590    0.0280 c         1 BEK      0.582700
      2 O           0.6220   -1.5680    0.1690 o         1 BEK     -0.390100
      3 N           0.0540    0.4140    1.1880 n4        1 BEK     -0.757400
      4 C2         -0.9450   -0.2010   -1.0640 ca        1 BEK     -0.297600
      5 C3         -1.5040   -1.2650   -1.8180 ca        1 BEK      0.200900
      6 C7         -1.2370    1.1320   -1.4580 ca        1 BEK      0.200900
      7 F3         -1.2530   -2.5390   -1.4760 f         1 BEK     -0.095400
      8 F7         -0.7060    2.1770   -0.7820 f         1 BEK     -0.095400
      9 C4         -2.3490   -1.0110   -2.9320 ca        1 BEK      0.051400
     10 C6         -2.0620    1.3970   -2.5640 ca        1 BEK      0.051400
     11 C5         -2.6310    0.3170   -3.3160 ca        1 BEK      0.204100
     12 F4         -2.8600   -2.0690   -3.5990 f         1 BEK     -0.077900
     13 F6         -2.3220    2.6670   -2.9250 f         1 BEK     -0.077900
     14 O5         -3.4050    0.7290   -4.3460 os        1 BEK     -0.268900
     15 C8         -4.0130   -0.2450   -5.2080 c3        1 BEK      0.103700
     16 HN1        -0.8800    0.6310    1.5480 hn        1 BEK      0.474133
     17 HN2         0.6260    0.0010    1.9350 hn        1 BEK      0.474133
     18 H81        -4.7280   -0.8780   -4.6300 h1        1 BEK      0.081700
     19 H82        -3.2300   -0.8650   -5.7060 h1        1 BEK      0.081700
     20 H83        -4.5510    0.4050   -5.9490 h1        1 BEK      0.081700
     21 HN3         0.4900    1.2890    0.8700 hn        1 BEK      0.474133
@<TRIPOS>BOND
     1    1    2 2   
     2    1    3 1   
     3    1    4 1   
     4    3   16 1   
     5    3   17 1   
     6    3   21 1   
     7    4    5 ar  
     8    4    6 ar  
     9    5    7 1   
    10    5    9 ar  
    11    6    8 1   
    12    6   10 ar  
    13    9   11 ar  
    14    9   12 1   
    15   10   11 ar  
    16   10   13 1   
    17   11   14 1   
    18   14   15 1   
    19   15   18 1   
    20   15   19 1   
    21   15   20 1   
@<TRIPOS>SUBSTRUCTURE
     1 BEK         1 TEMP              0 ****  ****    0 ROOT
