@<TRIPOS>MOLECULE
BEK
   20    17     1     0     0
SMALL
bcc


@<TRIPOS>ATOM
      1 C1          1.3020   -0.0160    2.5810 c1        1 BEK      0.350000
      2 O           2.3740    0.5130    2.6040 o         1 BEK     -0.338000
      3 N           0.8250   -0.7060    3.7320 n2        1 BEK     -0.417000
      4 C2          0.5010   -0.0860    1.2490 c2        1 BEK     -0.163000
      5 C3          0.7730   -1.1020    0.3210 c1        1 BEK      0.099000
      6 C7         -0.4180    0.9110    0.9350 c2        1 BEK      0.137000
      7 F3          1.7510   -1.9960    0.5700 f         1 BEK     -0.079000
      8 F7         -0.6590    1.9390    1.8290 f         1 BEK     -0.056000
      9 C4          0.1270   -1.1150   -0.9140 c2        1 BEK      0.054000
     10 C6         -1.0670    0.8970   -0.3070 c1        1 BEK      0.031000
     11 C5         -0.7910   -0.1200   -1.2290 c1        1 BEK      0.047000
     12 F4          0.3540   -2.1330   -1.7840 f         1 BEK     -0.065000
     13 F6         -1.9190    1.8830   -0.6320 f         1 BEK     -0.072000
     14 O5         -1.4780   -0.1520   -2.4900 os        1 BEK     -0.198000
     15 C8         -0.8780    0.6580   -3.5020 c3        1 BEK     -0.080000
     16 HN1         0.2400   -1.4290    3.6320 hn        1 BEK      0.232500
     17 HN2         1.1660   -0.5020    4.5680 hn        1 BEK      0.232500
     18 H81        -1.0680    0.2920   -4.3430 h1        1 BEK      0.094667
     19 H82         0.1090    0.6880   -3.3710 h1        1 BEK      0.094667
     20 H83        -1.2440    1.5750   -3.4480 h1        1 BEK      0.094667
@<TRIPOS>BOND
     1    1    2 1   
     2    1    4 1   
     3    3   16 1   
     4    3   17 1   
     5    4    5 1   
     6    4    6 1   
     7    5    9 1   
     8    6    8 1   
     9    6   10 1   
    10    9   11 1   
    11    9   12 1   
    12   10   13 1   
    13   11   14 1   
    14   14   15 1   
    15   15   18 1   
    16   15   19 1   
    17   15   20 1   
@<TRIPOS>SUBSTRUCTURE
     1 BEK         1 TEMP              0 ****  ****    0 ROOT
