@<TRIPOS>MOLECULE
BEL
   42    42     1     0     0
SMALL
bcc


@<TRIPOS>ATOM
      1 O1          1.0180    0.9630    0.4190 o         1 BEL     -0.149000
      2 N1          1.5430   -0.0350    0.0230 no        1 BEL      0.328200
      3 O2          1.6000   -1.0600    0.6300 o         1 BEL     -0.149000
      4 C1          2.1560    0.0080   -1.3540 ca        1 BEL     -0.122200
      5 C2          1.2960    0.1130   -2.4570 ca        1 BEL     -0.012000
      6 C3          1.8410    0.1690   -3.7420 ca        1 BEL     -0.156200
      7 C4          3.2400    0.1020   -3.9230 ca        1 BEL     -0.115600
      8 C5          4.0830    0.0170   -2.8230 ca        1 BEL     -0.112000
      9 C6          3.5620   -0.0350   -1.5040 ca        1 BEL      0.210600
     10 N2          4.3920   -0.0950   -0.3480 nh        1 BEL     -0.654000
     11 C7          5.0570   -1.3840   -0.1520 c3        1 BEL      0.177800
     12 C8          4.0960   -2.5180    0.1720 c3        1 BEL     -0.037000
     13 BR1         5.0170   -4.1960    0.2900 br        1 BEL     -0.122900
     14 C9          5.2990    1.0510   -0.2320 c3        1 BEL      0.177800
     15 C10         5.5300    1.4460    1.2220 c3        1 BEL     -0.037000
     16 BR2         6.6640    2.9920    1.3370 br        1 BEL     -0.122900
     17 C11         3.8230    0.0300   -5.2820 c         1 BEL      0.586700
     18 O3          4.0900   -0.9620   -5.9330 o         1 BEL     -0.370100
     19 N3          4.1250    1.3790   -5.9150 n4        1 BEL     -0.660800
     20 C12         5.3880    1.3930   -6.6980 c3        1 BEL     -0.022200
     21 C13         6.6480    1.3870   -5.8500 c         1 BEL      0.445100
     22 O4          6.6230    1.1770   -4.6380 o         1 BEL     -0.487100
     23 C14         7.9240    1.6570   -6.6200 c         1 BEL      0.499900
     24 O5          7.9060    2.3930   -7.5980 o         1 BEL     -0.433100
     25 N4          0.9420    0.3070   -4.9230 no        1 BEL      0.323200
     26 O6          1.4560    0.6170   -5.9740 o         1 BEL     -0.183500
     27 O7         -0.2270    0.1310   -4.7990 o         1 BEL     -0.183500
     28 H2          0.1950    0.1580   -2.3150 ha        1 BEL      0.218000
     29 H5          5.1800   -0.0200   -2.9710 ha        1 BEL      0.190000
     30 H71         5.7660   -1.2500    0.7180 h1        1 BEL      0.059950
     31 H72         5.6720   -1.6540   -1.0610 h1        1 BEL      0.059950
     32 H81         3.5880   -2.3420    1.1520 h1        1 BEL      0.093950
     33 H82         3.3100   -2.6300   -0.6110 h1        1 BEL      0.093950
     34 H91         6.2920    0.8230   -0.7200 h1        1 BEL      0.059950
     35 H92         4.8420    1.9290   -0.7730 h1        1 BEL      0.059950
     36 H101        6.0320    0.6310    1.7940 h1        1 BEL      0.093950
     37 H102        4.5690    1.7020    1.7290 h1        1 BEL      0.093950
     38 HN3         3.3320    1.6020   -6.5430 hn        1 BEL      0.481800
     39 H121        5.4050    0.4860   -7.3770 hx        1 BEL      0.154700
     40 H122        5.4030    2.3200   -7.3500 hx        1 BEL      0.154700
     41 H14         8.8260    1.1530   -6.2120 h4        1 BEL      0.083200
     42 H32         4.1720    2.0900   -5.1760 hn        1 BEL      0.481800
@<TRIPOS>BOND
     1    1    2 1   
     2    2    3 1   
     3    2    4 1   
     4    4    5 ar  
     5    4    9 ar  
     6    5    6 ar  
     7    5   28 1   
     8    6    7 ar  
     9    6   25 1   
    10    7    8 ar  
    11    7   17 1   
    12    8    9 ar  
    13    8   29 1   
    14    9   10 1   
    15   10   11 1   
    16   10   14 1   
    17   11   12 1   
    18   11   30 1   
    19   11   31 1   
    20   12   13 1   
    21   12   32 1   
    22   12   33 1   
    23   14   15 1   
    24   14   34 1   
    25   14   35 1   
    26   15   16 1   
    27   15   36 1   
    28   15   37 1   
    29   17   18 2   
    30   17   19 1   
    31   19   20 1   
    32   19   38 1   
    33   19   42 1   
    34   20   21 1   
    35   20   39 1   
    36   20   40 1   
    37   21   22 2   
    38   21   23 1   
    39   23   24 2   
    40   23   41 1   
    41   25   26 1   
    42   25   27 1   
@<TRIPOS>SUBSTRUCTURE
     1 BEL         1 TEMP              0 ****  ****    0 ROOT
