@<TRIPOS>MOLECULE
BEL
   42    42     1     0     0
SMALL
bcc


@<TRIPOS>ATOM
      1 O1          0.9550    0.8560    0.3740 o         1 BEL     -0.149000
      2 N1          1.5300   -0.1210   -0.0020 no        1 BEL      0.328200
      3 O2          1.6290   -1.1350    0.6210 o         1 BEL     -0.149000
      4 C1          2.1560   -0.0690   -1.3720 ca        1 BEL     -0.122200
      5 C2          1.3040   -0.0180   -2.4860 ca        1 BEL     -0.012000
      6 C3          1.8610    0.0450   -3.7650 ca        1 BEL     -0.156200
      7 C4          3.2630    0.0400   -3.9300 ca        1 BEL     -0.115600
      8 C5          4.0970    0.0090   -2.8210 ca        1 BEL     -0.112000
      9 C6          3.5650   -0.0490   -1.5070 ca        1 BEL      0.210600
     10 N2          4.3830   -0.0550   -0.3420 nh        1 BEL     -0.654000
     11 C7          5.1050   -1.3090   -0.1200 c3        1 BEL      0.177800
     12 C8          4.1940   -2.4820    0.2090 c3        1 BEL     -0.037000
     13 Br1         5.1910   -4.1140    0.3600 br        1 BEL     -0.122900
     14 C9          5.2340    1.1340   -0.2310 c3        1 BEL      0.177800
     15 C10         5.4300    1.5580    1.2200 c3        1 BEL     -0.037000
     16 Br2         6.4890    3.1570    1.3260 br        1 BEL     -0.122900
     17 C11         3.8640   -0.0240   -5.2820 c         1 BEL      0.586700
     18 O3          4.1830   -1.0120   -5.9160 o         1 BEL     -0.370100
     19 N3          4.1120    1.3290   -5.9310 ny        1 BEL     -0.660800
     20 C12         5.3820    1.3890   -6.7000 c3        1 BEL     -0.022200
     21 C13         6.6310    1.4520   -5.8390 c         1 BEL      0.445100
     22 O4          6.6020    1.2580   -4.6250 o         1 BEL     -0.487100
     23 C14         7.9030    1.7690   -6.5990 c         1 BEL      0.499900
     24 O5          7.8620    2.4900   -7.5880 o         1 BEL     -0.433100
     25 N4          0.9690    0.1260   -4.9580 no        1 BEL      0.323200
     26 O6          1.4820    0.4450   -6.0080 o         1 BEL     -0.183500
     27 O7         -0.1920   -0.1010   -4.8440 o         1 BEL     -0.183500
     28 H2          0.2010   -0.0210   -2.3560 ha        1 BEL      0.218000
     29 H5          5.1970    0.0200   -2.9560 ha        1 BEL      0.190000
     30 H71         5.7970   -1.1300    0.7550 h1        1 BEL      0.059950
     31 H72         5.7420   -1.5610   -1.0190 h1        1 BEL      0.059950
     32 H81         3.4240   -2.6410   -0.5810 h1        1 BEL      0.093950
     33 H82         3.6670   -2.3170    1.1810 h1        1 BEL      0.093950
     34 H91         6.2420    0.9460   -0.7050 h1        1 BEL      0.059950
     35 H92         4.7430    1.9820   -0.7890 h1        1 BEL      0.059950
     36 H101        5.9630    0.7740    1.8080 h1        1 BEL      0.093950
     37 H102        4.4530    1.7750    1.7130 h1        1 BEL      0.093950
     38 HN3         3.3160    1.5060   -6.5720 hn        1 BEL      0.481800
     39 H121        5.4480    0.4740   -7.3670 hx        1 BEL      0.154700
     40 H122        5.3620    2.3070   -7.3660 hx        1 BEL      0.154700
     41 H14         8.8220    1.3130   -6.1740 h4        1 BEL      0.083200
     42 H32         4.1170    2.0510   -5.2020 hn        1 BEL      0.481800
@<TRIPOS>BOND
     1    1    2 1   
     2    2    3 1   
     3    2    4 1   
     4    4    5 ar  
     5    4    9 ar  
     6    5    6 ar  
     7    5   28 1   
     8    6    7 ar  
     9    6   25 1   
    10    7    8 ar  
    11    7   17 1   
    12    8    9 ar  
    13    8   29 1   
    14    9   10 1   
    15   10   11 1   
    16   10   14 1   
    17   11   12 1   
    18   11   30 1   
    19   11   31 1   
    20   12   13 1   
    21   12   32 1   
    22   12   33 1   
    23   14   15 1   
    24   14   34 1   
    25   14   35 1   
    26   15   16 1   
    27   15   36 1   
    28   15   37 1   
    29   17   18 2   
    30   17   19 1   
    31   19   20 1   
    32   19   38 1   
    33   19   42 1   
    34   20   21 1   
    35   20   39 1   
    36   20   40 1   
    37   21   22 2   
    38   21   23 1   
    39   23   24 2   
    40   23   41 1   
    41   25   26 1   
    42   25   27 1   
@<TRIPOS>SUBSTRUCTURE
     1 BEL         1 TEMP              0 ****  ****    0 ROOT
