@<TRIPOS>MOLECULE
BEL
   41    41     1     0     0
SMALL
bcc


@<TRIPOS>ATOM
      1 O1          1.8920   -1.2900    3.5590 o         1 BEL     -0.180000
      2 N1          1.9350   -1.6130    2.4060 no        1 BEL      0.325200
      3 O2          2.8850   -2.1450    1.9080 o         1 BEL     -0.180000
      4 C1          0.7270   -1.3570    1.5570 ca        1 BEL     -0.144200
      5 C2         -0.4520   -2.0450    1.8610 ca        1 BEL     -0.028000
      6 C3         -1.5940   -1.8230    1.0780 ca        1 BEL     -0.156200
      7 C4         -1.5530   -0.9250   -0.0020 ca        1 BEL     -0.043600
      8 C5         -0.3760   -0.2370   -0.2820 ca        1 BEL     -0.136000
      9 C6          0.7910   -0.4300    0.4860 ca        1 BEL      0.184600
     10 N2          2.0050    0.2850    0.2480 nh        1 BEL     -0.652000
     11 C7          2.6780   -0.0910   -0.9950 c3        1 BEL      0.177800
     12 C8          3.2650   -1.4950   -0.9500 c3        1 BEL     -0.024500
     13 BR1         4.1480   -1.9370   -2.5980 br        1 BEL     -0.151400
     14 C9          1.8510    1.7320    0.4070 c3        1 BEL      0.177800
     15 C10         3.1140    2.3720    0.9740 c3        1 BEL     -0.024500
     16 BR2         2.8950    4.2700    1.1910 br        1 BEL     -0.151400
     17 C11        -2.7360   -0.7280   -0.9080 c         1 BEL      0.663700
     18 O3         -2.8840   -1.4410   -1.9150 o         1 BEL     -0.556100
     19 N3         -3.5590    0.3470   -0.6120 n         1 BEL     -0.520900
     20 C12        -4.8190    0.4960   -1.2910 c3        1 BEL     -0.024000
     21 C13        -6.0280    0.5750   -0.3800 c         1 BEL      0.442100
     22 O4         -5.9650    0.8010    0.8290 o         1 BEL     -0.489100
     23 C14        -7.3410    0.3560   -1.0820 c         1 BEL      0.484900
     24 O5         -7.7710    1.1330   -1.9290 o         1 BEL     -0.478100
     25 N4         -2.8460   -2.5600    1.4130 no        1 BEL      0.321200
     26 O6         -3.8800   -2.1960    0.9230 o         1 BEL     -0.187500
     27 O7         -2.7790   -3.4840    2.1740 o         1 BEL     -0.187500
     28 H2         -0.4920   -2.7560    2.7100 ha        1 BEL      0.201000
     29 H5         -0.3570    0.4690   -1.1310 ha        1 BEL      0.175000
     30 H71         1.9740   -0.0060   -1.8750 h1        1 BEL      0.057950
     31 H72         3.5160    0.6490   -1.1500 h1        1 BEL      0.057950
     32 H81         4.0190   -1.5880   -0.1310 h1        1 BEL      0.091450
     33 H82         2.4730   -2.2620   -0.7850 h1        1 BEL      0.091450
     34 H91         1.5950    2.2200   -0.5790 h1        1 BEL      0.057950
     35 H92         0.9980    1.9300    1.1180 h1        1 BEL      0.057950
     36 H101        3.3580    1.9530    1.9780 h1        1 BEL      0.091450
     37 H102        3.9880    2.2240    0.2970 h1        1 BEL      0.091450
     38 HN3        -3.5380    0.6960    0.3230 hn        1 BEL      0.323500
     39 H121       -4.7960    1.4650   -1.8760 h1        1 BEL      0.100700
     40 H122       -4.9660   -0.3490   -2.0270 h1        1 BEL      0.100700
     41 H14        -7.8810   -0.5640   -0.7690 h4        1 BEL      0.037200
@<TRIPOS>BOND
     1    1    2 1   
     2    2    3 1   
     3    2    4 1   
     4    4    5 ar  
     5    4    9 ar  
     6    5    6 ar  
     7    5   28 1   
     8    6    7 ar  
     9    6   25 1   
    10    7    8 ar  
    11    7   17 1   
    12    8    9 ar  
    13    8   29 1   
    14    9   10 1   
    15   10   11 1   
    16   10   14 1   
    17   11   12 1   
    18   11   30 1   
    19   11   31 1   
    20   12   13 1   
    21   12   32 1   
    22   12   33 1   
    23   14   15 1   
    24   14   34 1   
    25   14   35 1   
    26   15   16 1   
    27   15   36 1   
    28   15   37 1   
    29   17   18 2   
    30   17   19 1   
    31   19   20 1   
    32   19   38 1   
    33   20   21 1   
    34   20   39 1   
    35   20   40 1   
    36   21   22 2   
    37   21   23 1   
    38   23   24 2   
    39   23   41 1   
    40   25   26 1   
    41   25   27 1   
@<TRIPOS>SUBSTRUCTURE
     1 BEL         1 TEMP              0 ****  ****    0 ROOT
