@<TRIPOS>MOLECULE
BEL
   41    39     1     0     0
SMALL
bcc


@<TRIPOS>ATOM
      1 O1         -3.7050    1.6750    2.5700 o         1 BEL     -0.193500
      2 N1         -2.4350    1.1660    2.5980 no        1 BEL      0.297100
      3 O2         -1.9630    0.7600    3.6510 o         1 BEL     -0.193500
      4 C1         -1.6220    1.2130    1.4230 ce        1 BEL     -0.269200
      5 C2         -1.5300    2.3890    0.6910 ce        1 BEL     -0.065100
      6 C3         -0.8180    2.4100   -0.5020 c1        1 BEL     -0.069900
      7 C4         -0.1950    1.2470   -0.9650 cg        1 BEL      0.021800
      8 C5         -0.2870    0.0720   -0.2330 c1        1 BEL     -0.087500
      9 C6         -0.9990    0.0510    0.9590 c1        1 BEL      0.239100
     10 N2         -1.0600   -1.1490    1.7310 n3        1 BEL     -0.251400
     11 C7          0.1170   -1.6470    2.3730 c3        1 BEL      0.028800
     12 C8          0.3690   -0.8620    3.6500 c3        1 BEL     -0.045000
     13 BR1         1.6240   -1.8070    4.7430 br        1 BEL     -0.143900
     14 C9         -2.2840   -1.8600    1.8440 c3        1 BEL      0.028800
     15 C10        -2.0620   -3.3110    1.4620 c3        1 BEL     -0.045000
     16 BR2        -3.3760   -4.4040    2.3170 br        1 BEL     -0.143900
     17 C11         0.6510    1.2890   -2.2340 c         1 BEL      0.628300
     18 O3          0.7830    2.3330   -2.8410 o         1 BEL     -0.566100
     19 N3          1.2430    0.0770   -2.7470 n         1 BEL     -0.540900
     20 C12         2.1210    0.1340   -3.8940 c3        1 BEL     -0.006000
     21 C13         3.5710    0.0030   -3.4330 c         1 BEL      0.435100
     22 O4          3.8310   -0.6100   -2.4150 o         1 BEL     -0.495100
     23 C14         4.7010    0.6030   -4.2760 c         1 BEL      0.479900
     24 O5          5.6840   -0.0690   -4.5460 o         1 BEL     -0.477100
     25 N4         -0.8020    3.5970   -1.3040 no        1 BEL      0.278000
     26 O6         -0.9420    4.6970   -0.7760 o         1 BEL     -0.186500
     27 O7         -0.6320    3.5050   -2.6550 o         1 BEL     -0.186500
     28 H2         -1.9660    3.2020    1.0160 ha        1 BEL      0.207000
     29 H5          0.1480   -0.7400   -0.5570 ha        1 BEL      0.121500
     30 H71        -0.0060   -2.5960    2.5910 h1        1 BEL      0.071200
     31 H72         0.8840   -1.5470    1.7720 h1        1 BEL      0.071200
     32 H81         0.7300    0.0170    3.4260 h1        1 BEL      0.086700
     33 H82        -0.4740   -0.7540    4.1380 h1        1 BEL      0.086700
     34 H91        -2.6060   -1.8110    2.7640 h1        1 BEL      0.071200
     35 H92        -2.9480   -1.4640    1.2460 h1        1 BEL      0.071200
     36 H101       -1.1700   -3.5900    1.7480 h1        1 BEL      0.086700
     37 H102       -2.1390   -3.4090    0.4910 h1        1 BEL      0.086700
     38 HN3         1.0070   -0.7330   -2.3920 hn        1 BEL      0.326500
     39 H121        2.0020    0.9870   -4.3530 h1        1 BEL      0.105200
     40 H122        1.9060   -0.6000   -4.5080 h1        1 BEL      0.105200
     41 H14         4.6500    1.5360   -4.5700 h4        1 BEL      0.033200
@<TRIPOS>BOND
     1    1    2 1   
     2    2    3 1   
     3    2    4 1   
     4    4    5 1   
     5    4    9 2   
     6    5    6 2   
     7    5   28 1   
     8    6   25 2   
     9    7    8 3   
    10    7   17 1   
    11    8   29 1   
    12    9   10 2   
    13   10   11 1   
    14   10   14 1   
    15   11   12 1   
    16   11   30 1   
    17   11   31 1   
    18   12   13 1   
    19   12   32 1   
    20   12   33 1   
    21   14   15 1   
    22   14   34 1   
    23   14   35 1   
    24   15   16 1   
    25   15   36 1   
    26   15   37 1   
    27   17   18 2   
    28   17   19 1   
    29   19   20 1   
    30   19   38 1   
    31   20   21 1   
    32   20   39 1   
    33   20   40 1   
    34   21   22 2   
    35   21   23 1   
    36   23   24 2   
    37   23   41 1   
    38   25   26 1   
    39   25   27 1   
@<TRIPOS>SUBSTRUCTURE
     1 BEL         1 TEMP              0 ****  ****    0 ROOT
