@<TRIPOS>MOLECULE
BEL
   41    41     1     0     0
SMALL
bcc


@<TRIPOS>ATOM
      1 O1          0.6800    0.6850    0.2960 o         1 BEL     -0.181000
      2 N1          1.3780   -0.2260   -0.0490 no        1 BEL      0.325200
      3 O2          1.5150   -1.2280    0.5920 o         1 BEL     -0.181000
      4 C1          2.0920   -0.1080   -1.3610 ca        1 BEL     -0.143200
      5 C2          1.3240   -0.0500   -2.5290 ca        1 BEL     -0.030000
      6 C3          1.9710    0.0560   -3.7680 ca        1 BEL     -0.149200
      7 C4          3.3730    0.0920   -3.8370 ca        1 BEL     -0.045600
      8 C5          4.1230    0.0520   -2.6650 ca        1 BEL     -0.143000
      9 C6          3.5080   -0.0470   -1.4000 ca        1 BEL      0.183600
     10 N2          4.2450   -0.0570   -0.1760 nh        1 BEL     -0.652000
     11 C7          5.0360   -1.2700    0.0290 c3        1 BEL      0.177800
     12 C8          4.1770   -2.5030    0.2740 c3        1 BEL     -0.024500
     13 BR1         5.2610   -4.0650    0.5540 br        1 BEL     -0.151400
     14 C9          5.0090    1.1740    0.0370 c3        1 BEL      0.177800
     15 C10         5.0750    1.5440    1.5150 c3        1 BEL     -0.024500
     16 BR2         6.0570    3.1760    1.7810 br        1 BEL     -0.151400
     17 C11         4.0980    0.1030   -5.1530 c         1 BEL      0.677700
     18 O3          4.2460   -0.9450   -5.8060 o         1 BEL     -0.563100
     19 N3          4.5760    1.3250   -5.5760 n         1 BEL     -0.539900
     20 C12         5.3760    1.4540   -6.7560 c3        1 BEL     -0.007000
     21 C13         6.8610    1.6510   -6.5160 c         1 BEL      0.435100
     22 O4          7.3860    1.7570   -5.4070 o         1 BEL     -0.496100
     23 C14         7.6760    1.7020   -7.7820 c         1 BEL      0.479900
     24 O5          7.5240    2.5830   -8.6230 o         1 BEL     -0.477100
     25 N4          1.1410    0.1320   -5.0060 no        1 BEL      0.319200
     26 O6          1.6390    0.5500   -6.0130 o         1 BEL     -0.182000
     27 O7         -0.0080   -0.2090   -4.9400 o         1 BEL     -0.182000
     28 H2          0.2170   -0.0840   -2.4830 ha        1 BEL      0.201000
     29 H5          5.2260    0.0900   -2.7300 ha        1 BEL      0.175000
     30 H71         5.7200   -1.4570   -0.8520 h1        1 BEL      0.058200
     31 H72         5.6830   -1.0890    0.9360 h1        1 BEL      0.058200
     32 H81         3.5130   -2.7160   -0.5960 h1        1 BEL      0.091450
     33 H82         3.5380   -2.3720    1.1810 h1        1 BEL      0.091450
     34 H91         6.0570    1.0720   -0.3700 h1        1 BEL      0.058200
     35 H92         4.5040    2.0140   -0.5210 h1        1 BEL      0.058200
     36 H101        4.0540    1.7040    1.9350 h1        1 BEL      0.091450
     37 H102        5.5930    0.7570    2.1110 h1        1 BEL      0.091450
     38 HN3         4.5120    2.1130   -4.9770 hn        1 BEL      0.325500
     39 H121        5.0190    2.3510   -7.3460 h1        1 BEL      0.106200
     40 H122        5.2420    0.5320   -7.3990 h1        1 BEL      0.106200
     41 H14         8.4180    0.8800   -7.8890 h4        1 BEL      0.034200
@<TRIPOS>BOND
     1    1    2 1   
     2    2    3 1   
     3    2    4 1   
     4    4    5 ar  
     5    4    9 ar  
     6    5    6 ar  
     7    5   28 1   
     8    6    7 ar  
     9    6   25 1   
    10    7    8 ar  
    11    7   17 1   
    12    8    9 ar  
    13    8   29 1   
    14    9   10 1   
    15   10   11 1   
    16   10   14 1   
    17   11   12 1   
    18   11   30 1   
    19   11   31 1   
    20   12   13 1   
    21   12   32 1   
    22   12   33 1   
    23   14   15 1   
    24   14   34 1   
    25   14   35 1   
    26   15   16 1   
    27   15   36 1   
    28   15   37 1   
    29   17   18 2   
    30   17   19 1   
    31   19   20 1   
    32   19   38 1   
    33   20   21 1   
    34   20   39 1   
    35   20   40 1   
    36   21   22 2   
    37   21   23 1   
    38   23   24 2   
    39   23   41 1   
    40   25   26 1   
    41   25   27 1   
@<TRIPOS>SUBSTRUCTURE
     1 BEL         1 TEMP              0 ****  ****    0 ROOT
