@<TRIPOS>MOLECULE
BEM
   22    22     1     0     0
SMALL
bcc


@<TRIPOS>ATOM
      1 C1         -0.9950   -0.6620   -1.2590 c3        1 BEM      0.299900
      2 C2          0.4950   -0.6620   -1.2680 c3        1 BEM      0.052100
      3 O2          0.9610    0.5350   -1.9790 oh        1 BEM     -0.613800
      4 C3          1.0770   -0.6650    0.0760 c3        1 BEM      0.107100
      5 O3          2.5240   -0.4830   -0.0370 oh        1 BEM     -0.592800
      6 C4          0.5230    0.4160    0.9470 c3        1 BEM      0.109100
      7 O4          1.0250    0.2450    2.2620 oh        1 BEM     -0.628800
      8 C5         -1.0300    0.4160    1.0010 c3        1 BEM     -0.031900
      9 O5         -1.5700    0.4120   -0.4030 os        1 BEM     -0.412600
     10 C6         -1.5750    1.5460    1.8220 c         1 BEM      0.927600
     11 O6A        -1.9090    1.3510    3.0200 o         1 BEM     -0.814300
     12 O6B        -1.6980    2.6920    1.3140 o         1 BEM     -0.814300
     13 O1         -1.4510   -0.4870   -2.5650 oh        1 BEM     -0.601800
     14 H1         -1.3070   -1.5280   -0.9300 h2        1 BEM      0.066700
     15 H2          0.8070   -1.4540   -1.7470 h1        1 BEM      0.080700
     16 HO2         1.3600    0.2940   -2.7360 ho        1 BEM      0.423000
     17 H3          0.8990   -1.5290    0.4950 h1        1 BEM      0.083700
     18 HO3         2.9350   -1.2500    0.1460 ho        1 BEM      0.402000
     19 H4          0.8250    1.2810    0.6040 h1        1 BEM      0.037700
     20 HO4         1.6580    0.8490    2.4180 ho        1 BEM      0.455000
     21 H5         -1.3590   -0.3560    1.5020 h1        1 BEM      0.041700
     22 HO1        -2.1960   -0.9590   -2.6850 ho        1 BEM      0.424000
@<TRIPOS>BOND
     1    1    2 1   
     2    1    9 1   
     3    1   13 1   
     4    1   14 1   
     5    2    3 1   
     6    2    4 1   
     7    2   15 1   
     8    3   16 1   
     9    4    5 1   
    10    4    6 1   
    11    4   17 1   
    12    5   18 1   
    13    6    7 1   
    14    6    8 1   
    15    6   19 1   
    16    7   20 1   
    17    8    9 1   
    18    8   10 1   
    19    8   21 1   
    20   10   11 1   
    21   10   12 1   
    22   13   22 1   
@<TRIPOS>SUBSTRUCTURE
     1 BEM         1 TEMP              0 ****  ****    0 ROOT
