@<TRIPOS>MOLECULE
BEM
   22    22     1     0     0
SMALL
bcc


@<TRIPOS>ATOM
      1 C1          1.3750    1.1060   -0.9970 c3        1 BEM      0.299900
      2 C2          2.0540   -0.1020   -0.3250 c3        1 BEM      0.052100
      3 O2          2.2820    0.1560    1.0510 oh        1 BEM     -0.613800
      4 C3          1.1530   -1.3350   -0.4990 c3        1 BEM      0.107100
      5 O3          1.7270   -2.4420    0.1720 oh        1 BEM     -0.592800
      6 C4         -0.2680   -1.0300    0.0120 c3        1 BEM      0.109100
      7 O4         -1.0980   -2.0790   -0.4520 oh        1 BEM     -0.628800
      8 C5         -0.8020    0.3270   -0.4810 c3        1 BEM     -0.031900
      9 O5          0.1510    1.3740   -0.3320 os        1 BEM     -0.412600
     10 C6         -2.0740    0.6940    0.3500 c         1 BEM      0.927600
     11 O6A        -3.0310   -0.1250    0.2170 o         1 BEM     -0.814300
     12 O6B        -2.0760    1.7100    1.0800 o         1 BEM     -0.814300
     13 O1          2.1020    2.2920   -0.8170 oh        1 BEM     -0.601800
     14 H1          1.2490    0.9570   -2.1020 h2        1 BEM      0.066700
     15 H2          3.0750   -0.2880   -0.7530 h1        1 BEM      0.080700
     16 HO2         1.4520    0.5060    1.4100 ho        1 BEM      0.423000
     17 H3          1.1140   -1.6480   -1.5780 h1        1 BEM      0.083700
     18 HO3         1.7810   -2.2000    1.1060 ho        1 BEM      0.402000
     19 H4         -0.2580   -1.0360    1.1390 h1        1 BEM      0.037700
     20 HO4        -2.0180   -1.8030   -0.2800 ho        1 BEM      0.455000
     21 H5         -1.0870    0.2400   -1.5650 h1        1 BEM      0.041700
     22 HO1         1.9640    2.5770    0.0980 ho        1 BEM      0.424000
@<TRIPOS>BOND
     1    1    2 1   
     2    1    9 1   
     3    1   13 1   
     4    1   14 1   
     5    2    3 1   
     6    2    4 1   
     7    2   15 1   
     8    3   16 1   
     9    4    5 1   
    10    4    6 1   
    11    4   17 1   
    12    5   18 1   
    13    6    7 1   
    14    6    8 1   
    15    6   19 1   
    16    7   20 1   
    17    8    9 1   
    18    8   10 1   
    19    8   21 1   
    20   10   11 1   
    21   10   12 1   
    22   13   22 1   
@<TRIPOS>SUBSTRUCTURE
     1 BEM         1 TEMP              0 ****  ****    0 ROOT
