@<TRIPOS>MOLECULE
BEN
   18    18     1     0     0
SMALL
bcc


@<TRIPOS>ATOM
      1 C1         -0.0630    0.1880    0.0480 ca        1 BEN     -0.269900
      2 C2          1.0080   -0.7130    0.1180 ca        1 BEN     -0.093500
      3 C3          1.7130   -0.8490    1.3110 ca        1 BEN     -0.113000
      4 C4          1.3520   -0.0930    2.4290 ca        1 BEN     -0.068000
      5 C5          0.2850    0.8040    2.3550 ca        1 BEN     -0.113000
      6 C6         -0.4270    0.9500    1.1650 ca        1 BEN     -0.093500
      7 C          -0.7900    0.3760   -1.2230 ce        1 BEN      0.593800
      8 N1         -0.8530    1.3590   -2.0340 n2        1 BEN     -0.710100
      9 N2         -1.5990   -0.8460   -1.5820 n4        1 BEN     -0.826600
     10 H2          1.3140   -1.2930   -0.7660 ha        1 BEN      0.145000
     11 H3          2.5620   -1.5500    1.3700 ha        1 BEN      0.167000
     12 H4          1.9150   -0.2020    3.3720 ha        1 BEN      0.168000
     13 H5          0.0040    1.4040    3.2370 ha        1 BEN      0.167000
     14 H6         -1.2630    1.6650    1.1090 ha        1 BEN      0.145000
     15 HN1        -0.3230    2.1820   -1.8320 hn        1 BEN      0.492400
     16 HN21       -2.3330   -0.9640   -0.8760 hn        1 BEN      0.469800
     17 HN22       -0.9740   -1.6590   -1.5560 hn        1 BEN      0.469800
     18 H23        -2.0290   -0.7690   -2.5120 hn        1 BEN      0.469800
@<TRIPOS>BOND
     1    1    2 ar  
     2    1    6 ar  
     3    1    7 1   
     4    2    3 ar  
     5    2   10 1   
     6    3    4 ar  
     7    3   11 1   
     8    4    5 ar  
     9    4   12 1   
    10    5    6 ar  
    11    5   13 1   
    12    6   14 1   
    13    7    8 2   
    14    7    9 1   
    15    8   15 1   
    16    9   16 1   
    17    9   17 1   
    18    9   18 1   
@<TRIPOS>SUBSTRUCTURE
     1 BEN         1 TEMP              0 ****  ****    0 ROOT
