@<TRIPOS>MOLECULE
BEN
   18    18     1     0     0
SMALL
bcc


@<TRIPOS>ATOM
      1 C1          0.0090    0.1260    0.0010 ca        1 BEN     -0.269900
      2 C2          1.2790   -0.4580    0.0810 ca        1 BEN     -0.093500
      3 C3          1.9230   -0.5310    1.3150 ca        1 BEN     -0.113000
      4 C4          1.3050   -0.0240    2.4600 ca        1 BEN     -0.068000
      5 C5          0.0390    0.5610    2.3750 ca        1 BEN     -0.113000
      6 C6         -0.6150    0.6370    1.1470 ca        1 BEN     -0.093500
      7 C          -0.6520    0.2420   -1.3140 ce        1 BEN      0.593800
      8 N1         -0.3760    0.9300   -2.3520 n2        1 BEN     -0.710100
      9 N2         -1.8720   -0.6430   -1.3990 nz        1 BEN     -0.826600
     10 H2          1.7730   -0.8520   -0.8210 ha        1 BEN      0.145000
     11 H3          2.9240   -0.9880    1.3840 ha        1 BEN      0.167000
     12 H4          1.8190   -0.0800    3.4340 ha        1 BEN      0.168000
     13 H5         -0.4430    0.9680    3.2790 ha        1 BEN      0.167000
     14 H6         -1.6010    1.1210    1.0820 ha        1 BEN      0.145000
     15 HN1         0.4210    1.5340   -2.3290 hn        1 BEN      0.492400
     16 HN21       -2.4710   -0.4350   -0.5930 hn        1 BEN      0.469800
     17 HN22       -1.5640   -1.6200   -1.3460 hn        1 BEN      0.469800
     18 H23        -2.3980   -0.4980   -2.2690 hn        1 BEN      0.469800
@<TRIPOS>BOND
     1    1    2 ar  
     2    1    6 ar  
     3    1    7 1   
     4    2    3 ar  
     5    2   10 1   
     6    3    4 ar  
     7    3   11 1   
     8    4    5 ar  
     9    4   12 1   
    10    5    6 ar  
    11    5   13 1   
    12    6   14 1   
    13    7    8 2   
    14    7    9 1   
    15    8   15 1   
    16    9   16 1   
    17    9   17 1   
    18    9   18 1   
@<TRIPOS>SUBSTRUCTURE
     1 BEN         1 TEMP              0 ****  ****    0 ROOT
