@<TRIPOS>MOLECULE
BEO
   11     8     1     0     0
SMALL
bcc


@<TRIPOS>ATOM
      1 C1          0.5830   -1.1130    1.0110 c1        1 BEO      0.345000
      2 O1          1.8420   -1.1130    1.0110 o         1 BEO     -0.577000
      3 O2         -0.0460   -1.1130    2.1010 os        1 BEO     -0.581000
      4 C2         -0.1730   -1.1130   -0.3000 c2        1 BEO     -0.174000
      5 C3         -0.5100    0.0540   -0.8830 c1        1 BEO     -0.204000
      6 C4         -0.1310    1.3640   -0.2280 c2        1 BEO     -0.180000
      7 H2         -0.4170   -1.9580   -0.7220 ha        1 BEO      0.092000
      8 H3         -0.9980    0.0540   -1.7280 ha        1 BEO      0.064000
      9 H41         0.8390    1.4160   -0.1400 ha        1 BEO      0.071667
     10 H42        -0.5410    1.4160    0.6570 ha        1 BEO      0.071667
     11 H43        -0.4480    2.1060   -0.7770 ha        1 BEO      0.071667
@<TRIPOS>BOND
     1    1    2 1   
     2    1    4 1   
     3    4    5 1   
     4    4    7 1   
     5    5    8 1   
     6    6    9 1   
     7    6   10 1   
     8    6   11 1   
@<TRIPOS>SUBSTRUCTURE
     1 BEO         1 TEMP              0 ****  ****    0 ROOT
