@<TRIPOS>MOLECULE
BEO
   11    10     1     0     0
SMALL
bcc


@<TRIPOS>ATOM
      1 C1          0.1650    0.0520    0.0270 c         1 BEO      0.890800
      2 O1          1.0790    0.9260    0.0160 o         1 BEO     -0.844800
      3 O2         -0.1990   -0.5660    1.0720 o         1 BEO     -0.844800
      4 C2         -0.5470   -0.2930   -1.2600 ce        1 BEO     -0.195200
      5 C3         -0.2660    0.2800   -2.4320 c2        1 BEO     -0.223200
      6 C4         -0.9440   -0.0360   -3.7050 c3        1 BEO     -0.044900
      7 H2         -1.3270   -1.0630   -1.1600 ha        1 BEO      0.093000
      8 H3          0.5240    1.0480   -2.4860 ha        1 BEO      0.131000
      9 H41        -0.2040   -0.4060   -4.4590 hc        1 BEO      0.012033
     10 H42        -1.7300   -0.8200   -3.5740 hc        1 BEO      0.012033
     11 H43        -1.4320    0.8790   -4.1250 hc        1 BEO      0.012033
@<TRIPOS>BOND
     1    1    2 1   
     2    1    3 1   
     3    1    4 1   
     4    4    5 2   
     5    4    7 1   
     6    5    6 1   
     7    5    8 1   
     8    6    9 1   
     9    6   10 1   
    10    6   11 1   
@<TRIPOS>SUBSTRUCTURE
     1 BEO         1 TEMP              0 ****  ****    0 ROOT
