@<TRIPOS>MOLECULE
BEO
   11    10     1     0     0
SMALL
bcc


@<TRIPOS>ATOM
      1 C1          0.0120   -0.0000   -1.0630 c         1 BEO      0.891800
      2 O1          1.2610   -0.0000   -1.2700 o         1 BEO     -0.844800
      3 O2         -0.8510   -0.0000   -1.9900 o         1 BEO     -0.844800
      4 C2         -0.5020    0.0000    0.3580 ce        1 BEO     -0.197200
      5 C3          0.2940    0.0000    1.4290 c2        1 BEO     -0.222200
      6 C4         -0.1920    0.0000    2.8240 c3        1 BEO     -0.044900
      7 H2         -1.5990    0.0000    0.4480 ha        1 BEO      0.093000
      8 H3          1.3880    0.0000    1.2890 ha        1 BEO      0.132000
      9 H41         0.6590   -0.0000    3.5470 hc        1 BEO      0.012367
     10 H42        -0.8200    0.9040    3.0290 hc        1 BEO      0.012367
     11 H43        -0.8200   -0.9040    3.0290 hc        1 BEO      0.012367
@<TRIPOS>BOND
     1    1    2 1   
     2    1    3 1   
     3    1    4 1   
     4    4    5 2   
     5    4    7 1   
     6    5    6 1   
     7    5    8 1   
     8    6    9 1   
     9    6   10 1   
    10    6   11 1   
@<TRIPOS>SUBSTRUCTURE
     1 BEO         1 TEMP              0 ****  ****    0 ROOT
