@<TRIPOS>MOLECULE
BEO
   11    10     1     0     0
SMALL
bcc


@<TRIPOS>ATOM
      1 C1          0.1390    0.0460    0.0350 c         1 BEO      0.890800
      2 O1          0.7870    1.1300    0.1090 o         1 BEO     -0.844800
      3 O2         -0.0420   -0.7290    1.0210 o         1 BEO     -0.844800
      4 C2         -0.4620   -0.3690   -1.2880 ce        1 BEO     -0.195200
      5 C3         -0.3490    0.3500   -2.4060 c2        1 BEO     -0.223200
      6 C4         -0.9240   -0.0290   -3.7110 c3        1 BEO     -0.044900
      7 H2         -1.0090   -1.3250   -1.2620 ha        1 BEO      0.093000
      8 H3          0.2090    1.3020   -2.3840 ha        1 BEO      0.131000
      9 H41        -0.1170   -0.1280   -4.4790 hc        1 BEO      0.012033
     10 H42        -1.4730   -1.0020   -3.6560 hc        1 BEO      0.012033
     11 H43        -1.6400    0.7550   -4.0650 hc        1 BEO      0.012033
@<TRIPOS>BOND
     1    1    2 1   
     2    1    3 1   
     3    1    4 1   
     4    4    5 2   
     5    4    7 1   
     6    5    6 1   
     7    5    8 1   
     8    6    9 1   
     9    6   10 1   
    10    6   11 1   
@<TRIPOS>SUBSTRUCTURE
     1 BEO         1 TEMP              0 ****  ****    0 ROOT
