@<TRIPOS>MOLECULE
BEP
   61    63     1     0     0
SMALL
bcc


@<TRIPOS>ATOM
      1 C1          0.0490   -1.1680    2.1140 c3        1 BEP      0.097400
      2 C2          0.0810   -0.0770    1.0190 c3        1 BEP      0.149500
      3 C3          0.1840   -0.8120   -0.3540 c3        1 BEP      0.229800
      4 O1         -0.5550   -0.5780    3.2600 os        1 BEP     -0.426600
      5 N2          1.0860    0.9630    1.1530 n3        1 BEP     -0.728600
      6 N3         -0.2800   -0.0840   -1.5030 nh        1 BEP     -0.682000
      7 C4         -0.6430   -1.4890    4.3560 c3        1 BEP      0.130400
      8 C5         -1.2510   -0.7200    5.5260 c3        1 BEP     -0.069700
      9 C6         -1.6940   -1.6940    6.5960 c3        1 BEP     -0.091100
     10 C7         -0.2610    0.2810    6.0800 c3        1 BEP     -0.091100
     11 C8          0.8540    1.9090    2.2460 c3        1 BEP      0.160800
     12 C9          2.1470    2.0790    3.0590 c3        1 BEP     -0.092400
     13 C10         3.1770    1.1600    2.4160 c3        1 BEP     -0.092400
     14 C11         2.4790    0.5220    1.2040 c3        1 BEP      0.160800
     15 C12         0.6630    0.7840   -2.1670 c3        1 BEP      0.259100
     16 C13         1.3870    0.1720   -3.3380 ca        1 BEP     -0.102300
     17 C14         0.7650   -0.7130   -4.2230 ca        1 BEP     -0.123000
     18 C15         1.4670   -1.2220   -5.3160 ca        1 BEP     -0.132000
     19 C16         2.7920   -0.8490   -5.5350 ca        1 BEP     -0.132000
     20 C17         3.4170    0.0350   -4.6550 ca        1 BEP     -0.132000
     21 C18         2.7200    0.5410   -3.5610 ca        1 BEP     -0.123000
     22 C19        -1.6510    0.0470   -1.7520 ca        1 BEP      0.190600
     23 C20        -2.1190    0.6280   -2.9590 ca        1 BEP     -0.204500
     24 C21        -3.4790    0.7210   -3.2240 ca        1 BEP     -0.091000
     25 C22        -4.4200    0.2380   -2.3170 ca        1 BEP     -0.182000
     26 C23        -3.9800   -0.3440   -1.1310 ca        1 BEP     -0.091000
     27 C24        -2.6240   -0.4410   -0.8420 ca        1 BEP     -0.204500
     28 H11         1.0760   -1.5380    2.3710 h1        1 BEP      0.030200
     29 H12        -0.5760   -2.0390    1.7800 h1        1 BEP      0.030200
     30 H21        -0.9190    0.4560    1.0660 h1        1 BEP      0.086700
     31 H31         1.2590   -1.1000   -0.5390 h1        1 BEP      0.055200
     32 H32        -0.4170   -1.7650   -0.2840 h1        1 BEP      0.055200
     33 H41         0.3800   -1.8710    4.6150 h1        1 BEP      0.027200
     34 H42        -1.2970   -2.3540    4.0660 h1        1 BEP      0.027200
     35 H51        -2.1500   -0.1600    5.1430 hc        1 BEP      0.064700
     36 H61        -2.1250   -1.1390    7.4630 hc        1 BEP      0.036533
     37 H62        -2.4710   -2.3900    6.1970 hc        1 BEP      0.036533
     38 H63        -0.8290   -2.3000    6.9600 hc        1 BEP      0.036533
     39 H71         0.6200   -0.2400    6.5270 hc        1 BEP      0.036533
     40 H72         0.1000    0.9500    5.2590 hc        1 BEP      0.036533
     41 H73        -0.7420    0.9050    6.8700 hc        1 BEP      0.036533
     42 H81         0.5600    2.8850    1.7710 h1        1 BEP      0.046950
     43 H82         0.0140    1.5840    2.9210 h1        1 BEP      0.046950
     44 H91         2.4860    3.1430    3.0320 hc        1 BEP      0.045700
     45 H92         1.9730    1.8030    4.1280 hc        1 BEP      0.045700
     46 H101        4.0800    1.7300    2.0900 hc        1 BEP      0.045700
     47 H102        3.5120    0.3710    3.1330 hc        1 BEP      0.045700
     48 H111        2.5800   -0.5960    1.2400 h1        1 BEP      0.046950
     49 H112        2.9680    0.8730    0.2520 h1        1 BEP      0.046950
     50 H121        0.1380    1.7150   -2.5360 h1        1 BEP      0.065700
     51 H122        1.4370    1.1260   -1.4170 h1        1 BEP      0.065700
     52 H141       -0.2820   -1.0120   -4.0610 ha        1 BEP      0.137500
     53 H151        0.9710   -1.9200   -6.0060 ha        1 BEP      0.130000
     54 H161        3.3440   -1.2500   -6.3970 ha        1 BEP      0.130000
     55 H171        4.4630    0.3320   -4.8240 ha        1 BEP      0.130000
     56 H181        3.2200    1.2360   -2.8680 ha        1 BEP      0.137500
     57 H201       -1.4080    1.0010   -3.7130 ha        1 BEP      0.134000
     58 H211       -3.8130    1.1800   -4.1670 ha        1 BEP      0.127000
     59 H221       -5.4940    0.3150   -2.5340 ha        1 BEP      0.130000
     60 H231       -4.7120   -0.7310   -0.4060 ha        1 BEP      0.127000
     61 H241       -2.3240   -0.9010    0.1120 ha        1 BEP      0.134000
@<TRIPOS>BOND
     1    1    2 1   
     2    1    4 1   
     3    1   28 1   
     4    1   29 1   
     5    2    3 1   
     6    2    5 1   
     7    2   30 1   
     8    3    6 1   
     9    3   31 1   
    10    3   32 1   
    11    4    7 1   
    12    5   11 1   
    13    5   14 1   
    14    6   15 1   
    15    6   22 1   
    16    7    8 1   
    17    7   33 1   
    18    7   34 1   
    19    8    9 1   
    20    8   10 1   
    21    8   35 1   
    22    9   36 1   
    23    9   37 1   
    24    9   38 1   
    25   10   39 1   
    26   10   40 1   
    27   10   41 1   
    28   11   12 1   
    29   11   42 1   
    30   11   43 1   
    31   12   13 1   
    32   12   44 1   
    33   12   45 1   
    34   13   14 1   
    35   13   46 1   
    36   13   47 1   
    37   14   48 1   
    38   14   49 1   
    39   15   16 1   
    40   15   50 1   
    41   15   51 1   
    42   16   17 ar  
    43   16   21 ar  
    44   17   18 ar  
    45   17   52 1   
    46   18   19 ar  
    47   18   53 1   
    48   19   20 ar  
    49   19   54 1   
    50   20   21 ar  
    51   20   55 1   
    52   21   56 1   
    53   22   23 ar  
    54   22   27 ar  
    55   23   24 ar  
    56   23   57 1   
    57   24   25 ar  
    58   24   58 1   
    59   25   26 ar  
    60   25   59 1   
    61   26   27 ar  
    62   26   60 1   
    63   27   61 1   
@<TRIPOS>SUBSTRUCTURE
     1 BEP         1 TEMP              0 ****  ****    0 ROOT
