@<TRIPOS>MOLECULE
BEP
   62    64     1     0     0
SMALL
bcc


@<TRIPOS>ATOM
      1 C1         -0.1230    0.8330   -0.2450 c3        1 BEP      0.097400
      2 C2          1.3670    1.1230    0.0720 c3        1 BEP      0.171500
      3 C3          1.7440    0.2510    1.2980 c3        1 BEP      0.115800
      4 O1         -0.1850   -0.5170   -0.6850 os        1 BEP     -0.456600
      5 N2          1.6900    2.5260    0.2760 n3        1 BEP     -0.751600
      6 N3          3.1620   -0.2130    1.4260 n4        1 BEP     -0.549800
      7 C4         -1.4610   -0.8480   -1.2490 c3        1 BEP      0.132400
      8 C5         -1.4200   -2.3290   -1.6110 c3        1 BEP     -0.069700
      9 C6         -2.8250   -2.8110   -1.9060 c3        1 BEP     -0.093600
     10 C7         -0.5070   -2.5710   -2.7930 c3        1 BEP     -0.093600
     11 C8          1.7030    3.3250   -0.9560 c3        1 BEP      0.151300
     12 C9          0.8020    4.5560   -0.7770 c3        1 BEP     -0.095900
     13 C10         0.2810    4.4980    0.6520 c3        1 BEP     -0.095900
     14 C11         0.8940    3.2370    1.2810 c3        1 BEP      0.151300
     15 C12         4.2130    0.8600    1.2460 c3        1 BEP      0.170100
     16 C13         4.4910    1.5890    2.5190 ca        1 BEP     -0.165300
     17 C14         5.0420    0.9050    3.6110 ca        1 BEP     -0.110000
     18 C15         5.3510    1.5930    4.7810 ca        1 BEP     -0.120500
     19 C16         5.1220    2.9680    4.8640 ca        1 BEP     -0.089000
     20 C17         4.5850    3.6520    3.7750 ca        1 BEP     -0.120500
     21 C18         4.2650    2.9660    2.6020 ca        1 BEP     -0.110000
     22 C19         3.5030   -1.4030    0.6240 ca        1 BEP     -0.045400
     23 C20         4.6330   -2.1530    1.0240 ca        1 BEP     -0.111500
     24 C21         4.9980   -3.2870    0.3090 ca        1 BEP     -0.108500
     25 C22         4.2540   -3.6920   -0.8030 ca        1 BEP     -0.081000
     26 C23         3.1380   -2.9570   -1.1910 ca        1 BEP     -0.108500
     27 C24         2.7520   -1.8140   -0.4850 ca        1 BEP     -0.111500
     28 H11        -0.7700    0.9560    0.6640 h1        1 BEP      0.052200
     29 H12        -0.4810    1.5250   -1.0530 h1        1 BEP      0.052200
     30 H21         1.9690    0.7780   -0.8230 h1        1 BEP      0.084700
     31 H31         1.1030   -0.6800    1.2690 hx        1 BEP      0.108200
     32 H32         1.5180    0.8250    2.2440 hx        1 BEP      0.108200
     33 H41        -2.2620   -0.6460   -0.4890 h1        1 BEP      0.042200
     34 H42        -1.6380   -0.2140   -2.1580 h1        1 BEP      0.042200
     35 H51        -1.0180   -2.8950   -0.7240 hc        1 BEP      0.056700
     36 H61        -2.8060   -3.8930   -2.1810 hc        1 BEP      0.041867
     37 H62        -3.2670   -2.2370   -2.7560 hc        1 BEP      0.041867
     38 H63        -3.4800   -2.6840   -1.0110 hc        1 BEP      0.041867
     39 H71         0.5190   -2.1910   -2.5680 hc        1 BEP      0.041867
     40 H72        -0.4460   -3.6630   -3.0170 hc        1 BEP      0.041867
     41 H73        -0.8900   -2.0460   -3.7020 hc        1 BEP      0.041867
     42 H81         1.3800    2.7330   -1.8540 h1        1 BEP      0.051200
     43 H82         2.7710    3.6420   -1.1170 h1        1 BEP      0.051200
     44 H91        -0.0390    4.5350   -1.5130 hc        1 BEP      0.062700
     45 H92         1.3860    5.4920   -0.9560 hc        1 BEP      0.062700
     46 H101       -0.8360    4.4420    0.6710 hc        1 BEP      0.062700
     47 H102        0.5830    5.4050    1.2300 hc        1 BEP      0.062700
     48 H111        0.0900    2.5920    1.7270 h1        1 BEP      0.051200
     49 H112        1.6010    3.5220    2.1090 h1        1 BEP      0.051200
     50 H121        3.8870    1.5620    0.4290 hx        1 BEP      0.115200
     51 H122        5.1610    0.3470    0.9020 hx        1 BEP      0.115200
     52 H141        5.2570   -0.1730    3.5420 ha        1 BEP      0.140000
     53 H151        5.7850    1.0540    5.6380 ha        1 BEP      0.153500
     54 H161        5.3730    3.5120    5.7890 ha        1 BEP      0.156000
     55 H171        4.4150    4.7390    3.8350 ha        1 BEP      0.153500
     56 H181        3.8480    3.5130    1.7410 ha        1 BEP      0.140000
     57 H201        5.2340   -1.8530    1.8980 ha        1 BEP      0.165000
     58 H211        5.8790   -3.8690    0.6250 ha        1 BEP      0.165000
     59 H221        4.5500   -4.5920   -1.3660 ha        1 BEP      0.165000
     60 H231        2.5380   -3.2720   -2.0620 ha        1 BEP      0.165000
     61 H241        1.8470   -1.2750   -0.8190 ha        1 BEP      0.165000
     62 H311        3.2440   -0.5250    2.4110 hn        1 BEP      0.444800
@<TRIPOS>BOND
     1    1    2 1   
     2    1    4 1   
     3    1   28 1   
     4    1   29 1   
     5    2    3 1   
     6    2    5 1   
     7    2   30 1   
     8    3    6 1   
     9    3   31 1   
    10    3   32 1   
    11    4    7 1   
    12    5   11 1   
    13    5   14 1   
    14    6   15 1   
    15    6   22 1   
    16    6   62 1   
    17    7    8 1   
    18    7   33 1   
    19    7   34 1   
    20    8    9 1   
    21    8   10 1   
    22    8   35 1   
    23    9   36 1   
    24    9   37 1   
    25    9   38 1   
    26   10   39 1   
    27   10   40 1   
    28   10   41 1   
    29   11   12 1   
    30   11   42 1   
    31   11   43 1   
    32   12   13 1   
    33   12   44 1   
    34   12   45 1   
    35   13   14 1   
    36   13   46 1   
    37   13   47 1   
    38   14   48 1   
    39   14   49 1   
    40   15   16 1   
    41   15   50 1   
    42   15   51 1   
    43   16   17 ar  
    44   16   21 ar  
    45   17   18 ar  
    46   17   52 1   
    47   18   19 ar  
    48   18   53 1   
    49   19   20 ar  
    50   19   54 1   
    51   20   21 ar  
    52   20   55 1   
    53   21   56 1   
    54   22   23 ar  
    55   22   27 ar  
    56   23   24 ar  
    57   23   57 1   
    58   24   25 ar  
    59   24   58 1   
    60   25   26 ar  
    61   25   59 1   
    62   26   27 ar  
    63   26   60 1   
    64   27   61 1   
@<TRIPOS>SUBSTRUCTURE
     1 BEP         1 TEMP              0 ****  ****    0 ROOT
