@<TRIPOS>MOLECULE
BEP
   61    63     1     0     0
SMALL
bcc


@<TRIPOS>ATOM
      1 C1         -0.0860    0.0040    0.2030 c3        1 BEP      0.097400
      2 C2          1.4120    0.3690    0.0900 c3        1 BEP      0.149500
      3 C3          2.0160    0.2620    1.5260 c3        1 BEP      0.229800
      4 O1         -0.5040   -0.4080   -1.0950 os        1 BEP     -0.426600
      5 N2          1.7360    1.6370   -0.5400 n3        1 BEP     -0.728600
      6 N3          3.4350    0.0480    1.6040 nh        1 BEP     -0.682000
      7 C4         -1.8830   -0.7740   -1.1300 c3        1 BEP      0.130400
      8 C5         -2.2120   -1.1360   -2.5760 c3        1 BEP     -0.069700
      9 C6         -3.5400   -1.8590   -2.6270 c3        1 BEP     -0.091100
     10 C7         -2.2340    0.1030   -3.4450 c3        1 BEP     -0.091100
     11 C8          1.5010    1.6870   -1.9850 c3        1 BEP      0.160800
     12 C9          0.7200    2.9650   -2.3320 c3        1 BEP     -0.092400
     13 C10         0.4660    3.6800   -1.0120 c3        1 BEP     -0.092400
     14 C11         1.1600    2.8360    0.0690 c3        1 BEP      0.160800
     15 C12         4.2860    1.2140    1.5930 c3        1 BEP      0.259100
     16 C13         4.6840    1.7340    2.9500 ca        1 BEP     -0.102300
     17 C14         4.9610    0.8850    4.0250 ca        1 BEP     -0.123000
     18 C15         5.3640    1.4150    5.2520 ca        1 BEP     -0.132000
     19 C16         5.4970    2.7930    5.4120 ca        1 BEP     -0.132000
     20 C17         5.2230    3.6440    4.3410 ca        1 BEP     -0.132000
     21 C18         4.8150    3.1190    3.1170 ca        1 BEP     -0.123000
     22 C19         3.9740   -1.2200    1.3560 ca        1 BEP      0.191600
     23 C20         5.3510   -1.4800    1.5820 ca        1 BEP     -0.204500
     24 C21         5.8780   -2.7480    1.3730 ca        1 BEP     -0.091000
     25 C22         5.0690   -3.8000    0.9470 ca        1 BEP     -0.182000
     26 C23         3.7140   -3.5650    0.7300 ca        1 BEP     -0.091000
     27 C24         3.1660   -2.3020    0.9240 ca        1 BEP     -0.204500
     28 H11        -0.2270   -0.8500    0.9190 h1        1 BEP      0.030200
     29 H12        -0.7080    0.8710    0.5460 h1        1 BEP      0.030200
     30 H21         1.8900   -0.4270   -0.5600 h1        1 BEP      0.086700
     31 H31         1.5080   -0.5960    2.0530 h1        1 BEP      0.055200
     32 H32         1.7760    1.2040    2.0980 h1        1 BEP      0.055200
     33 H41        -2.5130    0.0860   -0.7780 h1        1 BEP      0.027200
     34 H42        -2.0500   -1.6530   -0.4520 h1        1 BEP      0.027200
     35 H51        -1.4030   -1.8230   -2.9530 hc        1 BEP      0.064700
     36 H61        -3.4960   -2.8050   -2.0350 hc        1 BEP      0.036533
     37 H62        -4.3540   -1.2180   -2.2120 hc        1 BEP      0.036533
     38 H63        -3.7950   -2.1140   -3.6840 hc        1 BEP      0.036533
     39 H71        -2.3790   -0.1780   -4.5150 hc        1 BEP      0.036533
     40 H72        -1.2670    0.6540   -3.3420 hc        1 BEP      0.036533
     41 H73        -3.0650    0.7830   -3.1410 hc        1 BEP      0.036533
     42 H81         2.5120    1.7020   -2.4760 h1        1 BEP      0.046950
     43 H82         0.9460    0.7820   -2.3580 h1        1 BEP      0.046950
     44 H91         1.3130    3.6060   -3.0290 hc        1 BEP      0.045700
     45 H92        -0.2410    2.7060   -2.8410 hc        1 BEP      0.045700
     46 H101       -0.6280    3.7580   -0.8030 hc        1 BEP      0.045700
     47 H102        0.8850    4.7150   -1.0260 hc        1 BEP      0.045700
     48 H111        2.0140    3.4150    0.5190 h1        1 BEP      0.046950
     49 H112        0.4410    2.5980    0.8990 h1        1 BEP      0.046950
     50 H121        5.2340    0.9930    1.0180 h1        1 BEP      0.065700
     51 H122        3.7590    2.0460    1.0390 h1        1 BEP      0.065700
     52 H141        4.8620   -0.2050    3.9080 ha        1 BEP      0.137500
     53 H151        5.5780    0.7400    6.0930 ha        1 BEP      0.130000
     54 H161        5.8160    3.2080    6.3790 ha        1 BEP      0.130000
     55 H171        5.3260    4.7320    4.4630 ha        1 BEP      0.130000
     56 H181        4.5970    3.7960    2.2770 ha        1 BEP      0.137500
     57 H201        6.0200   -0.6830    1.9410 ha        1 BEP      0.134000
     58 H211        6.9510   -2.9210    1.5530 ha        1 BEP      0.127000
     59 H221        5.4950   -4.7990    0.7850 ha        1 BEP      0.130000
     60 H231        3.0620   -4.3860    0.3940 ha        1 BEP      0.127000
     61 H241        2.0920   -2.1630    0.7310 ha        1 BEP      0.134000
@<TRIPOS>BOND
     1    1    2 1   
     2    1    4 1   
     3    1   28 1   
     4    1   29 1   
     5    2    3 1   
     6    2    5 1   
     7    2   30 1   
     8    3    6 1   
     9    3   31 1   
    10    3   32 1   
    11    4    7 1   
    12    5   11 1   
    13    5   14 1   
    14    6   15 1   
    15    6   22 1   
    16    7    8 1   
    17    7   33 1   
    18    7   34 1   
    19    8    9 1   
    20    8   10 1   
    21    8   35 1   
    22    9   36 1   
    23    9   37 1   
    24    9   38 1   
    25   10   39 1   
    26   10   40 1   
    27   10   41 1   
    28   11   12 1   
    29   11   42 1   
    30   11   43 1   
    31   12   13 1   
    32   12   44 1   
    33   12   45 1   
    34   13   14 1   
    35   13   46 1   
    36   13   47 1   
    37   14   48 1   
    38   14   49 1   
    39   15   16 1   
    40   15   50 1   
    41   15   51 1   
    42   16   17 ar  
    43   16   21 ar  
    44   17   18 ar  
    45   17   52 1   
    46   18   19 ar  
    47   18   53 1   
    48   19   20 ar  
    49   19   54 1   
    50   20   21 ar  
    51   20   55 1   
    52   21   56 1   
    53   22   23 ar  
    54   22   27 ar  
    55   23   24 ar  
    56   23   57 1   
    57   24   25 ar  
    58   24   58 1   
    59   25   26 ar  
    60   25   59 1   
    61   26   27 ar  
    62   26   60 1   
    63   27   61 1   
@<TRIPOS>SUBSTRUCTURE
     1 BEP         1 TEMP              0 ****  ****    0 ROOT
