@<TRIPOS>MOLECULE
BEP
   61    63     1     0     0
SMALL
bcc


@<TRIPOS>ATOM
      1 C1         -0.0890    0.0110    0.2010 c3        1 BEP      0.097400
      2 C2          1.4090    0.3720    0.0910 c3        1 BEP      0.149500
      3 C3          2.0100    0.2690    1.5290 c3        1 BEP      0.229800
      4 O1         -0.5040   -0.4070   -1.0970 os        1 BEP     -0.426600
      5 N2          1.7390    1.6360   -0.5430 n3        1 BEP     -0.728600
      6 N3          3.4280    0.0500    1.6120 nh        1 BEP     -0.682000
      7 C4         -1.8840   -0.7680   -1.1330 c3        1 BEP      0.130400
      8 C5         -2.2090   -1.1390   -2.5780 c3        1 BEP     -0.069700
      9 C6         -3.5390   -1.8580   -2.6310 c3        1 BEP     -0.091100
     10 C7         -2.2240    0.0940   -3.4550 c3        1 BEP     -0.091100
     11 C8          1.5080    1.6800   -1.9890 c3        1 BEP      0.160800
     12 C9          0.7300    2.9570   -2.3440 c3        1 BEP     -0.092400
     13 C10         0.4750    3.6790   -1.0280 c3        1 BEP     -0.092400
     14 C11         1.1650    2.8390    0.0580 c3        1 BEP      0.160800
     15 C12         4.2830    1.2140    1.5970 c3        1 BEP      0.259100
     16 C13         4.6850    1.7350    2.9520 ca        1 BEP     -0.102300
     17 C14         4.9560    0.8880    4.0310 ca        1 BEP     -0.123000
     18 C15         5.3640    1.4180    5.2550 ca        1 BEP     -0.132000
     19 C16         5.5080    2.7960    5.4100 ca        1 BEP     -0.132000
     20 C17         5.2400    3.6460    4.3370 ca        1 BEP     -0.132000
     21 C18         4.8280    3.1190    3.1150 ca        1 BEP     -0.123000
     22 C19         3.9640   -1.2200    1.3680 ca        1 BEP      0.190600
     23 C20         5.3400   -1.4830    1.5950 ca        1 BEP     -0.204500
     24 C21         5.8640   -2.7540    1.3910 ca        1 BEP     -0.091000
     25 C22         5.0520   -3.8040    0.9680 ca        1 BEP     -0.181000
     26 C23         3.6970   -3.5660    0.7490 ca        1 BEP     -0.091000
     27 C24         3.1530   -2.3010    0.9390 ca        1 BEP     -0.204500
     28 H11        -0.7100    0.8820    0.5370 h1        1 BEP      0.030200
     29 H12        -0.2360   -0.8380    0.9210 h1        1 BEP      0.030200
     30 H21         1.8870   -0.4280   -0.5540 h1        1 BEP      0.086700
     31 H31         1.7710    1.2130    2.0960 h1        1 BEP      0.055200
     32 H32         1.4970   -0.5860    2.0580 h1        1 BEP      0.055200
     33 H41        -2.0570   -1.6430   -0.4510 h1        1 BEP      0.027200
     34 H42        -2.5130    0.0960   -0.7900 h1        1 BEP      0.027200
     35 H51        -1.4010   -1.8310   -2.9480 hc        1 BEP      0.064700
     36 H61        -4.3530   -1.2120   -2.2230 hc        1 BEP      0.036533
     37 H62        -3.5000   -2.8000   -2.0310 hc        1 BEP      0.036533
     38 H63        -3.7910   -2.1190   -3.6870 hc        1 BEP      0.036533
     39 H71        -3.0540    0.7800   -3.1590 hc        1 BEP      0.036533
     40 H72        -1.2550    0.6440   -3.3530 hc        1 BEP      0.036533
     41 H73        -2.3660   -0.1930   -4.5250 hc        1 BEP      0.036533
     42 H81         0.9530    0.7740   -2.3600 h1        1 BEP      0.046950
     43 H82         2.5210    1.6910   -2.4780 h1        1 BEP      0.046950
     44 H91         1.3260    3.5940   -3.0420 hc        1 BEP      0.045700
     45 H92        -0.2300    2.6970   -2.8530 hc        1 BEP      0.045700
     46 H101        0.8950    4.7140   -1.0460 hc        1 BEP      0.045700
     47 H102       -0.6200    3.7600   -0.8220 hc        1 BEP      0.045700
     48 H111        0.4440    2.6070    0.8880 h1        1 BEP      0.046950
     49 H112        2.0190    3.4190    0.5070 h1        1 BEP      0.046950
     50 H121        3.7570    2.0470    1.0430 h1        1 BEP      0.065700
     51 H122        5.2290    0.9890    1.0200 h1        1 BEP      0.065700
     52 H141        4.8480   -0.2030    3.9180 ha        1 BEP      0.137500
     53 H151        5.5720    0.7440    6.0990 ha        1 BEP      0.130000
     54 H161        5.8310    3.2120    6.3750 ha        1 BEP      0.130000
     55 H171        5.3530    4.7330    4.4550 ha        1 BEP      0.130000
     56 H181        4.6150    3.7940    2.2720 ha        1 BEP      0.137500
     57 H201        6.0110   -0.6870    1.9520 ha        1 BEP      0.134000
     58 H211        6.9350   -2.9280    1.5720 ha        1 BEP      0.127000
     59 H221        5.4740   -4.8050    0.8090 ha        1 BEP      0.129000
     60 H231        3.0430   -4.3870    0.4160 ha        1 BEP      0.127000
     61 H241        2.0790   -2.1590    0.7460 ha        1 BEP      0.134000
@<TRIPOS>BOND
     1    1    2 1   
     2    1    4 1   
     3    1   28 1   
     4    1   29 1   
     5    2    3 1   
     6    2    5 1   
     7    2   30 1   
     8    3    6 1   
     9    3   31 1   
    10    3   32 1   
    11    4    7 1   
    12    5   11 1   
    13    5   14 1   
    14    6   15 1   
    15    6   22 1   
    16    7    8 1   
    17    7   33 1   
    18    7   34 1   
    19    8    9 1   
    20    8   10 1   
    21    8   35 1   
    22    9   36 1   
    23    9   37 1   
    24    9   38 1   
    25   10   39 1   
    26   10   40 1   
    27   10   41 1   
    28   11   12 1   
    29   11   42 1   
    30   11   43 1   
    31   12   13 1   
    32   12   44 1   
    33   12   45 1   
    34   13   14 1   
    35   13   46 1   
    36   13   47 1   
    37   14   48 1   
    38   14   49 1   
    39   15   16 1   
    40   15   50 1   
    41   15   51 1   
    42   16   17 ar  
    43   16   21 ar  
    44   17   18 ar  
    45   17   52 1   
    46   18   19 ar  
    47   18   53 1   
    48   19   20 ar  
    49   19   54 1   
    50   20   21 ar  
    51   20   55 1   
    52   21   56 1   
    53   22   23 ar  
    54   22   27 ar  
    55   23   24 ar  
    56   23   57 1   
    57   24   25 ar  
    58   24   58 1   
    59   25   26 ar  
    60   25   59 1   
    61   26   27 ar  
    62   26   60 1   
    63   27   61 1   
@<TRIPOS>SUBSTRUCTURE
     1 BEP         1 TEMP              0 ****  ****    0 ROOT
