@<TRIPOS>MOLECULE
BEP
   61    59     1     0     0
SMALL
bcc


@<TRIPOS>ATOM
      1 C1         -1.9020    0.8060   -0.7930 c3        1 BEP     -0.053000
      2 C2         -0.3340    0.7860   -0.8580 c3        1 BEP     -0.050000
      3 C3          0.2280    0.7390    0.5420 c3        1 BEP     -0.035000
      4 O1         -2.3910   -0.5090   -0.4420 os        1 BEP     -0.283000
      5 N2          0.1140    1.9390   -1.4980 n3        1 BEP     -0.249000
      6 N3          1.6390    0.3380    0.4930 n3        1 BEP     -0.238000
      7 C4         -3.8190   -0.7150   -0.7480 c3        1 BEP     -0.018000
      8 C5         -4.3040   -2.0370   -0.0960 c3        1 BEP     -0.109000
      9 C6         -5.3400   -1.7270    0.9660 c3        1 BEP     -0.208500
     10 C7         -4.9240   -2.9380   -1.1710 c3        1 BEP     -0.208500
     11 C8         -0.9380    3.0550   -1.3280 c3        1 BEP     -0.077500
     12 C9         -1.1950    3.6200   -2.7710 c3        1 BEP     -0.170000
     13 C10        -0.2560    3.1240   -3.4950 c3        1 BEP     -0.170000
     14 C11         0.1750    1.7320   -2.7860 c3        1 BEP     -0.077500
     15 C12         2.0390   -0.8440   -0.2700 c3        1 BEP     -0.012000
     16 C13         2.3930   -2.0430    0.7440 c2        1 BEP     -0.079000
     17 C14         3.5690   -2.7740    0.5710 c2        1 BEP     -0.129000
     18 C15         3.8070   -3.8960    1.3450 c1        1 BEP     -0.132000
     19 C16         2.8840   -4.2910    2.2850 c1        1 BEP     -0.134750
     20 C17         1.7180   -3.5660    2.4570 c1        1 BEP     -0.134750
     21 C18         1.4780   -2.4360    1.6780 c1        1 BEP     -0.104000
     22 C19         2.6250    1.0570    1.2810 c2        1 BEP      0.073000
     23 C20         3.9750    0.7770    1.1230 c2        1 BEP     -0.161000
     24 C21         4.9200    1.5060    1.8230 c1        1 BEP     -0.108000
     25 C22         4.5170    2.5230    2.6890 c1        1 BEP     -0.134750
     26 C23         3.1770    2.8010    2.8460 c1        1 BEP     -0.134750
     27 C24         2.2240    2.0650    2.1380 c1        1 BEP     -0.167000
     28 H11        -2.1920    1.4550   -0.1160 h1        1 BEP      0.069500
     29 H12        -2.2630    1.0680   -1.6730 h1        1 BEP      0.069500
     30 H21        -0.0380    0.0020   -1.3540 h1        1 BEP      0.114000
     31 H31        -0.2820    0.0840    1.0810 h1        1 BEP      0.100000
     32 H32         0.1550    1.6370    0.9560 h1        1 BEP      0.100000
     33 H41        -3.9410   -0.7660   -1.7210 h1        1 BEP      0.066500
     34 H42        -4.3510    0.0520   -0.3840 h1        1 BEP      0.066500
     35 H51        -3.5540   -2.4910    0.3080 hc        1 BEP      0.104000
     36 H61        -6.0410   -1.1760    0.5830 hc        1 BEP      0.076000
     37 H62        -4.9100   -1.2420    1.7140 hc        1 BEP      0.076000
     38 H63        -5.7210   -2.5510    1.2940 hc        1 BEP      0.076000
     39 H71        -5.3790   -3.7170   -0.7340 hc        1 BEP      0.076000
     40 H72        -4.2320   -3.2590   -1.7560 hc        1 BEP      0.076000
     41 H73        -5.5780   -2.4270   -1.6880 hc        1 BEP      0.076000
     42 H81        -1.7700    2.6830   -0.9550 h1        1 BEP      0.083500
     43 H82        -0.5990    3.7440   -0.7570 h1        1 BEP      0.083500
     44 H91        -2.0700    3.3260   -3.1010 hc        1 BEP      0.086500
     45 H92        -1.1420    4.6010   -2.7680 hc        1 BEP      0.086500
     46 H101        0.5230    3.7510   -3.5260 hc        1 BEP      0.086500
     47 H102       -0.5830    2.9510   -4.3940 hc        1 BEP      0.086500
     48 H111       -0.4570    1.0050   -3.0470 h1        1 BEP      0.083500
     49 H112        1.1160    1.4850   -3.0530 h1        1 BEP      0.083500
     50 H121        2.8170   -0.6350   -0.8030 h1        1 BEP      0.088000
     51 H122        1.3110   -1.1150   -0.8540 h1        1 BEP      0.088000
     52 H141        4.2060   -2.5020   -0.0780 ha        1 BEP      0.128000
     53 H151        4.6210   -4.4030    1.2250 ha        1 BEP      0.129000
     54 H161        3.0490   -5.0700    2.8230 ha        1 BEP      0.128000
     55 H171        1.0570   -3.8480    3.1300 ha        1 BEP      0.128000
     56 H181        0.6650   -1.9310    1.7980 ha        1 BEP      0.143000
     57 H201        4.2590    0.0650    0.5180 ha        1 BEP      0.136000
     58 H211        5.8530    1.3110    1.7130 ha        1 BEP      0.127000
     59 H221        5.1810    3.0340    3.1800 ha        1 BEP      0.128000
     60 H231        2.8840    3.5340    3.4700 ha        1 BEP      0.128000
     61 H241        1.3240    2.2510    2.2430 ha        1 BEP      0.130000
@<TRIPOS>BOND
     1    1    2 1   
     2    1    4 1   
     3    1   28 1   
     4    1   29 1   
     5    2    3 1   
     6    2    5 1   
     7    2   30 1   
     8    3    6 1   
     9    3   31 1   
    10    3   32 1   
    11    4    7 1   
    12    5   11 1   
    13    5   14 1   
    14    6   15 1   
    15    6   22 1   
    16    7    8 1   
    17    7   33 1   
    18    7   34 1   
    19    8    9 1   
    20    8   10 1   
    21    8   35 1   
    22    9   36 1   
    23    9   37 1   
    24    9   38 1   
    25   10   39 1   
    26   10   40 1   
    27   10   41 1   
    28   11   12 1   
    29   11   42 1   
    30   11   43 1   
    31   12   13 1   
    32   12   44 1   
    33   12   45 1   
    34   13   14 1   
    35   13   46 1   
    36   13   47 1   
    37   14   48 1   
    38   14   49 1   
    39   15   16 1   
    40   15   50 1   
    41   15   51 1   
    42   16   17 1   
    43   16   21 1   
    44   17   18 1   
    45   17   52 1   
    46   18   53 1   
    47   19   20 1   
    48   19   54 1   
    49   20   55 1   
    50   21   56 1   
    51   22   23 1   
    52   22   27 1   
    53   23   24 1   
    54   23   57 1   
    55   24   58 1   
    56   25   26 1   
    57   25   59 1   
    58   26   60 1   
    59   27   61 1   
@<TRIPOS>SUBSTRUCTURE
     1 BEP         1 TEMP              0 ****  ****    0 ROOT
