@<TRIPOS>MOLECULE
BEQ
   63    62     1     0     0
SMALL
bcc


@<TRIPOS>ATOM
      1 N1          0.2360   -0.0470   -0.0670 n4        1 BEQ     -0.581800
      2 CB          1.3400   -0.9870   -0.4100 c3        1 BEQ      0.086600
      3 CG          0.3740    0.3910    1.3590 c3        1 BEQ      0.086600
      4 CD         -1.0860   -0.7520   -0.2240 c3        1 BEQ     -0.017200
      5 CE         -2.2360    0.2180   -0.5640 c         1 BEQ      0.906600
      6 OE1        -2.9880   -0.0980   -1.5210 o         1 BEQ     -0.811300
      7 OE2        -2.3010    1.3350    0.0340 o         1 BEQ     -0.811300
      8 C1          0.3350    1.1870   -0.9300 c3        1 BEQ      0.104800
      9 C2         -0.0840    1.0340   -2.3900 c3        1 BEQ     -0.119400
     10 C3         -0.7330    2.3130   -2.9210 c3        1 BEQ      0.124800
     11 N2         -2.1970    2.4340   -2.6800 n4        1 BEQ     -0.705800
     12 C4         -3.0590    1.5390   -3.5690 c         1 BEQ      0.597100
     13 O          -2.4620    0.8720   -4.3970 o         1 BEQ     -0.448100
     14 C5         -4.5300    1.6050   -3.2890 c3        1 BEQ     -0.154400
     15 C6         -5.3250    1.3810   -4.5600 c3        1 BEQ     -0.080400
     16 C7         -6.8060    1.3220   -4.2460 c3        1 BEQ     -0.079400
     17 C8         -7.6160    1.1110   -5.5080 c3        1 BEQ     -0.079400
     18 C9         -9.0970    1.0520   -5.2000 c3        1 BEQ     -0.079400
     19 C10        -9.9090    0.8410   -6.4600 c3        1 BEQ     -0.079400
     20 C11       -11.3900    0.7810   -6.1530 c3        1 BEQ     -0.079400
     21 C12       -12.2030    0.5710   -7.4130 c3        1 BEQ     -0.079400
     22 C13       -13.6840    0.5120   -7.1060 c3        1 BEQ     -0.079400
     23 C14       -14.4980    0.3010   -8.3650 c3        1 BEQ     -0.079400
     24 C15       -15.9730    0.2410   -8.0650 c3        1 BEQ     -0.093100
     25 HB1         1.3030   -1.2160   -1.5080 hx        1 BEQ      0.100533
     26 HB2         1.2130   -1.9370    0.1760 hx        1 BEQ      0.100533
     27 HB3         2.3270   -0.5200   -0.1540 hx        1 BEQ      0.100533
     28 HG1         1.3000    1.0110    1.4750 hx        1 BEQ      0.100533
     29 HG2        -0.5390    0.9940    1.6330 hx        1 BEQ      0.100533
     30 HG3         0.4420   -0.5150    2.0160 hx        1 BEQ      0.100533
     31 HD1        -1.3290   -1.2880    0.7350 hx        1 BEQ      0.107700
     32 HD2        -1.0000   -1.5120   -1.0510 hx        1 BEQ      0.107700
     33 H11         1.4100    1.5250   -0.8880 hx        1 BEQ      0.106700
     34 H12        -0.3050    1.9780   -0.4310 hx        1 BEQ      0.106700
     35 H21        -0.7780    0.1620   -2.5580 hc        1 BEQ      0.105200
     36 H22         0.8300    0.8440   -3.0160 hc        1 BEQ      0.105200
     37 H31        -0.5730    2.3450   -4.0400 hx        1 BEQ      0.101700
     38 H32        -0.2390    3.2150   -2.4580 hx        1 BEQ      0.101700
     39 HN2        -2.4750    3.4040   -2.8520 hn        1 BEQ      0.479300
     40 H51        -4.7410    0.7780   -2.5410 hc        1 BEQ      0.119200
     41 H52        -4.8240    2.5770   -2.8130 hc        1 BEQ      0.119200
     42 H61        -5.1240    2.2090   -5.2890 hc        1 BEQ      0.061700
     43 H62        -5.0000    0.4210   -5.0440 hc        1 BEQ      0.061700
     44 H71        -7.0060    0.4860   -3.5250 hc        1 BEQ      0.050200
     45 H72        -7.1260    2.2760   -3.7480 hc        1 BEQ      0.050200
     46 H81        -7.4150    1.9460   -6.2300 hc        1 BEQ      0.045200
     47 H82        -7.2960    0.1580   -6.0050 hc        1 BEQ      0.045200
     48 H91        -9.4170    2.0040   -4.7010 hc        1 BEQ      0.043200
     49 H92        -9.2980    0.2160   -4.4790 hc        1 BEQ      0.043200
     50 H101       -9.7070    1.6760   -7.1820 hc        1 BEQ      0.041700
     51 H102       -9.5890   -0.1120   -6.9590 hc        1 BEQ      0.041700
     52 H111      -11.5920   -0.0540   -5.4320 hc        1 BEQ      0.041200
     53 H112      -11.7100    1.7340   -5.6540 hc        1 BEQ      0.041200
     54 H121      -12.0010    1.4060   -8.1340 hc        1 BEQ      0.040200
     55 H122      -11.8830   -0.3820   -7.9120 hc        1 BEQ      0.040200
     56 H131      -14.0040    1.4640   -6.6070 hc        1 BEQ      0.040200
     57 H132      -13.8860   -0.3230   -6.3850 hc        1 BEQ      0.040200
     58 H141      -14.1760   -0.6510   -8.8640 hc        1 BEQ      0.038700
     59 H142      -14.2930    1.1360   -9.0860 hc        1 BEQ      0.038700
     60 H151      -16.2010   -0.6010   -7.3670 hc        1 BEQ      0.034700
     61 H152      -16.3190    1.1920   -7.5910 hc        1 BEQ      0.034700
     62 H153      -16.5550    0.0860   -9.0060 hc        1 BEQ      0.034700
     63 H221       -2.4320    2.2070   -1.6850 hn        1 BEQ      0.479300
@<TRIPOS>BOND
     1    1    2 1   
     2    1    3 1   
     3    1    4 1   
     4    1    8 1   
     5    2   25 1   
     6    2   26 1   
     7    2   27 1   
     8    3   28 1   
     9    3   29 1   
    10    3   30 1   
    11    4    5 1   
    12    4   31 1   
    13    4   32 1   
    14    5    6 1   
    15    5    7 1   
    16    8    9 1   
    17    8   33 1   
    18    8   34 1   
    19    9   10 1   
    20    9   35 1   
    21    9   36 1   
    22   10   11 1   
    23   10   37 1   
    24   10   38 1   
    25   11   12 1   
    26   11   39 1   
    27   11   63 1   
    28   12   13 2   
    29   12   14 1   
    30   14   15 1   
    31   14   40 1   
    32   14   41 1   
    33   15   16 1   
    34   15   42 1   
    35   15   43 1   
    36   16   17 1   
    37   16   44 1   
    38   16   45 1   
    39   17   18 1   
    40   17   46 1   
    41   17   47 1   
    42   18   19 1   
    43   18   48 1   
    44   18   49 1   
    45   19   20 1   
    46   19   50 1   
    47   19   51 1   
    48   20   21 1   
    49   20   52 1   
    50   20   53 1   
    51   21   22 1   
    52   21   54 1   
    53   21   55 1   
    54   22   23 1   
    55   22   56 1   
    56   22   57 1   
    57   23   24 1   
    58   23   58 1   
    59   23   59 1   
    60   24   60 1   
    61   24   61 1   
    62   24   62 1   
@<TRIPOS>SUBSTRUCTURE
     1 BEQ         1 TEMP              0 ****  ****    0 ROOT
