@<TRIPOS>MOLECULE
BEQ
   62    61     1     0     0
SMALL
bcc


@<TRIPOS>ATOM
      1 N1          6.0300   -5.2930    1.3110 n4        1 BEQ     -0.566800
      2 CB          7.4710   -5.4510    1.1660 c3        1 BEQ      0.087100
      3 CG          5.7220   -4.9330    2.6700 c3        1 BEQ      0.087100
      4 CD          5.3850   -6.5190    0.9830 c3        1 BEQ     -0.062200
      5 CE          6.1730   -7.6780    1.5710 c         1 BEQ      0.934600
      6 OE1         5.8870   -8.1110    2.7180 o         1 BEQ     -0.772800
      7 OE2         7.0140   -8.2970    0.8540 o         1 BEQ     -0.772800
      8 C1          5.5600   -4.2360    0.4090 c3        1 BEQ      0.106800
      9 C2          4.0510   -3.9180    0.7150 c3        1 BEQ     -0.131400
     10 C3          3.5530   -2.8580   -0.2400 c3        1 BEQ      0.098000
     11 N2          2.1620   -2.5280    0.0800 n         1 BEQ     -0.574900
     12 C4          1.4470   -1.5090   -0.7060 c         1 BEQ      0.657100
     13 O           1.9840   -0.9960   -1.6690 o         1 BEQ     -0.606100
     14 C5         -0.0230   -1.1450   -0.3510 c3        1 BEQ     -0.153400
     15 C6         -0.4180    0.1850   -1.0620 c3        1 BEQ     -0.076400
     16 C7         -1.8590    0.5990   -0.6360 c3        1 BEQ     -0.080400
     17 C8         -2.2400    1.9720   -1.3340 c3        1 BEQ     -0.079400
     18 C9         -3.6370    2.4260   -0.8500 c3        1 BEQ     -0.079400
     19 C10        -3.9390    3.8230   -1.3850 c3        1 BEQ     -0.079400
     20 C11        -5.2050    4.3510   -0.7270 c3        1 BEQ     -0.079400
     21 C12        -5.4320    5.8280   -1.1480 c3        1 BEQ     -0.079400
     22 C13        -6.6250    6.4000   -0.3750 c3        1 BEQ     -0.079400
     23 C14        -6.7950    7.8780   -0.7200 c3        1 BEQ     -0.080400
     24 C15        -7.9650    8.4520    0.0710 c3        1 BEQ     -0.093100
     25 HB1         7.8030   -6.0810    1.8510 hx        1 BEQ      0.097867
     26 HB2         7.6730   -5.8050    0.2690 hx        1 BEQ      0.097867
     27 HB3         7.9160   -4.5660    1.2830 hx        1 BEQ      0.097867
     28 HG1         6.3610   -5.3770    3.2820 hx        1 BEQ      0.097867
     29 HG2         5.7910   -3.9650    2.7730 hx        1 BEQ      0.097867
     30 HG3         4.8100   -5.2200    2.8850 hx        1 BEQ      0.097867
     31 HD1         5.3440   -6.6150    0.0110 hx        1 BEQ      0.076200
     32 HD2         4.4830   -6.5210    1.3480 hx        1 BEQ      0.076200
     33 H11         6.1030   -3.4190    0.5460 hx        1 BEQ      0.080200
     34 H12         5.6500   -4.5410   -0.5360 hx        1 BEQ      0.080200
     35 H21         3.5140   -4.7370    0.6050 hc        1 BEQ      0.069700
     36 H22         3.9680   -3.5980    1.6220 hc        1 BEQ      0.069700
     37 H31         4.1100   -2.0530   -0.1550 h1        1 BEQ      0.063700
     38 H32         3.6050   -3.1900   -1.1450 h1        1 BEQ      0.063700
     39 HN2         1.7210   -2.9850    0.7550 hn        1 BEQ      0.314500
     40 H51        -0.6180   -1.8650   -0.6490 hc        1 BEQ      0.074700
     41 H52        -0.1050   -1.0340    0.6160 hc        1 BEQ      0.074700
     42 H61         0.2130    0.8910   -0.8060 hc        1 BEQ      0.047700
     43 H62        -0.3880    0.0560   -2.0470 hc        1 BEQ      0.047700
     44 H71        -2.4890   -0.0890   -0.9090 hc        1 BEQ      0.044200
     45 H72        -1.8940    0.7070    0.3460 hc        1 BEQ      0.044200
     46 H81        -2.2550    1.8490   -2.3180 hc        1 BEQ      0.041200
     47 H82        -1.5720    2.6560   -1.1000 hc        1 BEQ      0.041200
     48 H91        -3.6550    2.4410    0.1290 hc        1 BEQ      0.041200
     49 H92        -4.3090    1.8050   -1.1770 hc        1 BEQ      0.041200
     50 H101       -4.0680    3.7800   -2.3510 hc        1 BEQ      0.040200
     51 H102       -3.2020    4.4110   -1.1840 hc        1 BEQ      0.040200
     52 H111       -5.9600    3.8160   -1.0070 hc        1 BEQ      0.040200
     53 H112       -5.1120    4.3000    0.2540 hc        1 BEQ      0.040200
     54 H121       -4.6280    6.3530   -0.9440 hc        1 BEQ      0.039700
     55 H122       -5.6150    5.8700   -2.1140 hc        1 BEQ      0.039700
     56 H131       -7.4380    5.9130   -0.6220 hc        1 BEQ      0.039700
     57 H132       -6.4670    6.3050    0.5870 hc        1 BEQ      0.039700
     58 H141       -6.9700    7.9710   -1.6710 hc        1 BEQ      0.038700
     59 H142       -5.9650    8.3690   -0.4880 hc        1 BEQ      0.038700
     60 H151       -8.8050    8.0090   -0.2140 hc        1 BEQ      0.032700
     61 H152       -7.8220    8.2940    1.0270 hc        1 BEQ      0.032700
     62 H153       -8.0300    9.4210   -0.0970 hc        1 BEQ      0.032700
@<TRIPOS>BOND
     1    1    2 1   
     2    1    3 1   
     3    1    4 1   
     4    1    8 1   
     5    2   25 1   
     6    2   26 1   
     7    2   27 1   
     8    3   28 1   
     9    3   29 1   
    10    3   30 1   
    11    4    5 1   
    12    4   31 1   
    13    4   32 1   
    14    5    6 1   
    15    5    7 1   
    16    8    9 1   
    17    8   33 1   
    18    8   34 1   
    19    9   10 1   
    20    9   35 1   
    21    9   36 1   
    22   10   11 1   
    23   10   37 1   
    24   10   38 1   
    25   11   12 1   
    26   11   39 1   
    27   12   13 2   
    28   12   14 1   
    29   14   15 1   
    30   14   40 1   
    31   14   41 1   
    32   15   16 1   
    33   15   42 1   
    34   15   43 1   
    35   16   17 1   
    36   16   44 1   
    37   16   45 1   
    38   17   18 1   
    39   17   46 1   
    40   17   47 1   
    41   18   19 1   
    42   18   48 1   
    43   18   49 1   
    44   19   20 1   
    45   19   50 1   
    46   19   51 1   
    47   20   21 1   
    48   20   52 1   
    49   20   53 1   
    50   21   22 1   
    51   21   54 1   
    52   21   55 1   
    53   22   23 1   
    54   22   56 1   
    55   22   57 1   
    56   23   24 1   
    57   23   58 1   
    58   23   59 1   
    59   24   60 1   
    60   24   61 1   
    61   24   62 1   
@<TRIPOS>SUBSTRUCTURE
     1 BEQ         1 TEMP              0 ****  ****    0 ROOT
