@<TRIPOS>MOLECULE
BEQ
   62    61     1     0     0
SMALL
bcc


@<TRIPOS>ATOM
      1 N1         12.5450   -5.3730    6.0540 n4        1 BEQ     -0.571800
      2 CB         13.9840   -4.9940    6.0350 c3        1 BEQ      0.086100
      3 CG         12.4260   -6.8240    6.3920 c3        1 BEQ      0.086100
      4 CD         11.9540   -5.1460    4.6950 c3        1 BEQ     -0.048200
      5 CE         10.4170   -5.4300    4.5430 c         1 BEQ      0.925600
      6 OE1         9.7670   -5.8280    5.5470 o         1 BEQ     -0.783800
      7 OE2         9.9740   -5.2000    3.3980 o         1 BEQ     -0.783800
      8 C1         11.8270   -4.5870    7.1220 c3        1 BEQ      0.105800
      9 C2         11.7950   -3.0750    6.9440 c3        1 BEQ     -0.126400
     10 C3         10.3710   -2.5260    7.1350 c3        1 BEQ      0.099000
     11 N2          9.4480   -2.8160    6.0830 n         1 BEQ     -0.581900
     12 C4          9.2430   -1.9300    5.0320 c         1 BEQ      0.660100
     13 O           9.7900   -0.8070    5.0390 o         1 BEQ     -0.633100
     14 C5          8.3160   -2.3910    3.9280 c3        1 BEQ     -0.164400
     15 C6          8.1410   -1.3160    2.8780 c3        1 BEQ     -0.067400
     16 C7          7.2290   -1.7930    1.7690 c3        1 BEQ     -0.081400
     17 C8          7.0540   -0.7260    0.7100 c3        1 BEQ     -0.077400
     18 C9          6.1410   -1.2000   -0.4010 c3        1 BEQ     -0.079400
     19 C10         5.9670   -0.1340   -1.4620 c3        1 BEQ     -0.078400
     20 C11         5.0550   -0.6070   -2.5730 c3        1 BEQ     -0.079400
     21 C12         4.8810    0.4580   -3.6340 c3        1 BEQ     -0.079400
     22 C13         3.9680   -0.0150   -4.7440 c3        1 BEQ     -0.079400
     23 C14         3.7930    1.0500   -5.8060 c3        1 BEQ     -0.080400
     24 C15         2.8850    0.5830   -6.9140 c3        1 BEQ     -0.092100
     25 HB1        14.4480   -5.2270    7.0290 hx        1 BEQ      0.089200
     26 HB2        14.5110   -5.5700    5.2300 hx        1 BEQ      0.089200
     27 HB3        14.0770   -3.8950    5.8280 hx        1 BEQ      0.089200
     28 HG1        12.9990   -7.4240    5.6390 hx        1 BEQ      0.089200
     29 HG2        12.8370   -7.0050    7.4180 hx        1 BEQ      0.089200
     30 HG3        11.3330   -7.1080    6.3510 hx        1 BEQ      0.089200
     31 HD1        12.1270   -4.0760    4.4030 hx        1 BEQ      0.084700
     32 HD2        12.4930   -5.8140    3.9710 hx        1 BEQ      0.084700
     33 H11        12.3370   -4.8350    8.0960 hx        1 BEQ      0.106200
     34 H12        10.7700   -5.0000    7.1540 hx        1 BEQ      0.106200
     35 H21        12.4520   -2.6050    7.7210 hc        1 BEQ      0.061700
     36 H22        12.1800   -2.7430    5.9450 hc        1 BEQ      0.061700
     37 H31         9.9540   -2.9460    8.0950 h1        1 BEQ      0.064200
     38 H32        10.4570   -1.4050    7.2420 h1        1 BEQ      0.064200
     39 HN2         9.1600   -3.7670    5.9670 hn        1 BEQ      0.345500
     40 H51         7.3200   -2.6590    4.3710 hc        1 BEQ      0.091700
     41 H52         8.7410   -3.3270    3.4620 hc        1 BEQ      0.091700
     42 H61         9.1440   -1.0390    2.4580 hc        1 BEQ      0.050200
     43 H62         7.7210   -0.3900    3.3520 hc        1 BEQ      0.050200
     44 H71         6.2280   -2.0670    2.1950 hc        1 BEQ      0.044200
     45 H72         7.6550   -2.7210    1.3040 hc        1 BEQ      0.044200
     46 H81         6.6300    0.2020    1.1760 hc        1 BEQ      0.038700
     47 H82         8.0550   -0.4530    0.2830 hc        1 BEQ      0.038700
     48 H91         6.5660   -2.1280   -0.8670 hc        1 BEQ      0.040200
     49 H92         5.1400   -1.4730    0.0250 hc        1 BEQ      0.040200
     50 H101        6.9680    0.1390   -1.8880 hc        1 BEQ      0.038700
     51 H102        5.5430    0.7940   -0.9960 hc        1 BEQ      0.038700
     52 H111        5.4800   -1.5360   -3.0380 hc        1 BEQ      0.039200
     53 H112        4.0540   -0.8800   -2.1460 hc        1 BEQ      0.039200
     54 H121        4.4560    1.3870   -3.1680 hc        1 BEQ      0.038700
     55 H122        5.8820    0.7320   -4.0600 hc        1 BEQ      0.038700
     56 H131        4.3930   -0.9430   -5.2100 hc        1 BEQ      0.039700
     57 H132        2.9670   -0.2880   -4.3180 hc        1 BEQ      0.039700
     58 H141        3.3700    1.9780   -5.3380 hc        1 BEQ      0.037700
     59 H142        4.7960    1.3230   -6.2300 hc        1 BEQ      0.037700
     60 H151        3.3030   -0.3270   -7.4090 hc        1 BEQ      0.032033
     61 H152        2.7700    1.3820   -7.6850 hc        1 BEQ      0.032033
     62 H153        1.8730    0.3300   -6.5150 hc        1 BEQ      0.032033
@<TRIPOS>BOND
     1    1    2 1   
     2    1    3 1   
     3    1    4 1   
     4    1    8 1   
     5    2   25 1   
     6    2   26 1   
     7    2   27 1   
     8    3   28 1   
     9    3   29 1   
    10    3   30 1   
    11    4    5 1   
    12    4   31 1   
    13    4   32 1   
    14    5    6 1   
    15    5    7 1   
    16    8    9 1   
    17    8   33 1   
    18    8   34 1   
    19    9   10 1   
    20    9   35 1   
    21    9   36 1   
    22   10   11 1   
    23   10   37 1   
    24   10   38 1   
    25   11   12 1   
    26   11   39 1   
    27   12   13 2   
    28   12   14 1   
    29   14   15 1   
    30   14   40 1   
    31   14   41 1   
    32   15   16 1   
    33   15   42 1   
    34   15   43 1   
    35   16   17 1   
    36   16   44 1   
    37   16   45 1   
    38   17   18 1   
    39   17   46 1   
    40   17   47 1   
    41   18   19 1   
    42   18   48 1   
    43   18   49 1   
    44   19   20 1   
    45   19   50 1   
    46   19   51 1   
    47   20   21 1   
    48   20   52 1   
    49   20   53 1   
    50   21   22 1   
    51   21   54 1   
    52   21   55 1   
    53   22   23 1   
    54   22   56 1   
    55   22   57 1   
    56   23   24 1   
    57   23   58 1   
    58   23   59 1   
    59   24   60 1   
    60   24   61 1   
    61   24   62 1   
@<TRIPOS>SUBSTRUCTURE
     1 BEQ         1 TEMP              0 ****  ****    0 ROOT
