@<TRIPOS>MOLECULE
BEQ
   63    62     1     0     0
SMALL
bcc


@<TRIPOS>ATOM
      1 N1          0.2260    0.0280   -0.0360 n4        1 BEQ     -0.581800
      2 CB          1.3060   -0.9560   -0.3270 c3        1 BEQ      0.086600
      3 CG          0.3780    0.5430    1.3630 c3        1 BEQ      0.086600
      4 CD         -1.1130   -0.6540   -0.1510 c3        1 BEQ     -0.017200
      5 CE         -2.2410    0.3220   -0.5440 c         1 BEQ      0.906600
      6 OE1        -2.2780    1.4730   -0.0110 o         1 BEQ     -0.811300
      7 OE2        -3.0030   -0.0300   -1.4800 o         1 BEQ     -0.811300
      8 C1          0.3510    1.2090   -0.9680 c3        1 BEQ      0.104800
      9 C2         -0.0760    0.9830   -2.4160 c3        1 BEQ     -0.119400
     10 C3         -0.6960    2.2440   -3.0180 c3        1 BEQ      0.124800
     11 N2         -2.1560    2.4130   -2.7820 ny        1 BEQ     -0.705800
     12 C4         -3.0420    1.4900   -3.6180 c         1 BEQ      0.597100
     13 O          -2.4620    0.7620   -4.4080 o         1 BEQ     -0.448100
     14 C5         -4.5090    1.6060   -3.3400 c3        1 BEQ     -0.154400
     15 C6         -5.3130    1.3260   -4.5950 c3        1 BEQ     -0.080400
     16 C7         -6.7940    1.3210   -4.2750 c3        1 BEQ     -0.079400
     17 C8         -7.6120    1.0550   -5.5210 c3        1 BEQ     -0.079400
     18 C9         -9.0930    1.0480   -5.2070 c3        1 BEQ     -0.079400
     19 C10        -9.9140    0.7830   -6.4520 c3        1 BEQ     -0.079400
     20 C11       -11.3950    0.7760   -6.1390 c3        1 BEQ     -0.079400
     21 C12       -12.2160    0.5110   -7.3830 c3        1 BEQ     -0.079400
     22 C13       -13.6980    0.5050   -7.0710 c3        1 BEQ     -0.079400
     23 C14       -14.5210    0.2400   -8.3140 c3        1 BEQ     -0.079400
     24 C15       -15.9960    0.2320   -8.0080 c3        1 BEQ     -0.093100
     25 HB1         1.2620   -1.2450   -1.4100 hx        1 BEQ      0.100533
     26 HB2         1.1590   -1.8670    0.3120 hx        1 BEQ      0.100533
     27 HB3         2.3050   -0.4970   -0.0990 hx        1 BEQ      0.100533
     28 HG1         1.3180    1.1470    1.4420 hx        1 BEQ      0.100533
     29 HG2        -0.5210    1.1820    1.6030 hx        1 BEQ      0.100533
     30 HG3         0.4260   -0.3260    2.0700 hx        1 BEQ      0.100533
     31 HD1        -1.3650   -1.1280    0.8370 hx        1 BEQ      0.107700
     32 HD2        -1.0470   -1.4610   -0.9330 hx        1 BEQ      0.107700
     33 H11         1.4340    1.5240   -0.9470 hx        1 BEQ      0.106700
     34 H12        -0.2690    2.0410   -0.5140 hx        1 BEQ      0.106700
     35 H21        -0.7900    0.1190   -2.5330 hc        1 BEQ      0.105200
     36 H22         0.8320    0.7360   -3.0320 hc        1 BEQ      0.105200
     37 H31        -0.5380    2.2090   -4.1370 hx        1 BEQ      0.101700
     38 H32        -0.1800    3.1600   -2.6080 hx        1 BEQ      0.101700
     39 HN2        -2.4120    3.3770   -3.0090 hn        1 BEQ      0.479300
     40 H51        -4.7370    0.8290   -2.5450 hc        1 BEQ      0.119200
     41 H52        -4.7800    2.6100   -2.9210 hc        1 BEQ      0.119200
     42 H61        -5.0960    2.1060   -5.3710 hc        1 BEQ      0.061700
     43 H62        -5.0120    0.3330   -5.0220 hc        1 BEQ      0.061700
     44 H71        -7.0110    0.5330   -3.5060 hc        1 BEQ      0.050200
     45 H72        -7.0910    2.3090   -3.8330 hc        1 BEQ      0.050200
     46 H81        -7.3950    1.8420   -6.2910 hc        1 BEQ      0.045200
     47 H82        -7.3160    0.0670   -5.9630 hc        1 BEQ      0.045200
     48 H91        -9.3900    2.0350   -4.7640 hc        1 BEQ      0.043200
     49 H92        -9.3120    0.2610   -4.4380 hc        1 BEQ      0.043200
     50 H101       -9.6960    1.5700   -7.2210 hc        1 BEQ      0.041700
     51 H102       -9.6180   -0.2040   -6.8940 hc        1 BEQ      0.041700
     52 H111      -11.6140   -0.0100   -5.3700 hc        1 BEQ      0.041200
     53 H112      -11.6910    1.7640   -5.6960 hc        1 BEQ      0.041200
     54 H121      -11.9980    1.2980   -8.1530 hc        1 BEQ      0.040200
     55 H122      -11.9210   -0.4760   -7.8260 hc        1 BEQ      0.040200
     56 H131      -13.9940    1.4920   -6.6280 hc        1 BEQ      0.040200
     57 H132      -13.9170   -0.2820   -6.3010 hc        1 BEQ      0.040200
     58 H141      -14.2220   -0.7470   -8.7560 hc        1 BEQ      0.038700
     59 H142      -14.2990    1.0260   -9.0830 hc        1 BEQ      0.038700
     60 H151      -16.2400   -0.5620   -7.2620 hc        1 BEQ      0.034700
     61 H152      -16.3170    1.2170   -7.5890 hc        1 BEQ      0.034700
     62 H153      -16.5840    0.0360   -8.9370 hc        1 BEQ      0.034700
     63 H221       -2.3940    2.2480   -1.7760 hn        1 BEQ      0.479300
@<TRIPOS>BOND
     1    1    2 1   
     2    1    3 1   
     3    1    4 1   
     4    1    8 1   
     5    2   25 1   
     6    2   26 1   
     7    2   27 1   
     8    3   28 1   
     9    3   29 1   
    10    3   30 1   
    11    4    5 1   
    12    4   31 1   
    13    4   32 1   
    14    5    6 1   
    15    5    7 1   
    16    8    9 1   
    17    8   33 1   
    18    8   34 1   
    19    9   10 1   
    20    9   35 1   
    21    9   36 1   
    22   10   11 1   
    23   10   37 1   
    24   10   38 1   
    25   11   12 1   
    26   11   39 1   
    27   11   63 1   
    28   12   13 2   
    29   12   14 1   
    30   14   15 1   
    31   14   40 1   
    32   14   41 1   
    33   15   16 1   
    34   15   42 1   
    35   15   43 1   
    36   16   17 1   
    37   16   44 1   
    38   16   45 1   
    39   17   18 1   
    40   17   46 1   
    41   17   47 1   
    42   18   19 1   
    43   18   48 1   
    44   18   49 1   
    45   19   20 1   
    46   19   50 1   
    47   19   51 1   
    48   20   21 1   
    49   20   52 1   
    50   20   53 1   
    51   21   22 1   
    52   21   54 1   
    53   21   55 1   
    54   22   23 1   
    55   22   56 1   
    56   22   57 1   
    57   23   24 1   
    58   23   58 1   
    59   23   59 1   
    60   24   60 1   
    61   24   61 1   
    62   24   62 1   
@<TRIPOS>SUBSTRUCTURE
     1 BEQ         1 TEMP              0 ****  ****    0 ROOT
