@<TRIPOS>MOLECULE
BEQ
   63    62     1     0     0
SMALL
bcc


@<TRIPOS>ATOM
      1 N1          0.2290   -0.0560   -0.0660 n4        1 BEQ     -0.581800
      2 CB          1.3310   -0.9970   -0.4120 c3        1 BEQ      0.086600
      3 CG          0.3650    0.3750    1.3620 c3        1 BEQ      0.086600
      4 CD         -1.0940   -0.7580   -0.2290 c3        1 BEQ     -0.017200
      5 CE         -2.2430    0.2160   -0.5660 c         1 BEQ      0.906600
      6 OE1        -2.9940   -0.0950   -1.5250 o         1 BEQ     -0.811300
      7 OE2        -2.3060    1.3300    0.0360 o         1 BEQ     -0.811300
      8 C1          0.3310    1.1820   -0.9240 c3        1 BEQ      0.104800
      9 C2         -0.0860    1.0360   -2.3850 c3        1 BEQ     -0.119400
     10 C3         -0.7320    2.3180   -2.9110 c3        1 BEQ      0.124800
     11 N2         -2.1960    2.4410   -2.6720 n4        1 BEQ     -0.705800
     12 C4         -3.0580    1.5520   -3.5660 c         1 BEQ      0.597100
     13 O          -2.4600    0.8870   -4.3970 o         1 BEQ     -0.448100
     14 C5         -4.5290    1.6190   -3.2880 c3        1 BEQ     -0.155400
     15 C6         -5.3230    1.3930   -4.5600 c3        1 BEQ     -0.080400
     16 C7         -6.8040    1.3370   -4.2470 c3        1 BEQ     -0.079400
     17 C8         -7.6130    1.1210   -5.5090 c3        1 BEQ     -0.079400
     18 C9         -9.0940    1.0630   -5.2030 c3        1 BEQ     -0.079400
     19 C10        -9.9050    0.8440   -6.4620 c3        1 BEQ     -0.079400
     20 C11       -11.3860    0.7860   -6.1570 c3        1 BEQ     -0.079400
     21 C12       -12.1970    0.5650   -7.4150 c3        1 BEQ     -0.079400
     22 C13       -13.6790    0.5080   -7.1110 c3        1 BEQ     -0.079400
     23 C14       -14.4920    0.2850   -8.3680 c3        1 BEQ     -0.079400
     24 C15       -15.9670    0.2270   -8.0690 c3        1 BEQ     -0.093100
     25 HB1         1.2020   -1.9480    0.1690 hx        1 BEQ      0.100533
     26 HB2         1.2960   -1.2200   -1.5110 hx        1 BEQ      0.100533
     27 HB3         2.3190   -0.5320   -0.1520 hx        1 BEQ      0.100533
     28 HG1         0.4310   -0.5340    2.0150 hx        1 BEQ      0.100533
     29 HG2        -0.5470    0.9790    1.6370 hx        1 BEQ      0.100533
     30 HG3         1.2920    0.9930    1.4820 hx        1 BEQ      0.100533
     31 HD1        -1.0080   -1.5140   -1.0590 hx        1 BEQ      0.107700
     32 HD2        -1.3390   -1.2970    0.7270 hx        1 BEQ      0.107700
     33 H11         1.4070    1.5180   -0.8780 hx        1 BEQ      0.106700
     34 H12        -0.3080    1.9710   -0.4220 hx        1 BEQ      0.106700
     35 H21         0.8290    0.8470   -3.0110 hc        1 BEQ      0.105200
     36 H22        -0.7810    0.1660   -2.5580 hc        1 BEQ      0.105200
     37 H31        -0.5700    2.3560   -4.0290 hx        1 BEQ      0.101700
     38 H32        -0.2370    3.2180   -2.4430 hx        1 BEQ      0.101700
     39 HN2        -2.4720    3.4120   -2.8400 hn        1 BEQ      0.479300
     40 H51        -4.7420    0.7940   -2.5390 hc        1 BEQ      0.119200
     41 H52        -4.8230    2.5920   -2.8150 hc        1 BEQ      0.119200
     42 H61        -5.1210    2.2200   -5.2910 hc        1 BEQ      0.061700
     43 H62        -4.9980    0.4320   -5.0410 hc        1 BEQ      0.061700
     44 H71        -7.0060    0.5040   -3.5230 hc        1 BEQ      0.050200
     45 H72        -7.1250    2.2930   -3.7540 hc        1 BEQ      0.050200
     46 H81        -7.2930    0.1650   -6.0020 hc        1 BEQ      0.045200
     47 H82        -7.4110    1.9520   -6.2350 hc        1 BEQ      0.045200
     48 H91        -9.2960    0.2320   -4.4760 hc        1 BEQ      0.043200
     49 H92        -9.4150    2.0190   -4.7100 hc        1 BEQ      0.043200
     50 H101       -9.5850   -0.1120   -6.9540 hc        1 BEQ      0.041700
     51 H102       -9.7030    1.6740   -7.1900 hc        1 BEQ      0.041700
     52 H111      -11.7070    1.7430   -5.6660 hc        1 BEQ      0.041200
     53 H112      -11.5880   -0.0430   -5.4280 hc        1 BEQ      0.041200
     54 H121      -11.9950    1.3940   -8.1440 hc        1 BEQ      0.040200
     55 H122      -11.8770   -0.3920   -7.9060 hc        1 BEQ      0.040200
     56 H131      -13.8810   -0.3210   -6.3810 hc        1 BEQ      0.040200
     57 H132      -14.0000    1.4650   -6.6210 hc        1 BEQ      0.040200
     58 H141      -14.2870    1.1130   -9.0970 hc        1 BEQ      0.038700
     59 H142      -14.1680   -0.6720   -8.8570 hc        1 BEQ      0.038700
     60 H151      -16.5470    0.0630   -9.0090 hc        1 BEQ      0.034700
     61 H152      -16.3130    1.1820   -7.6040 hc        1 BEQ      0.034700
     62 H153      -16.1950   -0.6080   -7.3640 hc        1 BEQ      0.034700
     63 H221       -2.4330    2.2090   -1.6780 hn        1 BEQ      0.479300
@<TRIPOS>BOND
     1    1    2 1   
     2    1    3 1   
     3    1    4 1   
     4    1    8 1   
     5    2   25 1   
     6    2   26 1   
     7    2   27 1   
     8    3   28 1   
     9    3   29 1   
    10    3   30 1   
    11    4    5 1   
    12    4   31 1   
    13    4   32 1   
    14    5    6 1   
    15    5    7 1   
    16    8    9 1   
    17    8   33 1   
    18    8   34 1   
    19    9   10 1   
    20    9   35 1   
    21    9   36 1   
    22   10   11 1   
    23   10   37 1   
    24   10   38 1   
    25   11   12 1   
    26   11   39 1   
    27   11   63 1   
    28   12   13 2   
    29   12   14 1   
    30   14   15 1   
    31   14   40 1   
    32   14   41 1   
    33   15   16 1   
    34   15   42 1   
    35   15   43 1   
    36   16   17 1   
    37   16   44 1   
    38   16   45 1   
    39   17   18 1   
    40   17   46 1   
    41   17   47 1   
    42   18   19 1   
    43   18   48 1   
    44   18   49 1   
    45   19   20 1   
    46   19   50 1   
    47   19   51 1   
    48   20   21 1   
    49   20   52 1   
    50   20   53 1   
    51   21   22 1   
    52   21   54 1   
    53   21   55 1   
    54   22   23 1   
    55   22   56 1   
    56   22   57 1   
    57   23   24 1   
    58   23   58 1   
    59   23   59 1   
    60   24   60 1   
    61   24   61 1   
    62   24   62 1   
@<TRIPOS>SUBSTRUCTURE
     1 BEQ         1 TEMP              0 ****  ****    0 ROOT
