@<TRIPOS>MOLECULE
BER
   43    47     1     0     0
SMALL
bcc


@<TRIPOS>ATOM
      1 C1         -0.7240   -0.1330    0.0030 ca        1 BER      0.038700
      2 C2         -2.1880   -0.1100    0.0830 ca        1 BER     -0.090000
      3 N1         -0.0810   -1.3670   -0.2040 na        1 BER      0.017900
      4 C3          0.0420    1.0140    0.1430 ca        1 BER     -0.108000
      5 C4         -2.8850   -1.2880    0.4040 ca        1 BER     -0.054300
      6 C5         -2.8730    1.1070   -0.1550 ca        1 BER     -0.084000
      7 C6          1.2600   -1.4340   -0.2960 ca        1 BER      0.059700
      8 C7         -0.8930   -2.5840   -0.3070 c3        1 BER      0.000300
      9 C8          1.4600    0.9790    0.0430 ca        1 BER      0.018000
     10 C9         -4.2860   -1.3070    0.5520 ca        1 BER     -0.112000
     11 C10        -2.1240   -2.5510    0.5930 c3        1 BER     -0.056100
     12 C11        -4.2420    1.0770   -0.0120 ca        1 BER      0.066100
     13 C12         2.0810   -0.2820   -0.1910 ca        1 BER     -0.109000
     14 C13         2.2610    2.1310    0.1670 ca        1 BER     -0.130000
     15 C14        -4.9420   -0.1110    0.3450 ca        1 BER      0.108100
     16 O1         -5.1490    2.1120   -0.1760 os        1 BER     -0.319900
     17 C15         3.5030   -0.3730   -0.3040 ca        1 BER      0.164100
     18 C16         3.6350    2.0380    0.0580 ca        1 BER     -0.089000
     19 O2         -6.2950    0.1580    0.4150 os        1 BER     -0.312900
     20 C17        -6.4660    1.5640    0.0910 c3        1 BER      0.320200
     21 C18         4.2700    0.7970   -0.1780 ca        1 BER      0.071100
     22 O3          3.9510   -1.6470   -0.5290 os        1 BER     -0.336900
     23 O4          5.6350    0.6590   -0.2940 os        1 BER     -0.325900
     24 C19         5.3570   -1.8690   -0.6760 c3        1 BER      0.124700
     25 C20         6.4180    1.8470   -0.1710 c3        1 BER      0.106700
     26 H31        -0.4500    1.9800    0.3470 ha        1 BER      0.185000
     27 H51        -2.3530    2.0270   -0.4530 ha        1 BER      0.165000
     28 H61         1.7290   -2.4310   -0.4600 h4        1 BER      0.213000
     29 H71        -0.2530   -3.4720   -0.0370 h1        1 BER      0.095700
     30 H72        -1.2120   -2.6800   -1.3860 h1        1 BER      0.095700
     31 H91        -4.8240   -2.2280    0.8160 ha        1 BER      0.176000
     32 H101       -1.8290   -2.6540    1.6730 hc        1 BER      0.092700
     33 H102       -2.7570   -3.4430    0.3320 hc        1 BER      0.092700
     34 H131        1.7840    3.1060    0.3510 ha        1 BER      0.167000
     35 H161        4.2450    2.9510    0.1570 ha        1 BER      0.169000
     36 H171       -6.8950    2.0840    0.9830 h2        1 BER      0.094700
     37 H172       -7.0800    1.6410   -0.8400 h2        1 BER      0.094700
     38 H191        5.4120   -2.9740   -0.8540 h1        1 BER      0.068367
     39 H192        5.7490   -1.2990   -1.5520 h1        1 BER      0.068367
     40 H193        5.8930   -1.5830    0.2600 h1        1 BER      0.068367
     41 H201        7.4650    1.4690   -0.3040 h1        1 BER      0.062033
     42 H202        6.1570    2.5760   -0.9760 h1        1 BER      0.062033
     43 H203        6.2880    2.3010    0.8410 h1        1 BER      0.062033
@<TRIPOS>BOND
     1    1    2 1   
     2    1    3 1   
     3    1    4 ar  
     4    2    5 ar  
     5    2    6 ar  
     6    3    7 2   
     7    3    8 1   
     8    4    9 ar  
     9    4   26 1   
    10    5   10 ar  
    11    5   11 1   
    12    6   12 ar  
    13    6   27 1   
    14    7   13 ar  
    15    7   28 1   
    16    8   11 1   
    17    8   29 1   
    18    8   30 1   
    19    9   13 ar  
    20    9   14 ar  
    21   10   15 ar  
    22   10   31 1   
    23   11   32 1   
    24   11   33 1   
    25   12   15 ar  
    26   12   16 1   
    27   13   17 ar  
    28   14   18 ar  
    29   14   34 1   
    30   15   19 1   
    31   16   20 1   
    32   17   21 ar  
    33   17   22 1   
    34   18   21 ar  
    35   18   35 1   
    36   19   20 1   
    37   20   36 1   
    38   20   37 1   
    39   21   23 1   
    40   22   24 1   
    41   23   25 1   
    42   24   38 1   
    43   24   39 1   
    44   24   40 1   
    45   25   41 1   
    46   25   42 1   
    47   25   43 1   
@<TRIPOS>SUBSTRUCTURE
     1 BER         1 TEMP              0 ****  ****    0 ROOT
