@<TRIPOS>MOLECULE
BER
   43    47     1     0     0
SMALL
bcc


@<TRIPOS>ATOM
      1 C1          0.1860   -0.0010   -0.0610 ca        1 BER      0.038700
      2 C2          1.6510   -0.0690   -0.0180 ca        1 BER     -0.090000
      3 N1         -0.4980    0.4930    1.0650 na        1 BER      0.017900
      4 C3         -0.5410   -0.4220   -1.1630 ca        1 BER     -0.108000
      5 C4          2.3090   -0.0870    1.2240 ca        1 BER     -0.054300
      6 C5          2.3740   -0.1250   -1.2340 ca        1 BER     -0.084000
      7 C6         -1.8400    0.5840    1.0660 ca        1 BER      0.059700
      8 C7          0.2730    0.8950    2.2460 c3        1 BER      0.000300
      9 C8         -1.9590   -0.3320   -1.1980 ca        1 BER      0.018000
     10 C9          3.7090   -0.2110    1.3230 ca        1 BER     -0.112000
     11 C10         1.5080    0.0280    2.4710 c3        1 BER     -0.056100
     12 C11         3.7420   -0.2420   -1.1270 ca        1 BER      0.066100
     13 C12        -2.6230    0.1940   -0.0520 ca        1 BER     -0.109000
     14 C13        -2.7220   -0.7390   -2.3100 ca        1 BER     -0.130000
     15 C14         4.4040   -0.2930    0.1330 ca        1 BER      0.108100
     16 O1          4.6820   -0.3240   -2.1420 os        1 BER     -0.319900
     17 C15        -4.0470    0.3110   -0.0350 ca        1 BER      0.164100
     18 C16        -4.0980   -0.6250   -2.2890 ca        1 BER     -0.089000
     19 O2          5.7650   -0.4120   -0.0690 os        1 BER     -0.312900
     20 C17         5.9810   -0.4360   -1.5050 c3        1 BER      0.320200
     21 C18        -4.7740   -0.1030   -1.1630 ca        1 BER      0.071100
     22 O3         -4.5370    0.8320    1.1320 os        1 BER     -0.336900
     23 O4         -6.1440    0.0280   -1.1010 os        1 BER     -0.325900
     24 C19        -5.9500    1.0140    1.2670 c3        1 BER      0.124700
     25 C20        -6.8870   -0.3870   -2.2480 c3        1 BER      0.106700
     26 H31        -0.0170   -0.8490   -2.0360 ha        1 BER      0.185000
     27 H51         1.8850   -0.0640   -2.2150 ha        1 BER      0.165000
     28 H61        -2.3420    0.9790    1.9780 h4        1 BER      0.213000
     29 H71        -0.3950    0.8420    3.1520 h1        1 BER      0.095700
     30 H72         0.5870    1.9690    2.0870 h1        1 BER      0.095700
     31 H91         4.2170   -0.2380    2.2960 ha        1 BER      0.176000
     32 H101        2.1110    0.5040    3.2920 hc        1 BER      0.092700
     33 H102        1.2120   -0.9990    2.8230 hc        1 BER      0.092700
     34 H131       -2.2120   -1.1490   -3.1960 ha        1 BER      0.167000
     35 H161       -4.6780   -0.9490   -3.1700 ha        1 BER      0.169000
     36 H171        6.4300   -1.4230   -1.7800 h2        1 BER      0.094700
     37 H172        6.5950    0.4550   -1.7870 h2        1 BER      0.094700
     38 H191       -6.0420    1.4540    2.2940 h1        1 BER      0.068367
     39 H192       -6.4750    0.0310    1.2000 h1        1 BER      0.068367
     40 H193       -6.3250    1.7220    0.4900 h1        1 BER      0.068367
     41 H201       -7.9460   -0.1770   -1.9460 h1        1 BER      0.062033
     42 H202       -6.7390   -1.4770   -2.4380 h1        1 BER      0.062033
     43 H203       -6.6040    0.2210   -3.1400 h1        1 BER      0.062033
@<TRIPOS>BOND
     1    1    2 1   
     2    1    3 1   
     3    1    4 ar  
     4    2    5 ar  
     5    2    6 ar  
     6    3    7 2   
     7    3    8 1   
     8    4    9 ar  
     9    4   26 1   
    10    5   10 ar  
    11    5   11 1   
    12    6   12 ar  
    13    6   27 1   
    14    7   13 ar  
    15    7   28 1   
    16    8   11 1   
    17    8   29 1   
    18    8   30 1   
    19    9   13 ar  
    20    9   14 ar  
    21   10   15 ar  
    22   10   31 1   
    23   11   32 1   
    24   11   33 1   
    25   12   15 ar  
    26   12   16 1   
    27   13   17 ar  
    28   14   18 ar  
    29   14   34 1   
    30   15   19 1   
    31   16   20 1   
    32   17   21 ar  
    33   17   22 1   
    34   18   21 ar  
    35   18   35 1   
    36   19   20 1   
    37   20   36 1   
    38   20   37 1   
    39   21   23 1   
    40   22   24 1   
    41   23   25 1   
    42   24   38 1   
    43   24   39 1   
    44   24   40 1   
    45   25   41 1   
    46   25   42 1   
    47   25   43 1   
@<TRIPOS>SUBSTRUCTURE
     1 BER         1 TEMP              0 ****  ****    0 ROOT
