@<TRIPOS>MOLECULE
BER
   43    39     1     0     0
SMALL
bcc


@<TRIPOS>ATOM
      1 C1          0.9190   -0.0700    0.1680 c1        1 BER     -0.013500
      2 C2          2.4200   -0.1080    0.1800 c1        1 BER     -0.013500
      3 N1          0.2100   -0.0220    1.3690 n2        1 BER     -0.050000
      4 C3          0.2270   -0.0470   -1.0600 c1        1 BER     -0.096000
      5 C4          3.1110   -0.0940    1.3910 c1        1 BER     -0.047000
      6 C5          3.1320   -0.1210   -1.0340 c1        1 BER     -0.096000
      7 C6         -1.1750    0.0500    1.3570 c1        1 BER      0.084000
      8 C7          0.9000   -0.1990    2.6350 c3        1 BER     -0.059000
      9 C8         -1.1780    0.0250   -1.0750 c1        1 BER      0.018000
     10 C9          4.5180   -0.0930    1.4030 c1        1 BER     -0.112000
     11 C10         2.3690   -0.1200    2.6660 c3        1 BER     -0.142000
     12 C11         4.5490   -0.1200   -1.0250 c1        1 BER      0.042000
     13 C12        -1.8770    0.0740    0.1160 c1        1 BER     -0.109000
     14 C13        -1.8820   -0.0510   -2.3140 c2        1 BER     -0.130000
     15 C14         5.2350   -0.1070    0.1870 c1        1 BER      0.042000
     16 O1          5.5130   -0.1050   -2.0760 os        1 BER     -0.199500
     17 C15        -3.3120    0.0460    0.1080 c2        1 BER      0.119000
     18 C16        -3.2870   -0.0780   -2.3210 c1        1 BER     -0.089000
     19 O2          6.6320   -0.1120   -0.0980 os        1 BER     -0.199500
     20 C17         6.7910   -0.1040   -1.4910 c3        1 BER      0.098000
     21 C18        -4.0020   -0.0290   -1.1030 c1        1 BER      0.026000
     22 O3         -4.2850    0.2000    1.0960 os        1 BER     -0.220000
     23 O4         -5.3600   -0.3820   -0.7700 os        1 BER     -0.209000
     24 C19        -4.4370    1.5200    1.5540 c3        1 BER     -0.065000
     25 C20        -6.1050   -0.8730   -1.8560 c3        1 BER     -0.083000
     26 H31         0.7210   -0.1020   -1.9000 ha        1 BER      0.175000
     27 H51         2.6540   -0.0500   -1.8750 ha        1 BER      0.175000
     28 H61        -1.6770   -0.0610    2.2010 ha        1 BER      0.213000
     29 H71         0.6530   -1.0510    2.9770 h1        1 BER      0.135000
     30 H72         0.5480    0.4990    3.2700 h1        1 BER      0.135000
     31 H91         4.9970   -0.1620    2.2540 ha        1 BER      0.176000
     32 H101        2.6030    0.6680    3.1480 hc        1 BER      0.132000
     33 H102        2.7010   -0.9050    3.1890 hc        1 BER      0.132000
     34 H131       -1.3720   -0.0850   -3.1830 ha        1 BER      0.167000
     35 H161       -3.7780   -0.1320   -3.1870 ha        1 BER      0.169000
     36 H171        7.2900   -0.9100   -1.7740 h2        1 BER      0.134000
     37 H172        7.2730    0.6890   -1.7590 h2        1 BER      0.134000
     38 H191       -4.1560    1.5730    2.4710 h1        1 BER      0.107667
     39 H192       -5.3530    1.7760    1.4880 h1        1 BER      0.107667
     40 H193       -3.9030    2.1060    1.0220 h1        1 BER      0.107667
     41 H201       -6.1540   -0.1670   -2.5770 h1        1 BER      0.101333
     42 H202       -5.6740   -1.6700   -2.2120 h1        1 BER      0.101333
     43 H203       -6.9990   -1.0940   -1.5590 h1        1 BER      0.101333
@<TRIPOS>BOND
     1    1    4 1   
     2    2    6 1   
     3    3    7 1   
     4    3    8 1   
     5    4   26 1   
     6    5   10 1   
     7    5   11 1   
     8    6   27 1   
     9    7   28 1   
    10    8   11 1   
    11    8   29 1   
    12    8   30 1   
    13    9   13 1   
    14    9   14 1   
    15   10   31 1   
    16   11   32 1   
    17   11   33 1   
    18   12   15 1   
    19   12   16 1   
    20   13   17 1   
    21   14   18 1   
    22   14   34 1   
    23   15   19 1   
    24   16   20 1   
    25   17   21 1   
    26   17   22 1   
    27   18   35 1   
    28   19   20 1   
    29   20   36 1   
    30   20   37 1   
    31   21   23 1   
    32   22   24 1   
    33   23   25 1   
    34   24   38 1   
    35   24   39 1   
    36   24   40 1   
    37   25   41 1   
    38   25   42 1   
    39   25   43 1   
@<TRIPOS>SUBSTRUCTURE
     1 BER         1 TEMP              0 ****  ****    0 ROOT
