@<TRIPOS>MOLECULE
BER
   43    47     1     0     0
SMALL
bcc


@<TRIPOS>ATOM
      1 C1          0.1860    0.0170   -0.0590 ca        1 BER      0.038700
      2 C2          1.6510   -0.0460   -0.0120 ca        1 BER     -0.090000
      3 N1         -0.5020    0.5210    1.0600 na        1 BER      0.017900
      4 C3         -0.5380   -0.4180   -1.1580 ca        1 BER     -0.108000
      5 C4          2.3070   -0.0490    1.2310 ca        1 BER     -0.054300
      6 C5          2.3770   -0.1130   -1.2260 ca        1 BER     -0.084000
      7 C6         -1.8450    0.6080    1.0580 ca        1 BER      0.059700
      8 C7          0.2660    0.9390    2.2380 c3        1 BER      0.000300
      9 C8         -1.9560   -0.3320   -1.1970 ca        1 BER      0.018000
     10 C9          3.7060   -0.1680    1.3340 ca        1 BER     -0.112000
     11 C10         1.5020    0.0780    2.4750 c3        1 BER     -0.056100
     12 C11         3.7440   -0.2260   -1.1150 ca        1 BER      0.066100
     13 C12        -2.6230    0.2040   -0.0570 ca        1 BER     -0.109000
     14 C13        -2.7160   -0.7540   -2.3050 ca        1 BER     -0.130000
     15 C14         4.4040   -0.2610    0.1470 ca        1 BER      0.108100
     16 O1          4.6870   -0.3160   -2.1270 os        1 BER     -0.319900
     17 C15        -4.0480    0.3170   -0.0450 ca        1 BER      0.164100
     18 C16        -4.0920   -0.6440   -2.2880 ca        1 BER     -0.089000
     19 O2          5.7660   -0.3780   -0.0510 os        1 BER     -0.312900
     20 C17         5.9850   -0.4170   -1.4870 c3        1 BER      0.320200
     21 C18        -4.7720   -0.1110   -1.1690 ca        1 BER      0.071100
     22 O3         -4.5420    0.8500    1.1150 os        1 BER     -0.336900
     23 O4         -6.1420    0.0170   -1.1110 os        1 BER     -0.325900
     24 C19        -5.9560    1.0300    1.2460 c3        1 BER      0.124700
     25 C20        -6.8820   -0.4130   -2.2550 c3        1 BER      0.106700
     26 H31        -0.0110   -0.8530   -2.0240 ha        1 BER      0.185000
     27 H51         1.8890   -0.0650   -2.2080 ha        1 BER      0.165000
     28 H61        -2.3490    1.0120    1.9640 h4        1 BER      0.213000
     29 H71        -0.4040    0.8930    3.1430 h1        1 BER      0.095700
     30 H72         0.5770    2.0120    2.0680 h1        1 BER      0.095700
     31 H91         4.2130   -0.1820    2.3090 ha        1 BER      0.176000
     32 H101        2.1020    0.5640    3.2920 hc        1 BER      0.092700
     33 H102        1.2090   -0.9460    2.8380 hc        1 BER      0.092700
     34 H131       -2.2030   -1.1730   -3.1860 ha        1 BER      0.167000
     35 H161       -4.6690   -0.9790   -3.1670 ha        1 BER      0.169000
     36 H171        6.5970    0.4720   -1.7770 h2        1 BER      0.094700
     37 H172        6.4370   -1.4050   -1.7490 h2        1 BER      0.094700
     38 H191       -6.4770    0.0440    1.1890 h1        1 BER      0.068367
     39 H192       -6.0510    1.4800    2.2670 h1        1 BER      0.068367
     40 H193       -6.3320    1.7280    0.4600 h1        1 BER      0.068367
     41 H201       -6.5980    0.1850   -3.1540 h1        1 BER      0.062033
     42 H202       -6.7300   -1.5060   -2.4320 h1        1 BER      0.062033
     43 H203       -7.9420   -0.2040   -1.9580 h1        1 BER      0.062033
@<TRIPOS>BOND
     1    1    2 1   
     2    1    3 1   
     3    1    4 ar  
     4    2    5 ar  
     5    2    6 ar  
     6    3    7 2   
     7    3    8 1   
     8    4    9 ar  
     9    4   26 1   
    10    5   10 ar  
    11    5   11 1   
    12    6   12 ar  
    13    6   27 1   
    14    7   13 ar  
    15    7   28 1   
    16    8   11 1   
    17    8   29 1   
    18    8   30 1   
    19    9   13 ar  
    20    9   14 ar  
    21   10   15 ar  
    22   10   31 1   
    23   11   32 1   
    24   11   33 1   
    25   12   15 ar  
    26   12   16 1   
    27   13   17 ar  
    28   14   18 ar  
    29   14   34 1   
    30   15   19 1   
    31   16   20 1   
    32   17   21 ar  
    33   17   22 1   
    34   18   21 ar  
    35   18   35 1   
    36   19   20 1   
    37   20   36 1   
    38   20   37 1   
    39   21   23 1   
    40   22   24 1   
    41   23   25 1   
    42   24   38 1   
    43   24   39 1   
    44   24   40 1   
    45   25   41 1   
    46   25   42 1   
    47   25   43 1   
@<TRIPOS>SUBSTRUCTURE
     1 BER         1 TEMP              0 ****  ****    0 ROOT
