@<TRIPOS>MOLECULE
BES
   45    43     1     0     0
SMALL
bcc


@<TRIPOS>ATOM
      1 N2         -1.6360   -1.0250    1.7790 n3        1 BES     -0.325000
      2 C1         -0.2150   -1.0530    1.7360 c3        1 BES     -0.078000
      3 C6          0.3310   -1.1020    3.1430 c3        1 BES     -0.157000
      4 C7          0.1250   -2.4890    3.7180 c2        1 BES     -0.082000
      5 C8          1.0920   -3.4650    3.5300 c2        1 BES     -0.112000
      6 C12        -0.9650   -2.7420    4.5360 c1        1 BES     -0.142000
      7 C9          0.9690   -4.6930    4.1610 c1        1 BES     -0.130000
      8 C11        -1.0880   -3.9710    5.1670 c1        1 BES     -0.147500
      9 C10        -0.1200   -4.9460    4.9790 c1        1 BES     -0.147500
     10 C2          0.2940    0.1920    1.0410 c3        1 BES      0.007000
     11 O2         -0.0610    1.3270    1.7920 oh        1 BES     -0.334000
     12 C3         -0.3210    0.2880   -0.3390 c2        1 BES      0.261000
     13 O3         -1.4650   -0.0810   -0.5200 o         1 BES     -0.383000
     14 N1          0.4160    0.8730   -1.4070 n         1 BES     -0.297000
     15 C4         -0.2500    1.2600   -2.6020 c3        1 BES     -0.094000
     16 C13         0.7170    2.0010   -3.5020 c3        1 BES     -0.139000
     17 C14         0.1910    3.3960   -3.7680 c3        1 BES     -0.110000
     18 C15         1.3560    4.3540   -3.9290 c3        1 BES     -0.202500
     19 C16        -0.6350    3.3890   -5.0360 c3        1 BES     -0.202500
     20 C5         -0.7590    0.0300   -3.3150 c2        1 BES      0.326000
     21 O1          0.0550   -0.8180   -3.7670 o         1 BES     -0.573500
     22 O4         -1.9950   -0.1250   -3.4970 o         1 BES     -0.573500
     23 HN21       -1.9650   -1.8490    1.5510 hn        1 BES      0.140500
     24 HN22       -1.9120   -0.8100    2.6270 hn        1 BES      0.140500
     25 H1          0.0800   -1.8450    1.2440 h1        1 BES      0.171000
     26 H61        -0.1380   -0.4460    3.6980 hc        1 BES      0.087000
     27 H62         1.2860   -0.8940    3.1300 hc        1 BES      0.087000
     28 H8          1.8730   -3.2770    2.9750 ha        1 BES      0.211000
     29 H12        -1.6450   -2.0550    4.6710 ha        1 BES      0.118000
     30 H9          1.6510   -5.3790    4.0300 ha        1 BES      0.135000
     31 H11        -1.8320   -4.1340    5.7790 ha        1 BES      0.115000
     32 H10        -0.0890   -5.8090    5.4390 ha        1 BES      0.115000
     33 H2          1.2670    0.1460    0.9610 h1        1 BES      0.111000
     34 HO2         0.6650    1.8110    1.9580 ho        1 BES      0.229000
     35 HN          1.3160    0.9920   -1.3290 hn        1 BES      0.206000
     36 H4         -1.0030    1.8450   -2.3810 h1        1 BES      0.113000
     37 H131        1.5890    2.0600   -3.0650 hc        1 BES      0.090000
     38 H132        0.8080    1.5200   -4.3490 hc        1 BES      0.090000
     39 H14        -0.3650    3.6820   -3.0190 hc        1 BES      0.095000
     40 H151        1.0160    5.2500   -4.1360 hc        1 BES      0.063500
     41 H152        1.9330    4.0460   -4.6600 hc        1 BES      0.063500
     42 H153        1.8720    4.3840   -3.0960 hc        1 BES      0.063500
     43 H161       -0.2300    2.7790   -5.6870 hc        1 BES      0.063500
     44 H162       -0.6660    4.2940   -5.4100 hc        1 BES      0.063500
     45 H163       -1.5460    3.0890   -4.8310 hc        1 BES      0.063500
@<TRIPOS>BOND
     1    1    2 1   
     2    1   23 1   
     3    1   24 1   
     4    2    3 1   
     5    2   10 1   
     6    2   25 1   
     7    3    4 1   
     8    3   26 1   
     9    3   27 1   
    10    4    5 1   
    11    4    6 1   
    12    5    7 1   
    13    5   28 1   
    14    6   29 1   
    15    7   30 1   
    16    8    9 1   
    17    8   31 1   
    18    9   32 1   
    19   10   11 1   
    20   10   12 1   
    21   10   33 1   
    22   11   34 1   
    23   12   13 1   
    24   12   14 1   
    25   14   15 1   
    26   14   35 1   
    27   15   16 1   
    28   15   20 1   
    29   15   36 1   
    30   16   17 1   
    31   16   37 1   
    32   16   38 1   
    33   17   18 1   
    34   17   19 1   
    35   17   39 1   
    36   18   40 1   
    37   18   41 1   
    38   18   42 1   
    39   19   43 1   
    40   19   44 1   
    41   19   45 1   
    42   20   21 1   
    43   20   22 1   
@<TRIPOS>SUBSTRUCTURE
     1 BES         1 TEMP              0 ****  ****    0 ROOT
