@<TRIPOS>MOLECULE
BES
   47    47     1     0     0
SMALL
bcc


@<TRIPOS>ATOM
      1 N2          0.0370   -0.2630   -0.3030 n4        1 BES     -0.834600
      2 C1          1.4570    0.0750    0.0280 c3        1 BES      0.126500
      3 C6          1.7240   -0.0430    1.5440 c3        1 BES     -0.047100
      4 C7          1.1530   -1.2940    2.1090 ca        1 BES     -0.162300
      5 C8          1.7930   -2.5210    1.9040 ca        1 BES     -0.124500
      6 C12        -0.0140   -1.2420    2.8830 ca        1 BES     -0.124500
      7 C9          1.2670   -3.6860    2.4600 ca        1 BES     -0.114000
      8 C11        -0.5360   -2.4080    3.4390 ca        1 BES     -0.114000
      9 C10         0.1020   -3.6310    3.2270 ca        1 BES     -0.095000
     10 C2          1.8770    1.5020   -0.4050 c3        1 BES      0.078100
     11 O2          0.8560    2.3660    0.0430 oh        1 BES     -0.576800
     12 C3          2.1100    1.7970   -1.8950 c         1 BES      0.487100
     13 O3          1.7800    2.8730   -2.3820 o         1 BES     -0.407100
     14 N1          2.8290    0.8460   -2.7830 n4        1 BES     -0.658800
     15 C4          1.8840    0.2720   -3.8320 c3        1 BES      0.010500
     16 C13         2.6200   -0.5340   -4.8860 c3        1 BES     -0.105400
     17 C14         3.6940    0.2250   -5.6480 c3        1 BES     -0.076700
     18 C15         4.2250   -0.6560   -6.7640 c3        1 BES     -0.099600
     19 C16         3.1810    1.5320   -6.2140 c3        1 BES     -0.099600
     20 C5          0.8950   -0.6380   -3.0430 c         1 BES      0.888600
     21 O1          1.4170   -1.5420   -2.3230 o         1 BES     -0.798300
     22 O4         -0.3150   -0.3140   -3.0180 o         1 BES     -0.798300
     23 HN21       -0.5270   -0.3060    0.5510 hn        1 BES      0.483800
     24 HN22        0.0200   -1.1860   -0.7910 hn        1 BES      0.483800
     25 H1          2.1030   -0.6880   -0.5120 hx        1 BES      0.144700
     26 H61         2.8380   -0.0310    1.6930 hc        1 BES      0.086200
     27 H62         1.2980    0.8570    2.0660 hc        1 BES      0.086200
     28 H8          2.7180   -2.5690    1.3090 ha        1 BES      0.136500
     29 H12        -0.5050   -0.2760    3.0810 ha        1 BES      0.136500
     30 H9          1.7750   -4.6500    2.2970 ha        1 BES      0.155500
     31 H11        -1.4490   -2.3620    4.0540 ha        1 BES      0.155500
     32 H10        -0.3100   -4.5520    3.6700 ha        1 BES      0.158000
     33 H2          2.8610    1.7370    0.1040 h1        1 BES      0.107700
     34 HO2         1.1190    3.2860   -0.1240 ho        1 BES      0.463000
     35 HN          3.5930    1.3320   -3.2720 hn        1 BES      0.466800
     36 H4          1.3350    1.1410   -4.2970 hx        1 BES      0.126700
     37 H131        3.0610   -1.4570   -4.4190 hc        1 BES      0.098200
     38 H132        1.8270   -0.8820   -5.6080 hc        1 BES      0.098200
     39 H14         4.5560    0.4460   -4.9540 hc        1 BES      0.018700
     40 H151        4.5910   -1.6280   -6.3550 hc        1 BES      0.048367
     41 H152        5.0710   -0.1460   -7.2850 hc        1 BES      0.048367
     42 H153        3.4230   -0.8640   -7.5130 hc        1 BES      0.048367
     43 H161        2.2520    1.3640   -6.8110 hc        1 BES      0.048367
     44 H162        3.9500    1.9890   -6.8840 hc        1 BES      0.048367
     45 H163        2.9530    2.2620   -5.3990 hc        1 BES      0.048367
     46 H23        -0.3690    0.4220   -0.9580 hn        1 BES      0.483800
     47 H121        3.2040    0.0500   -2.2500 hn        1 BES      0.466800
@<TRIPOS>BOND
     1    1    2 1   
     2    1   23 1   
     3    1   24 1   
     4    1   46 1   
     5    2    3 1   
     6    2   10 1   
     7    2   25 1   
     8    3    4 1   
     9    3   26 1   
    10    3   27 1   
    11    4    5 ar  
    12    4    6 ar  
    13    5    7 ar  
    14    5   28 1   
    15    6    8 ar  
    16    6   29 1   
    17    7    9 ar  
    18    7   30 1   
    19    8    9 ar  
    20    8   31 1   
    21    9   32 1   
    22   10   11 1   
    23   10   12 1   
    24   10   33 1   
    25   11   34 1   
    26   12   13 2   
    27   12   14 1   
    28   14   15 1   
    29   14   35 1   
    30   14   47 1   
    31   15   16 1   
    32   15   20 1   
    33   15   36 1   
    34   16   17 1   
    35   16   37 1   
    36   16   38 1   
    37   17   18 1   
    38   17   19 1   
    39   17   39 1   
    40   18   40 1   
    41   18   41 1   
    42   18   42 1   
    43   19   43 1   
    44   19   44 1   
    45   19   45 1   
    46   20   21 1   
    47   20   22 1   
@<TRIPOS>SUBSTRUCTURE
     1 BES         1 TEMP              0 ****  ****    0 ROOT
