@<TRIPOS>MOLECULE
BES
   47    47     1     0     0
SMALL
bcc


@<TRIPOS>ATOM
      1 N2          0.0300   -0.2860   -0.3090 n4        1 BES     -0.834600
      2 C1          1.4440    0.0710    0.0290 c3        1 BES      0.126500
      3 C6          1.7050   -0.0440    1.5460 c3        1 BES     -0.047100
      4 C7          1.1480   -1.3020    2.1080 ca        1 BES     -0.162300
      5 C8          1.8060   -2.5210    1.9070 ca        1 BES     -0.124500
      6 C12        -0.0230   -1.2660    2.8760 ca        1 BES     -0.124500
      7 C9          1.2930   -3.6930    2.4600 ca        1 BES     -0.114000
      8 C11        -0.5320   -2.4400    3.4290 ca        1 BES     -0.114000
      9 C10         0.1230   -3.6540    3.2200 ca        1 BES     -0.095000
     10 C2          1.8480    1.5030   -0.4020 c3        1 BES      0.078100
     11 O2          0.8140    2.3530    0.0400 oh        1 BES     -0.576800
     12 C3          2.0850    1.8000   -1.8910 c         1 BES      0.487100
     13 O3          1.7430    2.8720   -2.3800 o         1 BES     -0.407100
     14 N1          2.8210    0.8580   -2.7750 n4        1 BES     -0.658800
     15 C4          1.8900    0.2710   -3.8290 c3        1 BES      0.010500
     16 C13         2.6410   -0.5260   -4.8780 c3        1 BES     -0.105400
     17 C14         3.7100    0.2470   -5.6340 c3        1 BES     -0.076700
     18 C15         4.2590   -0.6280   -6.7470 c3        1 BES     -0.099600
     19 C16         3.1840    1.5460   -6.2040 c3        1 BES     -0.099600
     20 C5          0.9080   -0.6510   -3.0450 c         1 BES      0.888600
     21 O1          1.4370   -1.5480   -2.3220 o         1 BES     -0.798300
     22 O4         -0.3060   -0.3420   -3.0260 o         1 BES     -0.798300
     23 HN21       -0.3810    0.3940   -0.9660 hn        1 BES      0.483800
     24 HN22        0.0280   -1.2090   -0.7970 hn        1 BES      0.483800
     25 H1          2.1030   -0.6840   -0.5080 hx        1 BES      0.144700
     26 H61         2.8180   -0.0170    1.7010 hc        1 BES      0.086200
     27 H62         1.2640    0.8500    2.0660 hc        1 BES      0.086200
     28 H8          2.7340   -2.5560    1.3160 ha        1 BES      0.136500
     29 H12        -0.5280   -0.3080    3.0720 ha        1 BES      0.136500
     30 H9          1.8150   -4.6490    2.2990 ha        1 BES      0.155500
     31 H11        -1.4490   -2.4060    4.0400 ha        1 BES      0.155500
     32 H10        -0.2790   -4.5800    3.6620 ha        1 BES      0.158000
     33 H2          2.8270    1.7510    0.1120 h1        1 BES      0.107700
     34 HO2         1.0650    3.2770   -0.1260 ho        1 BES      0.463000
     35 HN          3.5810    1.3540   -3.2600 hn        1 BES      0.466800
     36 H4          1.3320    1.1330   -4.2970 hx        1 BES      0.126700
     37 H131        1.8560   -0.8840   -5.6040 hc        1 BES      0.098200
     38 H132        3.0920   -1.4420   -4.4080 hc        1 BES      0.098200
     39 H14         4.5650    0.4790   -4.9360 hc        1 BES      0.018700
     40 H151        4.6350   -1.5950   -6.3340 hc        1 BES      0.048367
     41 H152        3.4630   -0.8480   -7.5000 hc        1 BES      0.048367
     42 H153        5.1010   -0.1080   -7.2640 hc        1 BES      0.048367
     43 H161        3.9500    2.0130   -6.8700 hc        1 BES      0.048367
     44 H162        2.9400    2.2730   -5.3920 hc        1 BES      0.048367
     45 H163        2.2600    1.3660   -6.8070 hc        1 BES      0.048367
     46 H23        -0.5370   -0.3360    0.5420 hn        1 BES      0.483800
     47 H121        3.2040    0.0680   -2.2390 hn        1 BES      0.466800
@<TRIPOS>BOND
     1    1    2 1   
     2    1   23 1   
     3    1   24 1   
     4    1   46 1   
     5    2    3 1   
     6    2   10 1   
     7    2   25 1   
     8    3    4 1   
     9    3   26 1   
    10    3   27 1   
    11    4    5 ar  
    12    4    6 ar  
    13    5    7 ar  
    14    5   28 1   
    15    6    8 ar  
    16    6   29 1   
    17    7    9 ar  
    18    7   30 1   
    19    8    9 ar  
    20    8   31 1   
    21    9   32 1   
    22   10   11 1   
    23   10   12 1   
    24   10   33 1   
    25   11   34 1   
    26   12   13 2   
    27   12   14 1   
    28   14   15 1   
    29   14   35 1   
    30   14   47 1   
    31   15   16 1   
    32   15   20 1   
    33   15   36 1   
    34   16   17 1   
    35   16   37 1   
    36   16   38 1   
    37   17   18 1   
    38   17   19 1   
    39   17   39 1   
    40   18   40 1   
    41   18   41 1   
    42   18   42 1   
    43   19   43 1   
    44   19   44 1   
    45   19   45 1   
    46   20   21 1   
    47   20   22 1   
@<TRIPOS>SUBSTRUCTURE
     1 BES         1 TEMP              0 ****  ****    0 ROOT
