@<TRIPOS>MOLECULE
BES
   47    47     1     0     0
SMALL
bcc


@<TRIPOS>ATOM
      1 N2          0.0300   -0.2610   -0.3110 nz        1 BES     -0.834600
      2 C1          1.4490    0.0700    0.0280 c3        1 BES      0.126500
      3 C6          1.7090   -0.0580    1.5450 c3        1 BES     -0.047100
      4 C7          1.1300   -1.3090    2.1010 ca        1 BES     -0.162300
      5 C8          1.7680   -2.5380    1.8920 ca        1 BES     -0.124500
      6 C12        -0.0400   -1.2570    2.8690 ca        1 BES     -0.124500
      7 C9          1.2340   -3.7040    2.4390 ca        1 BES     -0.114000
      8 C11        -0.5690   -2.4250    3.4160 ca        1 BES     -0.114000
      9 C10         0.0660   -3.6490    3.2000 ca        1 BES     -0.095000
     10 C2          1.8780    1.4970   -0.3950 c3        1 BES      0.078100
     11 O2          0.8580    2.3630    0.0520 oh        1 BES     -0.576800
     12 C3          2.1200    1.7980   -1.8820 c         1 BES      0.487100
     13 O3          1.7960    2.8780   -2.3650 o         1 BES     -0.407100
     14 N1          2.8400    0.8490   -2.7720 ny        1 BES     -0.658800
     15 C4          1.8980    0.2830   -3.8280 c3        1 BES      0.010500
     16 C13         2.6360   -0.5210   -4.8820 c3        1 BES     -0.105400
     17 C14         3.7180    0.2370   -5.6340 c3        1 BES     -0.076700
     18 C15         4.2510   -0.6410   -6.7510 c3        1 BES     -0.099600
     19 C16         3.2140    1.5490   -6.1970 c3        1 BES     -0.099600
     20 C5          0.9010   -0.6260   -3.0490 c         1 BES      0.888600
     21 O1          1.4150   -1.5360   -2.3310 o         1 BES     -0.798300
     22 O4         -0.3080   -0.2970   -3.0280 o         1 BES     -0.798300
     23 HN21        0.0110   -1.1820   -0.8040 hn        1 BES      0.483800
     24 HN22       -0.3700    0.4290   -0.9650 hn        1 BES      0.483800
     25 H1          2.0950   -0.6940   -0.5120 hx        1 BES      0.144700
     26 H61         2.8210   -0.0500    1.7000 hc        1 BES      0.086200
     27 H62         1.2820    0.8410    2.0700 hc        1 BES      0.086200
     28 H8          2.6950   -2.5850    1.3010 ha        1 BES      0.136500
     29 H12        -0.5290   -0.2910    3.0700 ha        1 BES      0.136500
     30 H9          1.7400   -4.6680    2.2730 ha        1 BES      0.155500
     31 H11        -1.4840   -2.3790    4.0270 ha        1 BES      0.155500
     32 H10        -0.3510   -4.5710    3.6360 ha        1 BES      0.158000
     33 H2          2.8600    1.7260    0.1200 h1        1 BES      0.107700
     34 HO2         1.1250    3.2830   -0.1090 ho        1 BES      0.463000
     35 HN          3.2090    0.0490   -2.2400 hn        1 BES      0.466800
     36 H4          1.3550    1.1570   -4.2920 hx        1 BES      0.126700
     37 H131        3.0710   -1.4480   -4.4170 hc        1 BES      0.098200
     38 H132        1.8450   -0.8620   -5.6090 hc        1 BES      0.098200
     39 H14         4.5770    0.4510   -4.9340 hc        1 BES      0.018700
     40 H151        3.4530   -0.8430   -7.5050 hc        1 BES      0.048367
     41 H152        5.1030   -0.1330   -7.2650 hc        1 BES      0.048367
     42 H153        4.6110   -1.6170   -6.3440 hc        1 BES      0.048367
     43 H161        3.9890    2.0050   -6.8600 hc        1 BES      0.048367
     44 H162        2.9830    2.2760   -5.3810 hc        1 BES      0.048367
     45 H163        2.2880    1.3880   -6.8010 hc        1 BES      0.048367
     46 H23        -0.5390   -0.3060    0.5400 hn        1 BES      0.483800
     47 H121        3.6080    1.3340   -3.2530 hn        1 BES      0.466800
@<TRIPOS>BOND
     1    1    2 1   
     2    1   23 1   
     3    1   24 1   
     4    1   46 1   
     5    2    3 1   
     6    2   10 1   
     7    2   25 1   
     8    3    4 1   
     9    3   26 1   
    10    3   27 1   
    11    4    5 ar  
    12    4    6 ar  
    13    5    7 ar  
    14    5   28 1   
    15    6    8 ar  
    16    6   29 1   
    17    7    9 ar  
    18    7   30 1   
    19    8    9 ar  
    20    8   31 1   
    21    9   32 1   
    22   10   11 1   
    23   10   12 1   
    24   10   33 1   
    25   11   34 1   
    26   12   13 2   
    27   12   14 1   
    28   14   15 1   
    29   14   35 1   
    30   14   47 1   
    31   15   16 1   
    32   15   20 1   
    33   15   36 1   
    34   16   17 1   
    35   16   37 1   
    36   16   38 1   
    37   17   18 1   
    38   17   19 1   
    39   17   39 1   
    40   18   40 1   
    41   18   41 1   
    42   18   42 1   
    43   19   43 1   
    44   19   44 1   
    45   19   45 1   
    46   20   21 1   
    47   20   22 1   
@<TRIPOS>SUBSTRUCTURE
     1 BES         1 TEMP              0 ****  ****    0 ROOT
