@<TRIPOS>MOLECULE
BES
   45    45     1     0     0
SMALL
bcc


@<TRIPOS>ATOM
      1 N2          0.3400   -1.2080   -1.1820 n3        1 BES     -0.942800
      2 C1          0.6370    0.1830   -1.4340 c3        1 BES      0.165500
      3 C6          1.2730    0.4020   -2.8240 c3        1 BES     -0.028100
      4 C7          0.2820    0.3160   -3.9290 ca        1 BES     -0.060300
      5 C8         -0.1000    1.4720   -4.6210 ca        1 BES     -0.120000
      6 C12        -0.2640   -0.9170   -4.3090 ca        1 BES     -0.120000
      7 C9         -1.0100    1.3990   -5.6740 ca        1 BES     -0.138500
      8 C11        -1.1770   -0.9870   -5.3600 ca        1 BES     -0.138500
      9 C10        -1.5500    0.1690   -6.0460 ca        1 BES     -0.144000
     10 C2          1.5720    0.8620   -0.3900 c3        1 BES      0.027100
     11 O2          2.9340    0.6470   -0.7030 oh        1 BES     -0.604800
     12 C3          1.2630    0.3540    1.0280 c         1 BES      0.605100
     13 O3          2.1800   -0.2230    1.6590 o         1 BES     -0.646100
     14 N1          0.0180    0.6210    1.5440 n         1 BES     -0.483900
     15 C4         -0.5260   -0.1950    2.6210 c3        1 BES     -0.071300
     16 C13        -1.0570    0.6410    3.7850 c3        1 BES     -0.060400
     17 C14        -0.0090    1.5000    4.4770 c3        1 BES     -0.066700
     18 C15        -0.6480    2.2520    5.6280 c3        1 BES     -0.089600
     19 C16         1.1610    0.6760    4.9720 c3        1 BES     -0.089600
     20 C5         -1.6860   -1.1310    2.1140 c         1 BES      0.906600
     21 O1         -1.9580   -1.1220    0.8770 o         1 BES     -0.830300
     22 O4         -2.2580   -1.8430    2.9760 o         1 BES     -0.830300
     23 HN21        1.1100   -1.6640   -0.7370 hn        1 BES      0.384300
     24 HN22       -0.4920   -1.3130   -0.6220 hn        1 BES      0.384300
     25 H1         -0.3390    0.7570   -1.4140 h1        1 BES      0.063700
     26 H61         1.7590    1.4140   -2.8250 hc        1 BES      0.051200
     27 H62         2.0880   -0.3530   -2.9850 hc        1 BES      0.051200
     28 H8          0.3190    2.4470   -4.3290 ha        1 BES      0.140000
     29 H12         0.0170   -1.8280   -3.7580 ha        1 BES      0.140000
     30 H9         -1.3050    2.3130   -6.2070 ha        1 BES      0.119500
     31 H11        -1.6090   -1.9570   -5.6430 ha        1 BES      0.119500
     32 H10        -2.2710    0.1110   -6.8730 ha        1 BES      0.117000
     33 H2          1.4380    1.9780   -0.4430 h1        1 BES      0.075700
     34 HO2         3.2270   -0.1500   -0.2350 ho        1 BES      0.423000
     35 HN         -0.6820    0.8550    0.8650 hn        1 BES      0.307500
     36 H4          0.2880   -0.8750    3.0080 h1        1 BES      0.074700
     37 H131       -1.4990   -0.0880    4.5180 hc        1 BES      0.051700
     38 H132       -1.8880    1.3020    3.4260 hc        1 BES      0.051700
     39 H14         0.3810    2.2560    3.7390 hc        1 BES      0.042700
     40 H151        0.0970    2.9260    6.1160 hc        1 BES      0.027367
     41 H152       -1.5020    2.8710    5.2630 hc        1 BES      0.027367
     42 H153       -1.0330    1.5370    6.3950 hc        1 BES      0.027367
     43 H161        0.8030   -0.1820    5.5900 hc        1 BES      0.027367
     44 H162        1.7420    0.2730    4.1050 hc        1 BES      0.027367
     45 H163        1.8420    1.3040    5.5950 hc        1 BES      0.027367
@<TRIPOS>BOND
     1    1    2 1   
     2    1   23 1   
     3    1   24 1   
     4    2    3 1   
     5    2   10 1   
     6    2   25 1   
     7    3    4 1   
     8    3   26 1   
     9    3   27 1   
    10    4    5 ar  
    11    4    6 ar  
    12    5    7 ar  
    13    5   28 1   
    14    6    8 ar  
    15    6   29 1   
    16    7    9 ar  
    17    7   30 1   
    18    8    9 ar  
    19    8   31 1   
    20    9   32 1   
    21   10   11 1   
    22   10   12 1   
    23   10   33 1   
    24   11   34 1   
    25   12   13 2   
    26   12   14 1   
    27   14   15 1   
    28   14   35 1   
    29   15   16 1   
    30   15   20 1   
    31   15   36 1   
    32   16   17 1   
    33   16   37 1   
    34   16   38 1   
    35   17   18 1   
    36   17   19 1   
    37   17   39 1   
    38   18   40 1   
    39   18   41 1   
    40   18   42 1   
    41   19   43 1   
    42   19   44 1   
    43   19   45 1   
    44   20   21 1   
    45   20   22 1   
@<TRIPOS>SUBSTRUCTURE
     1 BES         1 TEMP              0 ****  ****    0 ROOT
