@<TRIPOS>MOLECULE
BET
   19    18     1     0     0
SMALL
bcc


@<TRIPOS>ATOM
      1 N          -0.0160   -0.0060   -0.0030 n4        1 BET     -0.567800
      2 CA          1.4810   -0.0210    0.1090 c3        1 BET     -0.060200
      3 C           2.0740    0.0290    1.5750 c         1 BET      0.934600
      4 O1          1.2700    0.0760    2.5400 o         1 BET     -0.771800
      5 O2          3.3200    0.0140    1.5940 o         1 BET     -0.771800
      6 C1         -0.5560    1.2420    0.6090 c3        1 BET      0.085433
      7 C2         -0.5860   -1.1900    0.7030 c3        1 BET      0.085433
      8 C3         -0.4050   -0.0580   -1.4390 c3        1 BET      0.085433
      9 HA1         1.8550   -0.9620   -0.3740 hx        1 BET      0.077700
     10 HA2         1.8770    0.8710   -0.4450 hx        1 BET      0.077700
     11 H11        -0.2420    1.2710    1.6950 hx        1 BET      0.092033
     12 H12        -1.6730    1.2440    0.5240 hx        1 BET      0.092033
     13 H13        -0.1280    2.1270    0.0730 hx        1 BET      0.092033
     14 H21        -0.2720   -1.1420    1.7890 hx        1 BET      0.092033
     15 H22        -1.7020   -1.1710    0.6180 hx        1 BET      0.092033
     16 H23        -0.1810   -2.1250    0.2380 hx        1 BET      0.092033
     17 H31         0.0230    0.8320   -1.9710 hx        1 BET      0.092033
     18 H32        -0.0000   -0.9960   -1.9000 hx        1 BET      0.092033
     19 H33        -1.5220   -0.0470   -1.5290 hx        1 BET      0.092033
@<TRIPOS>BOND
     1    1    2 1   
     2    1    6 1   
     3    1    7 1   
     4    1    8 1   
     5    2    3 1   
     6    2    9 1   
     7    2   10 1   
     8    3    4 1   
     9    3    5 1   
    10    6   11 1   
    11    6   12 1   
    12    6   13 1   
    13    7   14 1   
    14    7   15 1   
    15    7   16 1   
    16    8   17 1   
    17    8   18 1   
    18    8   19 1   
@<TRIPOS>SUBSTRUCTURE
     1 BET         1 TEMP              0 ****  ****    0 ROOT
