@<TRIPOS>MOLECULE
BET
   19    18     1     0     0
SMALL
bcc


@<TRIPOS>ATOM
      1 N          -0.0160   -0.0060   -0.0020 n4        1 BET     -0.567800
      2 CA          1.4810   -0.0230    0.1080 c3        1 BET     -0.060200
      3 C           2.0750    0.0260    1.5730 c         1 BET      0.934600
      4 O1          1.2720    0.0770    2.5390 o         1 BET     -0.771800
      5 O2          3.3210    0.0080    1.5910 o         1 BET     -0.771800
      6 C1         -0.5540    1.2440    0.6080 c3        1 BET      0.085433
      7 C2         -0.5880   -1.1880    0.7050 c3        1 BET      0.085433
      8 C3         -0.4070   -0.0580   -1.4390 c3        1 BET      0.085433
      9 HA1         1.8530   -0.9650   -0.3750 hx        1 BET      0.077700
     10 HA2         1.8780    0.8680   -0.4470 hx        1 BET      0.077700
     11 H11        -0.2380    1.2740    1.6940 hx        1 BET      0.092033
     12 H12        -1.6700    1.2470    0.5250 hx        1 BET      0.092033
     13 H13        -0.1250    2.1280    0.0710 hx        1 BET      0.092033
     14 H21        -0.2730   -1.1400    1.7900 hx        1 BET      0.092033
     15 H22        -1.7040   -1.1670    0.6210 hx        1 BET      0.092033
     16 H23        -0.1840   -2.1240    0.2410 hx        1 BET      0.092033
     17 H31         0.0220    0.8300   -1.9720 hx        1 BET      0.092033
     18 H32        -0.0040   -0.9980   -1.8990 hx        1 BET      0.092033
     19 H33        -1.5240   -0.0460   -1.5280 hx        1 BET      0.092033
@<TRIPOS>BOND
     1    1    2 1   
     2    1    6 1   
     3    1    7 1   
     4    1    8 1   
     5    2    3 1   
     6    2    9 1   
     7    2   10 1   
     8    3    4 1   
     9    3    5 1   
    10    6   11 1   
    11    6   12 1   
    12    6   13 1   
    13    7   14 1   
    14    7   15 1   
    15    7   16 1   
    16    8   17 1   
    17    8   18 1   
    18    8   19 1   
@<TRIPOS>SUBSTRUCTURE
     1 BET         1 TEMP              0 ****  ****    0 ROOT
