@<TRIPOS>MOLECULE
BET
   19    18     1     0     0
SMALL
bcc


@<TRIPOS>ATOM
      1 N          -1.0920   -0.0660    0.0100 n4        1 BET     -0.567800
      2 CA          0.1590   -0.8910   -0.0870 c3        1 BET     -0.060200
      3 C           1.5260   -0.0950   -0.0610 c         1 BET      0.934600
      4 O1          1.4830    1.1580    0.0370 o         1 BET     -0.771800
      5 O2          2.5210   -0.8400   -0.1450 o         1 BET     -0.771800
      6 C1         -1.1580    0.8870   -1.1360 c3        1 BET      0.085433
      7 C2         -1.0950    0.6980    1.2900 c3        1 BET      0.085433
      8 C3         -2.2800   -0.9630   -0.0290 c3        1 BET      0.085433
      9 HA1         0.1690   -1.6060    0.7770 hx        1 BET      0.077700
     10 HA2         0.1210   -1.4640   -1.0510 hx        1 BET      0.077700
     11 H11        -0.2440    1.5520   -1.0990 hx        1 BET      0.092033
     12 H12        -1.1600    0.3080   -2.0950 hx        1 BET      0.092033
     13 H13        -2.0920    1.5000   -1.0540 hx        1 BET      0.092033
     14 H21        -2.0290    1.3120    1.3540 hx        1 BET      0.092033
     15 H22        -1.0480   -0.0220    2.1470 hx        1 BET      0.092033
     16 H23        -0.1810    1.3650    1.3090 hx        1 BET      0.092033
     17 H31        -2.2790   -1.5390   -0.9910 hx        1 BET      0.092033
     18 H32        -2.2310   -1.6800    0.8320 hx        1 BET      0.092033
     19 H33        -3.2170   -0.3530    0.0430 hx        1 BET      0.092033
@<TRIPOS>BOND
     1    1    2 1   
     2    1    6 1   
     3    1    7 1   
     4    1    8 1   
     5    2    3 1   
     6    2    9 1   
     7    2   10 1   
     8    3    4 1   
     9    3    5 1   
    10    6   11 1   
    11    6   12 1   
    12    6   13 1   
    13    7   14 1   
    14    7   15 1   
    15    7   16 1   
    16    8   17 1   
    17    8   18 1   
    18    8   19 1   
@<TRIPOS>SUBSTRUCTURE
     1 BET         1 TEMP              0 ****  ****    0 ROOT
