@<TRIPOS>MOLECULE
BET
   19    18     1     0     0
SMALL
bcc


@<TRIPOS>ATOM
      1 N          -0.2430   -0.0000   -0.2390 n4        1 BET     -0.567800
      2 CA          1.2030   -0.0000   -0.2390 c3        1 BET     -0.060200
      3 C           1.7130   -0.0000    1.1980 c         1 BET      0.934600
      4 O1          1.9690   -1.0920    1.7750 o         1 BET     -0.771800
      5 O2          1.9690    1.0920    1.7750 o         1 BET     -0.771800
      6 C1         -0.7240   -1.1760    0.4400 c3        1 BET      0.085433
      7 C2         -0.7240    0.0000   -1.5970 c3        1 BET      0.085433
      8 C3         -0.7240    1.1760    0.4400 c3        1 BET      0.085433
      9 HA1         1.5290    0.7970   -0.7000 hx        1 BET      0.077700
     10 HA2         1.5290   -0.7970   -0.7000 hx        1 BET      0.077700
     11 H11        -0.2610   -1.9630    0.0950 hx        1 BET      0.092033
     12 H12        -1.6830   -1.2710    0.2870 hx        1 BET      0.092033
     13 H13        -0.5540   -1.0920    1.3970 hx        1 BET      0.092033
     14 H21        -0.4000    0.7970   -2.0570 hx        1 BET      0.092033
     15 H22        -1.7010    0.0000   -1.5960 hx        1 BET      0.092033
     16 H23        -0.4000   -0.7970   -2.0570 hx        1 BET      0.092033
     17 H31        -1.6840    1.2710    0.2870 hx        1 BET      0.092033
     18 H32        -0.5530    1.0920    1.3970 hx        1 BET      0.092033
     19 H33        -0.2610    1.9630    0.0950 hx        1 BET      0.092033
@<TRIPOS>BOND
     1    1    2 1   
     2    1    6 1   
     3    1    7 1   
     4    1    8 1   
     5    2    3 1   
     6    2    9 1   
     7    2   10 1   
     8    3    4 1   
     9    3    5 1   
    10    6   11 1   
    11    6   12 1   
    12    6   13 1   
    13    7   14 1   
    14    7   15 1   
    15    7   16 1   
    16    8   17 1   
    17    8   18 1   
    18    8   19 1   
@<TRIPOS>SUBSTRUCTURE
     1 BET         1 TEMP              0 ****  ****    0 ROOT
