@<TRIPOS>MOLECULE
BET
   19    18     1     0     0
SMALL
bcc


@<TRIPOS>ATOM
      1 N          -0.0170   -0.0060   -0.0020 n4        1 BET     -0.567800
      2 CA          1.4800   -0.0240    0.1050 c3        1 BET     -0.060200
      3 C           2.0780    0.0270    1.5690 c         1 BET      0.934600
      4 O1          1.2780    0.0810    2.5370 o         1 BET     -0.771800
      5 O2          3.3240    0.0060    1.5840 o         1 BET     -0.771800
      6 C1         -0.5520    1.2450    0.6080 c3        1 BET      0.085433
      7 C2         -0.5880   -1.1870    0.7090 c3        1 BET      0.085433
      8 C3         -0.4110   -0.0600   -1.4370 c3        1 BET      0.085433
      9 HA1         1.8770    0.8660   -0.4520 hx        1 BET      0.077700
     10 HA2         1.8510   -0.9660   -0.3780 hx        1 BET      0.077700
     11 H11        -0.1240    2.1280    0.0680 hx        1 BET      0.092033
     12 H12        -1.6690    1.2490    0.5270 hx        1 BET      0.092033
     13 H13        -0.2340    1.2770    1.6930 hx        1 BET      0.092033
     14 H21        -0.1850   -2.1230    0.2460 hx        1 BET      0.092033
     15 H22        -1.7040   -1.1650    0.6270 hx        1 BET      0.092033
     16 H23        -0.2700   -1.1360    1.7940 hx        1 BET      0.092033
     17 H31        -1.5280   -0.0470   -1.5230 hx        1 BET      0.092033
     18 H32         0.0180    0.8260   -1.9730 hx        1 BET      0.092033
     19 H33        -0.0100   -1.0010   -1.8970 hx        1 BET      0.092033
@<TRIPOS>BOND
     1    1    2 1   
     2    1    6 1   
     3    1    7 1   
     4    1    8 1   
     5    2    3 1   
     6    2    9 1   
     7    2   10 1   
     8    3    4 1   
     9    3    5 1   
    10    6   11 1   
    11    6   12 1   
    12    6   13 1   
    13    7   14 1   
    14    7   15 1   
    15    7   16 1   
    16    8   17 1   
    17    8   18 1   
    18    8   19 1   
@<TRIPOS>SUBSTRUCTURE
     1 BET         1 TEMP              0 ****  ****    0 ROOT
