@<TRIPOS>MOLECULE
BEU
   33    33     1     0     0
SMALL
bcc


@<TRIPOS>ATOM
      1 C'         -0.2250   -0.1400   -0.0610 c3        1 BEU      0.152600
      2 O1'         1.1770   -0.0710   -0.2390 oh        1 BEU     -0.607800
      3 C1         -0.5230    0.0060    1.3980 c2        1 BEU     -0.017400
      4 C2          0.4400   -0.0170    2.3320 c2        1 BEU     -0.285200
      5 C3          0.2310    0.0960    3.8080 c3        1 BEU      0.186700
      6 N3          1.0970    1.2350    4.3080 n4        1 BEU     -0.855600
      7 C4         -1.2610    0.2810    4.2050 c3        1 BEU      0.101500
      8 N4         -1.5930   -0.1990    5.5960 n4        1 BEU     -0.709800
      9 C4'        -1.4960    0.8720    6.6840 c         1 BEU      0.603100
     10 O4'        -0.5660    1.6530    6.5490 o         1 BEU     -0.477100
     11 CM4        -2.5390    0.8150    7.7390 c3        1 BEU     -0.197100
     12 C5         -2.1650   -0.4680    3.1770 c3        1 BEU      0.143100
     13 O5         -3.4910   -0.2880    3.6310 oh        1 BEU     -0.632800
     14 C6         -1.9660    0.1520    1.7780 c3        1 BEU      0.133300
     15 O4         -2.8390   -0.5910    0.9500 oh        1 BEU     -0.576800
     16 H'C1       -0.6310   -1.1300   -0.4180 h1        1 BEU      0.080700
     17 H'C2       -0.7270    0.6940   -0.6290 h1        1 BEU      0.080700
     18 H1'         1.3590   -0.2920   -1.1640 ho        1 BEU      0.453000
     19 H2          1.4920   -0.1780    2.0160 ha        1 BEU      0.207000
     20 H6         -2.2580    1.2420    1.7800 h1        1 BEU      0.089700
     21 H3          0.6520   -0.8460    4.2870 hx        1 BEU      0.123700
     22 H3N1        1.1360    1.2620    5.3330 hn        1 BEU      0.475800
     23 H3N2        2.0510    1.1120    3.9370 hn        1 BEU      0.475800
     24 H4         -1.5540    1.3760    4.1670 hx        1 BEU      0.133700
     25 HA         -2.5770   -0.5360    5.5770 hn        1 BEU      0.484800
     26 H5         -1.9130   -1.5660    3.1440 h1        1 BEU      0.101700
     27 HM41       -2.6570   -0.2160    8.1620 hc        1 BEU      0.141033
     28 HM42       -2.2450    1.5150    8.5710 hc        1 BEU      0.141033
     29 HM43       -3.5280    1.1550    7.3250 hc        1 BEU      0.141033
     30 HB         -4.0910   -0.5980    2.9270 ho        1 BEU      0.495000
     31 HC         -2.9420   -0.1130    0.1130 ho        1 BEU      0.454000
     32 H33         0.7370    2.1340    3.9670 hn        1 BEU      0.475800
     33 H42        -0.9990   -0.9950    5.8490 hn        1 BEU      0.484800
@<TRIPOS>BOND
     1    1    2 1   
     2    1    3 1   
     3    1   16 1   
     4    1   17 1   
     5    2   18 1   
     6    3    4 2   
     7    3   14 1   
     8    4    5 1   
     9    4   19 1   
    10    5    6 1   
    11    5    7 1   
    12    5   21 1   
    13    6   22 1   
    14    6   23 1   
    15    6   32 1   
    16    7    8 1   
    17    7   12 1   
    18    7   24 1   
    19    8    9 1   
    20    8   25 1   
    21    8   33 1   
    22    9   10 2   
    23    9   11 1   
    24   11   27 1   
    25   11   28 1   
    26   11   29 1   
    27   12   13 1   
    28   12   14 1   
    29   12   26 1   
    30   13   30 1   
    31   14   15 1   
    32   14   20 1   
    33   15   31 1   
@<TRIPOS>SUBSTRUCTURE
     1 BEU         1 TEMP              0 ****  ****    0 ROOT
