@<TRIPOS>MOLECULE
BEU
   31    30     1     0     0
SMALL
bcc


@<TRIPOS>ATOM
      1 C'          2.4510    0.2950   -2.7160 c3        1 BEU      0.012000
      2 O1'         3.8250    0.7510   -2.7550 oh        1 BEU     -0.342000
      3 C1          1.9420    0.3170   -1.2620 c2        1 BEU     -0.140000
      4 C2          1.7630   -1.1530   -0.4060 c1        1 BEU     -0.177000
      5 C3          0.4100   -1.4220    0.1360 c2        1 BEU     -0.011000
      6 N3          0.4690   -2.3920    1.1720 n3        1 BEU     -0.342000
      7 C4         -0.3560   -0.0410    0.6260 c3        1 BEU      0.034000
      8 N4         -1.7830   -0.3970    0.9760 n         1 BEU     -0.360000
      9 C4'        -2.2650   -0.2080    2.3260 c2        1 BEU      0.315000
     10 O4'        -1.5040    0.2470    3.1990 o         1 BEU     -0.389000
     11 CM4        -3.7490   -0.5270    2.6750 c3        1 BEU     -0.240000
     12 C5         -0.3810    0.9280   -0.2420 c3        1 BEU      0.024000
     13 O5         -1.0800    2.0940    0.3840 oh        1 BEU     -0.330000
     14 C6          1.0960    1.4410   -0.7890 c3        1 BEU      0.045000
     15 O4          0.9620    2.4650   -1.7950 oh        1 BEU     -0.343000
     16 H'C1        2.4000   -0.6260   -3.0680 h1        1 BEU      0.077500
     17 H'C2        1.8960    0.8850   -3.2650 h1        1 BEU      0.077500
     18 H1'         4.1480    0.6510   -3.5770 ho        1 BEU      0.210000
     19 H2          2.3720   -1.8890   -0.5760 ha        1 BEU      0.126000
     20 H6          1.5490    1.9240   -0.1030 h1        1 BEU      0.110000
     21 H3         -0.1500   -1.9020   -0.5370 h4        1 BEU      0.108000
     22 H3N1        1.3310   -2.4770    1.4640 hn        1 BEU      0.159000
     23 H3N2        0.1790   -3.1870    0.8550 hn        1 BEU      0.159000
     24 H4          0.0850    0.2810    1.4310 h1        1 BEU      0.125000
     25 HA         -2.3380   -0.7060    0.3390 hn        1 BEU      0.231000
     26 H5         -0.9030    0.6340   -1.0080 h1        1 BEU      0.095000
     27 HM41       -3.9280   -1.4870    2.5130 hc        1 BEU      0.105333
     28 HM42       -3.9130   -0.3180    3.6210 hc        1 BEU      0.105333
     29 HM43       -4.3450    0.0190    2.1100 hc        1 BEU      0.105333
     30 HB         -1.4860    2.5650   -0.2440 ho        1 BEU      0.223000
     31 HC          1.2990    3.2330   -1.4850 ho        1 BEU      0.226000
@<TRIPOS>BOND
     1    1    2 1   
     2    1    3 1   
     3    1   16 1   
     4    1   17 1   
     5    2   18 1   
     6    3    4 1   
     7    3   14 1   
     8    4   19 1   
     9    5    6 1   
    10    5    7 1   
    11    5   21 1   
    12    6   22 1   
    13    6   23 1   
    14    7    8 1   
    15    7   12 1   
    16    7   24 1   
    17    8    9 1   
    18    8   25 1   
    19    9   10 1   
    20    9   11 1   
    21   11   27 1   
    22   11   28 1   
    23   11   29 1   
    24   12   13 1   
    25   12   14 1   
    26   12   26 1   
    27   13   30 1   
    28   14   15 1   
    29   14   20 1   
    30   15   31 1   
@<TRIPOS>SUBSTRUCTURE
     1 BEU         1 TEMP              0 ****  ****    0 ROOT
