@<TRIPOS>MOLECULE
BEU
   33    33     1     0     0
SMALL
bcc


@<TRIPOS>ATOM
      1 C'         -0.2340   -0.1350   -0.0670 c3        1 BEU      0.152600
      2 O1'         1.1680   -0.0630   -0.2480 oh        1 BEU     -0.607800
      3 C1         -0.5280    0.0100    1.3930 c2        1 BEU     -0.017400
      4 C2          0.4380   -0.0120    2.3250 c2        1 BEU     -0.285200
      5 C3          0.2330    0.1010    3.8010 c3        1 BEU      0.186700
      6 N3          1.0970    1.2420    4.2990 n4        1 BEU     -0.855600
      7 C4         -1.2580    0.2810    4.2030 c3        1 BEU      0.101500
      8 N4         -1.5860   -0.2000    5.5930 n4        1 BEU     -0.709800
      9 C4'        -1.4880    0.8690    6.6830 c         1 BEU      0.603100
     10 O4'        -0.5600    1.6530    6.5450 o         1 BEU     -0.477100
     11 CM4        -2.5260    0.8070    7.7410 c3        1 BEU     -0.197100
     12 C5         -2.1640   -0.4690    3.1760 c3        1 BEU      0.143100
     13 O5         -3.4890   -0.2920    3.6340 oh        1 BEU     -0.632800
     14 C6         -1.9700    0.1520    1.7770 c3        1 BEU      0.133300
     15 O4         -2.8440   -0.5920    0.9510 oh        1 BEU     -0.576800
     16 H'C1       -0.6390   -1.1250   -0.4230 h1        1 BEU      0.080700
     17 H'C2       -0.7390    0.6990   -0.6330 h1        1 BEU      0.080700
     18 H1'         1.3480   -0.2850   -1.1740 ho        1 BEU      0.453000
     19 H2          1.4900   -0.1710    2.0060 ha        1 BEU      0.207000
     20 H6         -2.2640    1.2420    1.7810 h1        1 BEU      0.089700
     21 H3          0.6580   -0.8410    4.2790 hx        1 BEU      0.123700
     22 H3N1        0.7340    2.1400    3.9590 hn        1 BEU      0.475800
     23 H3N2        2.0510    1.1210    3.9250 hn        1 BEU      0.475800
     24 H4         -1.5550    1.3760    4.1670 hx        1 BEU      0.133700
     25 HA         -2.5690   -0.5390    5.5770 hn        1 BEU      0.484800
     26 H5         -1.9100   -1.5670    3.1420 h1        1 BEU      0.101700
     27 HM41       -3.5180    1.1470    7.3320 hc        1 BEU      0.141033
     28 HM42       -2.6410   -0.2250    8.1630 hc        1 BEU      0.141033
     29 HM43       -2.2310    1.5070    8.5740 hc        1 BEU      0.141033
     30 HB         -4.0900   -0.6030    2.9320 ho        1 BEU      0.495000
     31 HC         -2.9500   -0.1130    0.1150 ho        1 BEU      0.454000
     32 H33         1.1390    1.2680    5.3240 hn        1 BEU      0.475800
     33 H42        -0.9890   -0.9960    5.8450 hn        1 BEU      0.484800
@<TRIPOS>BOND
     1    1    2 1   
     2    1    3 1   
     3    1   16 1   
     4    1   17 1   
     5    2   18 1   
     6    3    4 2   
     7    3   14 1   
     8    4    5 1   
     9    4   19 1   
    10    5    6 1   
    11    5    7 1   
    12    5   21 1   
    13    6   22 1   
    14    6   23 1   
    15    6   32 1   
    16    7    8 1   
    17    7   12 1   
    18    7   24 1   
    19    8    9 1   
    20    8   25 1   
    21    8   33 1   
    22    9   10 2   
    23    9   11 1   
    24   11   27 1   
    25   11   28 1   
    26   11   29 1   
    27   12   13 1   
    28   12   14 1   
    29   12   26 1   
    30   13   30 1   
    31   14   15 1   
    32   14   20 1   
    33   15   31 1   
@<TRIPOS>SUBSTRUCTURE
     1 BEU         1 TEMP              0 ****  ****    0 ROOT
