@<TRIPOS>MOLECULE
BEU
   33    33     1     0     0
SMALL
bcc


@<TRIPOS>ATOM
      1 C'         -0.2180   -0.1590   -0.0590 c3        1 BEU      0.152600
      2 O1'         1.1850   -0.1000   -0.2340 oh        1 BEU     -0.607800
      3 C1         -0.5190   -0.0060    1.3980 c2        1 BEU     -0.017400
      4 C2          0.4420   -0.0320    2.3350 c2        1 BEU     -0.285200
      5 C3          0.2310    0.0890    3.8100 c3        1 BEU      0.186700
      6 N3          1.1030    1.2240    4.3070 nz        1 BEU     -0.855600
      7 C4         -1.2610    0.2840    4.2030 c3        1 BEU      0.101500
      8 N4         -1.5990   -0.1880    5.5940 ny        1 BEU     -0.709800
      9 C4'        -1.4980    0.8860    6.6790 c         1 BEU      0.603100
     10 O4'        -0.5620    1.6610    6.5430 o         1 BEU     -0.477100
     11 CM4        -2.5430    0.8390    7.7320 c3        1 BEU     -0.197100
     12 C5         -2.1670   -0.4630    3.1760 c3        1 BEU      0.143100
     13 O5         -3.4930   -0.2730    3.6260 oh        1 BEU     -0.632800
     14 C6         -1.9610    0.1500    1.7750 c3        1 BEU      0.133300
     15 O4         -2.8370   -0.5900    0.9480 oh        1 BEU     -0.576800
     16 H'C1       -0.7140    0.6760   -0.6310 h1        1 BEU      0.080700
     17 H'C2       -0.6300   -1.1480   -0.4130 h1        1 BEU      0.080700
     18 H1'         1.3680   -0.3260   -1.1580 ho        1 BEU      0.453000
     19 H2          1.4940   -0.2000    2.0220 ha        1 BEU      0.207000
     20 H6         -2.2470    1.2420    1.7720 h1        1 BEU      0.089700
     21 H3          0.6450   -0.8540    4.2940 hx        1 BEU      0.123700
     22 H3N1        0.7490    2.1250    3.9620 hn        1 BEU      0.475800
     23 H3N2        1.1390    1.2550    5.3320 hn        1 BEU      0.475800
     24 H4         -1.5480    1.3810    4.1610 hx        1 BEU      0.133700
     25 HA         -2.5850   -0.5180    5.5750 hn        1 BEU      0.484800
     26 H5         -1.9230   -1.5630    3.1480 h1        1 BEU      0.101700
     27 HM41       -2.6680   -0.1900    8.1590 hc        1 BEU      0.141033
     28 HM42       -3.5290    1.1830    7.3150 hc        1 BEU      0.141033
     29 HM43       -2.2470    1.5410    8.5620 hc        1 BEU      0.141033
     30 HB         -4.0930   -0.5820    2.9220 ho        1 BEU      0.495000
     31 HC         -2.9350   -0.1140    0.1090 ho        1 BEU      0.454000
     32 H33         2.0570    1.0940    3.9380 hn        1 BEU      0.475800
     33 H42        -1.0100   -0.9880    5.8520 hn        1 BEU      0.484800
@<TRIPOS>BOND
     1    1    2 1   
     2    1    3 1   
     3    1   16 1   
     4    1   17 1   
     5    2   18 1   
     6    3    4 2   
     7    3   14 1   
     8    4    5 1   
     9    4   19 1   
    10    5    6 1   
    11    5    7 1   
    12    5   21 1   
    13    6   22 1   
    14    6   23 1   
    15    6   32 1   
    16    7    8 1   
    17    7   12 1   
    18    7   24 1   
    19    8    9 1   
    20    8   25 1   
    21    8   33 1   
    22    9   10 2   
    23    9   11 1   
    24   11   27 1   
    25   11   28 1   
    26   11   29 1   
    27   12   13 1   
    28   12   14 1   
    29   12   26 1   
    30   13   30 1   
    31   14   15 1   
    32   14   20 1   
    33   15   31 1   
@<TRIPOS>SUBSTRUCTURE
     1 BEU         1 TEMP              0 ****  ****    0 ROOT
