@<TRIPOS>MOLECULE
BEU
   31    31     1     0     0
SMALL
bcc


@<TRIPOS>ATOM
      1 C'         -3.5260   -0.3850   -0.3790 c3        1 BEU      0.170600
      2 O1'        -3.8620   -1.7600   -0.4630 oh        1 BEU     -0.594800
      3 C1         -2.0720   -0.2440   -0.0640 c2        1 BEU     -0.175400
      4 C2         -1.3130   -1.2740    0.3320 c2        1 BEU     -0.146200
      5 C3          0.1320   -1.1590    0.7330 c3        1 BEU      0.183700
      6 N3          0.9350   -2.3450    0.5100 n3        1 BEU     -0.908800
      7 C4          0.7550    0.1150    0.0620 c3        1 BEU      0.112700
      8 N4          2.1320    0.3240    0.4230 n         1 BEU     -0.552900
      9 C4'         3.1680   -0.2020   -0.3230 c         1 BEU      0.673100
     10 O4'         2.9460   -0.9450   -1.3020 o         1 BEU     -0.627100
     11 CM4         4.5730    0.1440    0.1040 c3        1 BEU     -0.172100
     12 C5         -0.1590    1.3020    0.4530 c3        1 BEU      0.138100
     13 O5          0.4530    2.5120    0.0400 oh        1 BEU     -0.599800
     14 C6         -1.5160    1.1330   -0.2590 c3        1 BEU      0.145300
     15 O4         -2.3430    2.1560    0.2840 oh        1 BEU     -0.606800
     16 H'C1       -3.7540    0.1190   -1.3600 h1        1 BEU      0.029200
     17 H'C2       -4.1320    0.1090    0.4330 h1        1 BEU      0.029200
     18 H1'        -4.8140   -1.7970   -0.6130 ho        1 BEU      0.405000
     19 H2         -1.7600   -2.2810    0.4150 ha        1 BEU      0.151000
     20 H6         -1.3800    1.3200   -1.3650 h1        1 BEU      0.059700
     21 H3          0.1310   -0.9970    1.8580 h1        1 BEU      0.068700
     22 H3N1        0.3700   -3.1700    0.5720 hn        1 BEU      0.364300
     23 H3N2        1.3890   -2.3190   -0.3840 hn        1 BEU      0.364300
     24 H4          0.7080   -0.0210   -1.0620 h1        1 BEU      0.086700
     25 HA          2.3230    0.9740    1.1450 hn        1 BEU      0.317500
     26 H5         -0.3210    1.3290    1.5670 h1        1 BEU      0.057700
     27 HM41        4.7240    1.2500    0.1040 hc        1 BEU      0.066367
     28 HM42        4.7740   -0.2530    1.1280 hc        1 BEU      0.066367
     29 HM43        5.2900   -0.3220   -0.6140 hc        1 BEU      0.066367
     30 HB         -0.1910    3.2130    0.2120 ho        1 BEU      0.422000
     31 HC         -3.1800    2.1300   -0.1930 ho        1 BEU      0.407000
@<TRIPOS>BOND
     1    1    2 1   
     2    1    3 1   
     3    1   16 1   
     4    1   17 1   
     5    2   18 1   
     6    3    4 2   
     7    3   14 1   
     8    4    5 1   
     9    4   19 1   
    10    5    6 1   
    11    5    7 1   
    12    5   21 1   
    13    6   22 1   
    14    6   23 1   
    15    7    8 1   
    16    7   12 1   
    17    7   24 1   
    18    8    9 1   
    19    8   25 1   
    20    9   10 2   
    21    9   11 1   
    22   11   27 1   
    23   11   28 1   
    24   11   29 1   
    25   12   13 1   
    26   12   14 1   
    27   12   26 1   
    28   13   30 1   
    29   14   15 1   
    30   14   20 1   
    31   15   31 1   
@<TRIPOS>SUBSTRUCTURE
     1 BEU         1 TEMP              0 ****  ****    0 ROOT
