@<TRIPOS>MOLECULE
BEV
   17    17     1     0     0
SMALL
bcc


@<TRIPOS>ATOM
      1 N1          2.5110   -1.3050    0.0100 n3        1 BEV     -1.035700
      2 C6         -0.7630    0.1310   -0.0120 c2        1 BEV      0.981100
      3 C8         -2.9260   -0.9420    0.0400 c3        1 BEV      0.216800
      4 S2          2.0510    0.2560   -0.0370 sy        1 BEV      1.745300
      5 O3          2.5420    0.8720    1.1420 o         1 BEV     -0.663800
      6 O4          2.5240    0.7930   -1.2620 o         1 BEV     -0.663800
      7 N5          0.4970    0.2470   -0.0250 ne        1 BEV     -1.050300
      8 N7         -1.4900   -1.0540    0.0330 nh        1 BEV     -0.909200
      9 C9         -3.3450    0.5290   -0.0050 c3        1 BEV     -0.055300
     10 S10        -1.8680    1.5140   -0.0490 ss        1 BEV     -0.191300
     11 HN1         2.7210   -1.7820    0.8480 hn        1 BEV      0.435800
     12 HN1A        2.7080   -1.8360   -0.7970 hn        1 BEV      0.435800
     13 H8         -3.3470   -1.4910   -0.8510 h1        1 BEV      0.058700
     14 H8A        -3.3330   -1.4310    0.9710 h1        1 BEV      0.058700
     15 HN7        -1.0680   -1.9500    0.0590 hn        1 BEV      0.455800
     16 H9         -3.9610    0.7390   -0.9110 h1        1 BEV      0.089700
     17 H9A        -3.9470    0.7980    0.8940 h1        1 BEV      0.089700
@<TRIPOS>BOND
     1    1    4 1   
     2    1   11 1   
     3    1   12 1   
     4    2    7 2   
     5    2    8 1   
     6    2   10 1   
     7    3    8 1   
     8    3    9 1   
     9    3   13 1   
    10    3   14 1   
    11    4    5 2   
    12    4    6 2   
    13    4    7 1   
    14    8   15 1   
    15    9   10 1   
    16    9   16 1   
    17    9   17 1   
@<TRIPOS>SUBSTRUCTURE
     1 BEV         1 TEMP              0 ****  ****    0 ROOT
