@<TRIPOS>MOLECULE
BEV
   18    17     1     0     0
SMALL
bcc


@<TRIPOS>ATOM
      1 N1          0.0640    0.6800   -0.3130 n3        1 BEV     -1.106400
      2 C6          3.9260    1.0620   -0.4870 c2        1 BEV      0.951100
      3 C8          5.0240    3.0510   -1.2240 c3        1 BEV      0.193800
      4 S2          1.9170   -0.6590    0.1530 s4        1 BEV      1.992700
      5 O3          1.5490   -0.7950    1.4620 o         1 BEV     -0.474400
      6 O4          1.5280   -1.5980   -0.7620 o         1 BEV     -0.474400
      7 N5          2.9320    0.2570   -0.1880 n2        1 BEV     -1.301600
      8 N7          3.7850    2.3370   -0.9570 nh        1 BEV     -0.825200
      9 C9          6.2200    2.1540   -0.8970 c3        1 BEV     -0.079300
     10 S10         5.5830    0.5930   -0.3180 ss        1 BEV     -0.014300
     11 HN1        -0.4790    0.1820   -0.9980 hn        1 BEV      0.401800
     12 HN1A        0.2400    1.6070   -0.6480 hn        1 BEV      0.401800
     13 H8          5.0470    3.9870   -0.5940 h1        1 BEV      0.101700
     14 H8A         5.0420    3.3530   -2.3110 h1        1 BEV      0.101700
     15 HN7         2.9140    2.7870   -1.1220 hn        1 BEV      0.477800
     16 H9          6.8570    1.9850   -1.8000 h1        1 BEV      0.125700
     17 H9A         6.8620    2.6110   -0.1040 h1        1 BEV      0.125700
     18 H13        -0.4640    0.7360    0.5410 hn        1 BEV      0.401800
@<TRIPOS>BOND
     1    1   11 1   
     2    1   12 1   
     3    1   18 1   
     4    2    7 2   
     5    2    8 1   
     6    2   10 1   
     7    3    8 1   
     8    3    9 1   
     9    3   13 1   
    10    3   14 1   
    11    4    5 1   
    12    4    6 1   
    13    4    7 1   
    14    8   15 1   
    15    9   10 1   
    16    9   16 1   
    17    9   17 1   
@<TRIPOS>SUBSTRUCTURE
     1 BEV         1 TEMP              0 ****  ****    0 ROOT
