@<TRIPOS>MOLECULE
BEV
   17    15     1     0     0
SMALL
bcc


@<TRIPOS>ATOM
      1 N1         -3.5550    0.7680    0.9140 n3        1 BEV     -0.949000
      2 C6         -0.0610   -0.6510   -0.1350 c1        1 BEV      0.329000
      3 C8          2.2100    0.0640   -0.8080 c3        1 BEV     -0.021000
      4 S2         -1.9130    0.7680    0.9140 s4        1 BEV      2.133800
      5 O3         -1.3920    0.7680    2.2530 o         1 BEV     -0.558400
      6 O4         -1.3920    2.0080    0.4120 o         1 BEV     -0.558400
      7 N5         -1.3450   -0.5100    0.0530 n1        1 BEV     -1.043000
      8 N7          0.9520    0.1790    0.3180 n2        1 BEV     -0.382000
      9 C9          2.2750   -1.3280   -1.1910 c3        1 BEV     -0.304000
     10 S10         0.7260   -1.8880   -0.9870 ss        1 BEV      0.164000
     11 HN1        -4.0110    0.3160    1.5620 hn        1 BEV      0.236000
     12 HN1A       -4.0110    1.2210    0.2680 hn        1 BEV      0.236000
     13 H8          2.0150    0.6180   -1.5870 h1        1 BEV      0.100000
     14 H8A         3.0530    0.3400   -0.4000 h1        1 BEV      0.100000
     15 HN7         1.0090    0.5510    1.1490 hn        1 BEV      0.260000
     16 H9          2.8920   -1.8130   -0.6100 h1        1 BEV      0.129000
     17 H9A         2.5470   -1.4120   -2.1250 h1        1 BEV      0.129000
@<TRIPOS>BOND
     1    1    4 1   
     2    1   11 1   
     3    1   12 1   
     4    2    7 1   
     5    2   10 1   
     6    3    8 1   
     7    3    9 1   
     8    3   13 1   
     9    3   14 1   
    10    4    5 1   
    11    4    6 1   
    12    8   15 1   
    13    9   10 1   
    14    9   16 1   
    15    9   17 1   
@<TRIPOS>SUBSTRUCTURE
     1 BEV         1 TEMP              0 ****  ****    0 ROOT
