@<TRIPOS>MOLECULE
BEV
   18    17     1     0     0
SMALL
bcc


@<TRIPOS>ATOM
      1 N1          0.0510    0.7330   -0.3450 n3        1 BEV     -1.106400
      2 C6          3.9200    1.0510   -0.4780 c2        1 BEV      0.951100
      3 C8          5.0590    3.0180   -1.2140 c3        1 BEV      0.193800
      4 S2          1.8770   -0.6310    0.1560 s4        1 BEV      1.992700
      5 O3          1.4920   -0.7470    1.4630 o         1 BEV     -0.474400
      6 O4          1.4840   -1.5720   -0.7540 o         1 BEV     -0.474400
      7 N5          2.9100    0.2660   -0.1820 n2        1 BEV     -1.301600
      8 N7          3.8060    2.3280   -0.9520 nh        1 BEV     -0.825200
      9 C9          6.2360    2.1010   -0.8780 c3        1 BEV     -0.079300
     10 S10         5.5680    0.5520   -0.3000 ss        1 BEV     -0.014300
     11 HN1        -0.4860    0.8070    0.5030 hn        1 BEV      0.401800
     12 HN1A       -0.4920    0.2360   -1.0300 hn        1 BEV      0.401800
     13 H8          5.0950    3.9550   -0.5860 h1        1 BEV      0.101700
     14 H8A         5.0880    3.3180   -2.3020 h1        1 BEV      0.101700
     15 HN7         2.9440    2.7940   -1.1210 hn        1 BEV      0.477800
     16 H9          6.8820    2.5480   -0.0830 h1        1 BEV      0.125700
     17 H9A         6.8750    1.9180   -1.7780 h1        1 BEV      0.125700
     18 H13         0.2460    1.6530   -0.6880 hn        1 BEV      0.401800
@<TRIPOS>BOND
     1    1   11 1   
     2    1   12 1   
     3    1   18 1   
     4    2    7 2   
     5    2    8 1   
     6    2   10 1   
     7    3    8 1   
     8    3    9 1   
     9    3   13 1   
    10    3   14 1   
    11    4    5 1   
    12    4    6 1   
    13    4    7 1   
    14    8   15 1   
    15    9   10 1   
    16    9   16 1   
    17    9   17 1   
@<TRIPOS>SUBSTRUCTURE
     1 BEV         1 TEMP              0 ****  ****    0 ROOT
