@<TRIPOS>MOLECULE
BEV
   18    17     1     0     0
SMALL
bcc


@<TRIPOS>ATOM
      1 N1          0.0630    0.7020   -0.2770 n9        1 BEV     -1.106400
      2 C6          3.9250    1.0910   -0.4210 c2        1 BEV      0.951100
      3 C8          5.0280    2.9320   -1.4700 c3        1 BEV      0.193800
      4 S2          1.9120   -0.5070    0.4720 s4        1 BEV      1.992700
      5 O3          1.5100   -0.4060    1.7750 o         1 BEV     -0.474400
      6 O4          1.5540   -1.6020   -0.2650 o         1 BEV     -0.474400
      7 N5          2.9290    0.3440   -0.0040 n2        1 BEV     -1.301600
      8 N7          3.7880    2.2660   -1.1060 nu        1 BEV     -0.825200
      9 C9          6.2210    2.1130   -0.9740 c3        1 BEV     -0.079300
     10 S10         5.5810    0.6690   -0.1470 ss        1 BEV     -0.014300
     11 HN1        -0.4580    0.0800   -0.8720 hn        1 BEV      0.401800
     12 HN1A        0.2410    1.5530   -0.7730 hn        1 BEV      0.401800
     13 H8          5.0360    3.9620   -1.0100 h1        1 BEV      0.101700
     14 H8A         5.0640    3.0440   -2.5930 h1        1 BEV      0.101700
     15 HN7         2.9180    2.6760   -1.3580 hn        1 BEV      0.477800
     16 H9          6.8480    2.7040   -0.2610 h1        1 BEV      0.125700
     17 H9A         6.8750    1.7960   -1.8240 h1        1 BEV      0.125700
     18 H13        -0.4890    0.9080    0.5390 hn        1 BEV      0.401800
@<TRIPOS>BOND
     1    1   11 1   
     2    1   12 1   
     3    1   18 1   
     4    2    7 2   
     5    2    8 1   
     6    2   10 1   
     7    3    8 1   
     8    3    9 1   
     9    3   13 1   
    10    3   14 1   
    11    4    5 1   
    12    4    6 1   
    13    4    7 1   
    14    8   15 1   
    15    9   10 1   
    16    9   16 1   
    17    9   17 1   
@<TRIPOS>SUBSTRUCTURE
     1 BEV         1 TEMP              0 ****  ****    0 ROOT
