@<TRIPOS>MOLECULE
BEW
   14    14     1     0     0
SMALL
bcc


@<TRIPOS>ATOM
      1 C4          0.0140    0.0510   -0.0220 ca        1 BEW     -0.151000
      2 C5          1.4110   -0.1010    0.0700 ca        1 BEW      0.016000
      3 C6          2.0050   -0.2030    1.3190 ca        1 BEW     -0.186000
      4 N2         -0.1370    0.0340    2.3790 na        1 BEW      0.099800
      5 O8         -0.9260   -0.0770    3.4380 oh        1 BEW     -0.372200
      6 C3         -0.7460    0.0960    1.1360 ca        1 BEW      0.004700
      7 C1          1.2330   -0.1580    2.5100 ca        1 BEW      0.085600
      8 S7          1.9160   -0.3010    4.0430 sh        1 BEW     -0.009700
      9 H4         -0.4870    0.1260   -1.0040 ha        1 BEW      0.207000
     10 H5          2.0250   -0.1450   -0.8480 ha        1 BEW      0.196000
     11 H6          3.0980   -0.3400    1.4020 ha        1 BEW      0.192000
     12 HO8        -0.9350    0.7960    3.9000 ho        1 BEW      0.464000
     13 H3         -1.8530    0.1890    1.1450 h4        1 BEW      0.225000
     14 HS7         3.2010   -0.2840    3.6950 hs        1 BEW      0.227800
@<TRIPOS>BOND
     1    1    2 ar  
     2    1    6 ar  
     3    1    9 1   
     4    2    3 ar  
     5    2   10 1   
     6    3    7 ar  
     7    3   11 1   
     8    4    5 1   
     9    4    6 1   
    10    4    7 2   
    11    5   12 1   
    12    6   13 1   
    13    7    8 1   
    14    8   14 1   
@<TRIPOS>SUBSTRUCTURE
     1 BEW         1 TEMP              0 ****  ****    0 ROOT
