@<TRIPOS>MOLECULE
BEW
   14    14     1     0     0
SMALL
bcc


@<TRIPOS>ATOM
      1 C4          0.0200    0.0390   -0.0250 ca        1 BEW     -0.151000
      2 C5          1.4160   -0.1100    0.0730 ca        1 BEW      0.016000
      3 C6          2.0060   -0.2040    1.3250 ca        1 BEW     -0.186000
      4 N2         -0.1400    0.0370    2.3760 na        1 BEW      0.099800
      5 O8         -0.9320   -0.0680    3.4330 oh        1 BEW     -0.372200
      6 C3         -0.7450    0.0910    1.1310 ca        1 BEW      0.004700
      7 C1          1.2300   -0.1510    2.5130 ca        1 BEW      0.085600
      8 S7          1.9080   -0.2840    4.0490 sh        1 BEW     -0.009700
      9 H4         -0.4780    0.1070   -1.0080 ha        1 BEW      0.207000
     10 H5          2.0330   -0.1590   -0.8430 ha        1 BEW      0.196000
     11 H6          3.0990   -0.3380    1.4120 ha        1 BEW      0.192000
     12 HO8        -0.9440    0.8090    3.8890 ho        1 BEW      0.464000
     13 H3         -1.8520    0.1820    1.1350 h4        1 BEW      0.225000
     14 HS7         3.1950   -0.2680    3.7050 hs        1 BEW      0.227800
@<TRIPOS>BOND
     1    1    2 ar  
     2    1    6 ar  
     3    1    9 1   
     4    2    3 ar  
     5    2   10 1   
     6    3    7 ar  
     7    3   11 1   
     8    4    5 1   
     9    4    6 1   
    10    4    7 2   
    11    5   12 1   
    12    6   13 1   
    13    7    8 1   
    14    8   14 1   
@<TRIPOS>SUBSTRUCTURE
     1 BEW         1 TEMP              0 ****  ****    0 ROOT
