@<TRIPOS>MOLECULE
BEW
   14    14     1     0     0
SMALL
bcc


@<TRIPOS>ATOM
      1 C4         -2.3710    0.0300    0.0690 ca        1 BEW     -0.141000
      2 C5         -1.9100   -1.3060    0.0880 ca        1 BEW      0.006000
      3 C6         -0.5560   -1.5610   -0.0100 ca        1 BEW     -0.156000
      4 N2         -0.0970    0.7990   -0.0790 na        1 BEW      0.076800
      5 O8          0.7520    1.7900   -0.3160 oh        1 BEW     -0.396200
      6 C3         -1.4600    1.0650   -0.0380 ca        1 BEW     -0.024300
      7 C1          0.3890   -0.4980   -0.1190 ca        1 BEW      0.097600
      8 S7          1.9840   -0.9660   -0.2530 sh        1 BEW      0.024300
      9 H4         -3.4500    0.2570    0.1300 ha        1 BEW      0.206000
     10 H5         -2.6360   -2.1370    0.1700 ha        1 BEW      0.197000
     11 H6         -0.1660   -2.5960   -0.0200 ha        1 BEW      0.206000
     12 HO8         0.7830    2.3580    0.4910 ho        1 BEW      0.469000
     13 H3         -1.7480    2.1350   -0.0830 h4        1 BEW      0.217000
     14 HS7         2.6010    0.1920   -0.4650 hs        1 BEW      0.218800
@<TRIPOS>BOND
     1    1    2 ar  
     2    1    6 ar  
     3    1    9 1   
     4    2    3 ar  
     5    2   10 1   
     6    3    7 ar  
     7    3   11 1   
     8    4    5 1   
     9    4    6 1   
    10    4    7 2   
    11    5   12 1   
    12    6   13 1   
    13    7    8 1   
    14    8   14 1   
@<TRIPOS>SUBSTRUCTURE
     1 BEW         1 TEMP              0 ****  ****    0 ROOT
