@<TRIPOS>MOLECULE
BEW
   14    11     1     0     0
SMALL
bcc


@<TRIPOS>ATOM
      1 C4         -0.7200   -0.0130   -1.6530 c1        1 BEW     -0.151000
      2 C5          0.6450   -0.0130   -1.6530 c1        1 BEW     -0.085000
      3 C6          1.3260   -0.0130   -0.4710 c1        1 BEW     -0.085000
      4 N2         -0.7310   -0.0130    0.7270 n2        1 BEW      0.031000
      5 O8         -1.4160   -0.0110    1.9110 o         1 BEW     -0.151000
      6 C3         -1.4120   -0.0130   -0.4530 c2        1 BEW      0.029000
      7 C1          0.6310   -0.0130    0.7280 c1        1 BEW     -0.117000
      8 S7          1.5160   -0.0340    2.2650 sh        1 BEW      0.389000
      9 H4         -1.2080   -0.0130   -2.4990 ha        1 BEW      0.207000
     10 H5          1.1330   -0.0130   -2.4990 ha        1 BEW      0.194000
     11 H6          2.3020   -0.0130   -0.4700 ha        1 BEW      0.194000
     12 HO8        -1.7110   -0.8300    2.0840 ho        1 BEW      0.263000
     13 H3         -2.3890   -0.0130   -0.4530 h4        1 BEW      0.225000
     14 HS7         2.0320    1.0100    2.4350 hs        1 BEW      0.056000
@<TRIPOS>BOND
     1    1    6 1   
     2    1    9 1   
     3    2    3 1   
     4    2   10 1   
     5    3   11 1   
     6    4    6 1   
     7    4    7 1   
     8    5   12 1   
     9    6   13 1   
    10    7    8 1   
    11    8   14 1   
@<TRIPOS>SUBSTRUCTURE
     1 BEW         1 TEMP              0 ****  ****    0 ROOT
