@<TRIPOS>MOLECULE
BEX
   43    44     1     0     0
SMALL
bcc


@<TRIPOS>ATOM
      1 C4         -1.4600    0.6190    0.0630 ca        1 BEX      0.116600
      2 C5         -2.5570    0.9400    0.9010 ca        1 BEX     -0.228000
      3 C6         -3.8610    0.7770    0.4430 ca        1 BEX      0.131100
      4 C8         -5.6820   -0.3680   -2.5170 c3        1 BEX      0.109700
      5 C10        -4.7770    1.6580    2.4540 c3        1 BEX      0.109700
      6 C20         3.6950    1.0850   -0.6810 ca        1 BEX     -0.140500
      7 C21         4.6030    2.0760   -1.0490 ca        1 BEX     -0.118500
      8 C22         4.7300    3.2360   -0.2830 ca        1 BEX     -0.133000
      9 C24         3.0280    2.4410    1.2410 ca        1 BEX     -0.140500
     10 C1         -4.1030    0.2710   -0.8630 ca        1 BEX      0.080100
     11 O9         -4.9910    1.0600    1.1810 os        1 BEX     -0.301900
     12 N11        -0.1480    0.8970    0.5060 nh        1 BEX     -0.724600
     13 C12         0.9290    0.0180    0.0550 c3        1 BEX      0.683500
     14 N13         0.7150   -1.4170    0.1170 n3        1 BEX     -0.939100
     15 S14         1.8860   -2.5120   -0.2180 s6        1 BEX      1.597800
     16 O15         1.2560   -3.7620   -0.4580 o         1 BEX     -0.658800
     17 O16         2.6860   -1.9850   -1.2650 o         1 BEX     -0.658800
     18 N17         2.7590   -2.6380    1.1210 n3        1 BEX     -1.024700
     19 O18         2.0790    0.2670    0.9290 os        1 BEX     -0.397900
     20 C19         2.9160    1.2780    0.4680 ca        1 BEX      0.085100
     21 C23         3.9480    3.4150    0.8580 ca        1 BEX     -0.118500
     22 C3         -1.7140    0.1190   -1.2270 ca        1 BEX     -0.164000
     23 C2         -3.0220   -0.0530   -1.6790 ca        1 BEX     -0.150000
     24 H5         -2.3770    1.3330    1.9120 ha        1 BEX      0.140000
     25 H8         -5.2650   -1.3980   -2.6280 h1        1 BEX      0.044367
     26 H8A        -6.8000   -0.3870   -2.5760 h1        1 BEX      0.044367
     27 H8B        -5.2590    0.3120   -3.2950 h1        1 BEX      0.044367
     28 H10        -5.8160    1.8400    2.8300 h1        1 BEX      0.044367
     29 H10A       -4.2320    0.9570    3.1320 h1        1 BEX      0.044367
     30 H10B       -4.2200    2.6210    2.3540 h1        1 BEX      0.044367
     31 H20         3.5920    0.1590   -1.2740 ha        1 BEX      0.159500
     32 H21         5.2220    1.9380   -1.9480 ha        1 BEX      0.137000
     33 H22         5.4500    4.0130   -0.5810 ha        1 BEX      0.135000
     34 H24         2.4030    2.5680    2.1360 ha        1 BEX      0.159500
     35 HN11       -0.0980    1.0730    1.4930 hn        1 BEX      0.399800
     36 H12         1.1960    0.3080   -1.0120 h3        1 BEX      0.102700
     37 HN13       -0.1800   -1.6980    0.4400 hn        1 BEX      0.456800
     38 HN17        2.7460   -3.4360    1.7060 hn        1 BEX      0.452300
     39 HN1A        3.3300   -1.9090    1.4720 hn        1 BEX      0.452300
     40 H23         4.0520    4.3320    1.4580 ha        1 BEX      0.137000
     41 H3         -0.8850   -0.1380   -1.9030 ha        1 BEX      0.143000
     42 H2         -3.1860   -0.4460   -2.6930 ha        1 BEX      0.144000
     43 O7         -5.4330    0.1400   -1.2120 os        1 BEX     -0.303900
@<TRIPOS>BOND
     1    1    2 ar  
     2    1   12 1   
     3    1   22 ar  
     4    2    3 ar  
     5    2   24 1   
     6    3   10 ar  
     7    3   11 1   
     8    4   25 1   
     9    4   26 1   
    10    4   27 1   
    11    4   43 1   
    12    5   11 1   
    13    5   28 1   
    14    5   29 1   
    15    5   30 1   
    16    6    7 ar  
    17    6   20 ar  
    18    6   31 1   
    19    7    8 ar  
    20    7   32 1   
    21    8   21 ar  
    22    8   33 1   
    23    9   20 ar  
    24    9   21 ar  
    25    9   34 1   
    26   10   23 ar  
    27   10   43 1   
    28   12   13 1   
    29   12   35 1   
    30   13   14 1   
    31   13   19 1   
    32   13   36 1   
    33   14   15 1   
    34   14   37 1   
    35   15   16 2   
    36   15   17 2   
    37   15   18 1   
    38   18   38 1   
    39   18   39 1   
    40   19   20 1   
    41   21   40 1   
    42   22   23 ar  
    43   22   41 1   
    44   23   42 1   
@<TRIPOS>SUBSTRUCTURE
     1 BEX         1 TEMP              0 ****  ****    0 ROOT
