@<TRIPOS>MOLECULE
BEX
   45    45     1     0     0
SMALL
bcc


@<TRIPOS>ATOM
      1 C4          0.0210   -0.4520    0.2340 ca        1 BEX     -0.118000
      2 C5          1.3750   -0.0300    0.1820 ca        1 BEX     -0.055000
      3 C6          2.0340    0.3130    1.3560 ca        1 BEX     -0.139000
      4 C8          1.5090    0.5040    4.9670 c3        1 BEX     -0.088000
      5 C10         2.1630   -0.0090   -1.0910 c3        1 BEX      0.000000
      6 C20        -1.1700    2.9810   -3.5370 c3        1 BEX     -0.231000
      7 C21        -2.5500    3.0140   -4.1090 c2        1 BEX      0.213000
      8 C22        -3.4780    2.1780   -3.6810 c1        1 BEX     -0.575000
      9 C24        -0.7100    2.6710   -1.0140 c3        1 BEX     -0.319000
     10 C1          1.3640    0.2460    2.5980 ca        1 BEX      0.144000
     11 O9          1.3930    0.6200   -2.1160 oh        1 BEX     -0.404000
     12 N11        -0.6610   -0.9150   -0.9330 nu        1 BEX     -0.286000
     13 C12        -1.7880   -0.1300   -1.3370 c3        1 BEX      0.273000
     14 N13        -2.8420   -0.8900   -1.9550 n7        1 BEX     -0.889000
     15 S14        -2.6910   -2.3230   -2.6510 s6        1 BEX      2.750000
     16 O15        -3.8680   -2.7600   -3.2210 o         1 BEX     -0.807500
     17 O16        -1.4410   -2.5380   -3.2020 o         1 BEX     -0.807500
     18 N17        -2.5890   -3.4630   -1.1420 nz        1 BEX     -0.520000
     19 O18        -1.4090    0.8710   -2.5130 os        1 BEX     -0.214000
     20 C19        -1.0920    2.1090   -2.3160 c2        1 BEX      0.376000
     21 C23        -4.3450    1.3210   -3.3050 c1        1 BEX      0.195000
     22 C3         -0.6380   -0.5040    1.4790 ca        1 BEX     -0.087000
     23 C2          0.0210   -0.1590    2.6510 ca        1 BEX     -0.192000
     24 H5          3.0910    0.6320    1.3440 ha        1 BEX      0.186000
     25 H8          0.6370    1.1970    5.0430 h1        1 BEX      0.109000
     26 H8A         1.2080   -0.5510    5.1720 h1        1 BEX      0.109000
     27 H8B         2.3360    0.8250    5.6540 h1        1 BEX      0.109000
     28 H10         1.9730    0.6810   -2.8870 ho        1 BEX      0.240000
     29 H10A        3.1260    0.5570   -0.9500 h1        1 BEX      0.113500
     30 H10B        2.4050   -1.0630   -1.4060 h1        1 BEX      0.113500
     31 H20        -0.8330    4.0290   -3.2840 hc        1 BEX      0.194000
     32 H21        -0.4650    2.5890   -4.3330 hc        1 BEX      0.194000
     33 H22        -2.7200    3.7700   -4.9050 ha        1 BEX      0.200000
     34 H24        -1.6040    2.7530   -0.3360 hc        1 BEX      0.174333
     35 HN11        0.0540    2.0030   -0.5180 hc        1 BEX      0.174333
     36 H12        -0.0260   -1.1300   -1.6920 hn        1 BEX      0.253000
     37 HN13       -2.1930    0.5440   -0.5200 h3        1 BEX      0.177000
     38 HN17       -2.5410   -2.9890   -0.2430 hn        1 BEX      0.268000
     39 HN1A       -3.3980   -4.0900   -1.1150 hn        1 BEX      0.268000
     40 H23        -0.2660    3.6960   -1.1200 hc        1 BEX      0.174333
     41 H3         -1.6890   -0.8300    1.5420 ha        1 BEX      0.128000
     42 H2         -0.5110   -0.2140    3.6150 ha        1 BEX      0.173000
     43 O7          2.1160    0.6100    3.6750 os        1 BEX     -0.177000
     44 H132       -3.7040   -0.3530   -2.0440 hn        1 BEX      0.330000
     45 H173       -1.7530   -4.0500   -1.2120 hn        1 BEX      0.268000
@<TRIPOS>BOND
     1    1    2 1   
     2    1   12 1   
     3    1   22 1   
     4    2    3 1   
     5    2    5 1   
     6    3   10 1   
     7    3   24 1   
     8    4   25 1   
     9    4   26 1   
    10    4   27 1   
    11    4   43 1   
    12    5   11 1   
    13    5   29 1   
    14    5   30 1   
    15    6    7 1   
    16    6   20 1   
    17    6   31 1   
    18    6   32 1   
    19    7    8 1   
    20    7   33 1   
    21    8   21 1   
    22    9   20 1   
    23    9   34 1   
    24    9   35 1   
    25    9   40 1   
    26   10   23 1   
    27   10   43 1   
    28   11   28 1   
    29   12   13 1   
    30   12   36 1   
    31   13   14 1   
    32   13   19 1   
    33   13   37 1   
    34   14   15 1   
    35   14   44 1   
    36   15   16 1   
    37   15   17 1   
    38   15   18 1   
    39   18   38 1   
    40   18   39 1   
    41   18   45 1   
    42   19   20 1   
    43   22   23 1   
    44   22   41 1   
    45   23   42 1   
@<TRIPOS>SUBSTRUCTURE
     1 BEX         1 TEMP              0 ****  ****    0 ROOT
