@<TRIPOS>MOLECULE
BEX
   43    42     1     0     0
SMALL
bcc


@<TRIPOS>ATOM
      1 C4          0.7260    0.2760   -0.0490 ca        1 BEX      0.011000
      2 C5          2.1300    0.2920    0.1740 ca        1 BEX     -0.132000
      3 C6          2.6330    0.0990    1.4560 ca        1 BEX     -0.116000
      4 C8          1.5230   -0.5550    4.8620 c3        1 BEX     -0.076000
      5 C10         3.0610    0.5300   -0.9730 c3        1 BEX      0.018000
      6 C20        -2.5780    2.1710   -4.2050 c3        1 BEX     -0.150000
      7 C21        -1.6200    3.2980   -4.1140 c2        1 BEX      0.178000
      8 C22        -1.3670    4.0250   -3.0450 c1        1 BEX     -0.582000
      9 C24        -4.1630    2.5550   -2.2770 c2        1 BEX     -0.234000
     10 C1          1.7610   -0.1390    2.5310 ca        1 BEX      0.049000
     11 O9          4.4280    0.3960   -0.6400 oh        1 BEX     -0.319000
     12 N11         0.1990    0.3940   -1.3480 nh        1 BEX     -0.322000
     13 C12        -3.8480   -0.3270   -2.0920 c2        1 BEX      0.344000
     14 N13        -3.5360   -1.4590   -1.6690 n2        1 BEX     -0.941000
     15 S14        -2.7470   -2.7790   -1.2210 s6        1 BEX      2.875000
     16 O15        -3.2240   -3.1780    0.0520 o         1 BEX     -0.930500
     17 O16        -2.8530   -3.7320   -2.2650 o         1 BEX     -0.930500
     18 N17        -1.2100   -2.3430   -1.0680 n3        1 BEX     -0.960000
     19 O18        -2.8340    0.5680   -2.4560 os        1 BEX     -0.248000
     20 C19        -3.2690    1.8100   -2.9340 c2        1 BEX      0.013000
     21 C23        -1.1010    4.7520   -2.0280 c1        1 BEX      0.218000
     22 C3         -0.1280    0.0510    1.0520 ca        1 BEX     -0.167000
     23 C2          0.3800   -0.1650    2.3290 ca        1 BEX     -0.163000
     24 H5          3.7180    0.1430    1.6450 ha        1 BEX      0.159000
     25 H8          0.8530    0.3240    5.0250 h1        1 BEX      0.083667
     26 H8A         2.2320   -0.6760    5.7200 h1        1 BEX      0.083667
     27 H8B         0.9210   -1.4850    4.7150 h1        1 BEX      0.083667
     28 H10         4.5630   -0.5090   -0.3330 ho        1 BEX      0.203000
     29 H10A        2.8150   -0.1720   -1.8190 h1        1 BEX      0.093000
     30 H10B        2.9690    1.5930   -1.3320 h1        1 BEX      0.093000
     31 H20        -2.0190    1.2700   -4.5940 hc        1 BEX      0.136500
     32 H21        -3.3570    2.4370   -4.9760 hc        1 BEX      0.136500
     33 H22        -1.0930    3.5100   -5.0700 ha        1 BEX      0.131000
     34 H24        -4.4500    3.5510   -2.6380 ha        1 BEX      0.141000
     35 HN11       -0.7800    0.5960   -1.3600 hn        1 BEX      0.179000
     36 H12         0.7140    1.0330   -1.9180 hn        1 BEX      0.179000
     37 HN13       -4.8860    0.0510   -2.2160 h5        1 BEX      0.163000
     38 HN17       -0.8030   -2.0390   -0.2160 hn        1 BEX      0.248000
     39 HN1A       -0.5660   -2.3060   -1.8180 hn        1 BEX      0.248000
     40 H23        -4.6380    2.2300   -1.3430 ha        1 BEX      0.141000
     41 H3         -1.2200    0.0520    0.9120 ha        1 BEX      0.131000
     42 H2         -0.3150   -0.3460    3.1620 ha        1 BEX      0.142000
     43 O7          2.3840   -0.3330    3.7520 os        1 BEX     -0.209000
@<TRIPOS>BOND
     1    1    2 1   
     2    1   12 1   
     3    1   22 1   
     4    2    3 1   
     5    2    5 1   
     6    3   10 1   
     7    3   24 1   
     8    4   25 1   
     9    4   26 1   
    10    4   27 1   
    11    4   43 1   
    12    5   11 1   
    13    5   29 1   
    14    5   30 1   
    15    6    7 1   
    16    6   20 1   
    17    6   31 1   
    18    6   32 1   
    19    7    8 1   
    20    7   33 1   
    21    8   21 1   
    22    9   20 1   
    23    9   34 1   
    24    9   40 1   
    25   10   23 1   
    26   10   43 1   
    27   11   28 1   
    28   12   35 1   
    29   12   36 1   
    30   13   14 1   
    31   13   19 1   
    32   13   37 1   
    33   14   15 1   
    34   15   16 1   
    35   15   17 1   
    36   15   18 1   
    37   18   38 1   
    38   18   39 1   
    39   19   20 1   
    40   22   23 1   
    41   22   41 1   
    42   23   42 1   
@<TRIPOS>SUBSTRUCTURE
     1 BEX         1 TEMP              0 ****  ****    0 ROOT
