@<TRIPOS>MOLECULE
BEX
   43    37     1     0     0
SMALL
bcc


@<TRIPOS>ATOM
      1 C4          1.0730    0.2560    0.2790 c1        1 BEX      0.071000
      2 C5          2.4040    0.0120    0.1700 c1        1 BEX     -0.139500
      3 C6          3.1870   -0.1180    1.3190 c1        1 BEX      0.025500
      4 C8          3.7110    1.0580    4.4690 c3        1 BEX     -0.078000
      5 C10         5.2500   -1.3390    0.9470 c3        1 BEX     -0.078000
      6 C20        -3.3420    2.3560   -1.1250 c1        1 BEX     -0.123000
      7 C21        -4.6160    2.7570   -0.7450 c1        1 BEX     -0.123000
      8 C22        -5.6370    1.8220   -0.6480 c1        1 BEX     -0.123000
      9 C24        -4.1030    0.0850   -1.3110 c1        1 BEX     -0.159000
     10 O7          3.4180   -0.1800    3.7590 os        1 BEX     -0.227000
     11 C1          2.6110    0.0010    2.5580 c1        1 BEX      0.025500
     12 O9          4.6080   -0.0440    1.1060 os        1 BEX     -0.227000
     13 N11         0.2610    0.4700   -0.9360 n3        1 BEX     -0.320000
     14 C12        -1.0100   -0.1270   -1.0430 c3        1 BEX      0.277000
     15 N13        -0.8710   -1.4390   -1.5150 n3        1 BEX     -0.902000
     16 S14        -0.5920   -1.7150   -3.1290 s4        1 BEX      2.033800
     17 O15        -1.5630   -1.0440   -3.9470 o         1 BEX     -0.539900
     18 O16         0.6360   -1.0790   -3.5720 o         1 BEX     -0.539900
     19 N17        -0.5660   -3.3400   -3.4340 n2        1 BEX     -0.950000
     20 O18        -1.8120    0.6210   -1.9460 os        1 BEX     -0.247000
     21 C19        -3.0880    1.0110   -1.4080 c1        1 BEX      0.062000
     22 C23        -5.3840    0.4890   -0.9290 c1        1 BEX     -0.123000
     23 C3          0.4960    0.3760    1.5250 c1        1 BEX     -0.190000
     24 C2          1.2730    0.2460    2.6680 c1        1 BEX     -0.139500
     25 H5          2.8190   -0.0730   -0.7270 ha        1 BEX      0.154000
     26 H8          2.9760    1.2600    5.0920 h1        1 BEX      0.085167
     27 H8A         3.8030    1.7850    3.8290 h1        1 BEX      0.085167
     28 H8B         4.5170    0.9600    4.9520 h1        1 BEX      0.085167
     29 H10         4.6810   -2.0480    1.3670 h1        1 BEX      0.085167
     30 H10A        6.1330   -1.3240    1.3860 h1        1 BEX      0.085167
     31 H10B        5.3640   -1.5370   -0.0250 h1        1 BEX      0.085167
     32 H20        -2.5850    3.0490   -1.1970 ha        1 BEX      0.138750
     33 H21        -4.7900    3.6730   -0.5510 ha        1 BEX      0.138750
     34 H22        -6.5720    2.1150   -0.3690 ha        1 BEX      0.138750
     35 H24        -3.9270   -0.8550   -1.5080 ha        1 BEX      0.134000
     36 HN11        0.5520    1.0680   -1.5920 hn        1 BEX      0.238000
     37 H12        -1.4580   -0.1440   -0.1190 h3        1 BEX      0.120000
     38 HN13       -1.0450   -2.1570   -0.9470 hn        1 BEX      0.246000
     39 HN17       -1.2930   -3.7480   -3.8640 hn        1 BEX      0.245000
     40 HN1A        0.1580   -3.8680   -3.1260 hn        1 BEX      0.245000
     41 H23        -6.1020   -0.1680   -0.8600 ha        1 BEX      0.138750
     42 H3         -0.4400    0.5470    1.6030 ha        1 BEX      0.134000
     43 H2          0.8660    0.3300    3.5430 ha        1 BEX      0.154000
@<TRIPOS>BOND
     1    1   13 1   
     2    1   23 1   
     3    2    3 1   
     4    2   25 1   
     5    3   12 1   
     6    4   10 1   
     7    4   26 1   
     8    4   27 1   
     9    4   28 1   
    10    5   12 1   
    11    5   29 1   
    12    5   30 1   
    13    5   31 1   
    14    6    7 1   
    15    6   32 1   
    16    7   33 1   
    17    8   22 1   
    18    8   34 1   
    19    9   21 1   
    20    9   35 1   
    21   10   11 1   
    22   11   24 1   
    23   13   14 1   
    24   13   36 1   
    25   14   15 1   
    26   14   20 1   
    27   14   37 1   
    28   15   16 1   
    29   15   38 1   
    30   16   17 1   
    31   16   18 1   
    32   19   39 1   
    33   19   40 1   
    34   20   21 1   
    35   22   41 1   
    36   23   42 1   
    37   24   43 1   
@<TRIPOS>SUBSTRUCTURE
     1 BEX         1 TEMP              0 ****  ****    0 ROOT
