@<TRIPOS>MOLECULE
BEY
   48    49     1     0     0
SMALL
bcc


@<TRIPOS>ATOM
      1 O3         -0.2480    0.9040    1.2410 oh        1 BEY     -0.833400
      2 P          -0.1550    0.4210   -0.2810 p5        1 BEY      1.507100
      3 O4         -0.2000   -1.0400   -0.3960 o         1 BEY     -0.883300
      4 C19        -1.5520    1.1040   -0.9620 c3        1 BEY     -0.113700
      5 C18        -2.7090    0.3100   -0.3620 c3        1 BEY     -0.122400
      6 C15        -4.0450    0.6620   -0.9780 c3        1 BEY     -0.029100
      7 C16        -5.1420   -0.2220   -0.4960 ca        1 BEY     -0.066300
      8 C10        -6.2290    0.3120    0.2060 ca        1 BEY     -0.126000
      9 C11        -7.2650   -0.5160    0.6380 ca        1 BEY     -0.132000
     10 C12        -7.2240   -1.8840    0.3750 ca        1 BEY     -0.142000
     11 C14        -6.1430   -2.4230   -0.3220 ca        1 BEY     -0.132000
     12 C13        -5.1070   -1.5980   -0.7560 ca        1 BEY     -0.126000
     13 N          -1.5670    2.5300   -0.7680 n3        1 BEY     -0.881800
     14 C17         1.1310    1.1490   -0.9900 c3        1 BEY     -0.429600
     15 C8          2.4070    0.8410   -0.2160 c3        1 BEY     -0.169700
     16 C9          2.8510    2.1090    0.5740 c         1 BEY      0.914600
     17 O2          2.1590    2.4070    1.5950 o         1 BEY     -0.833800
     18 O1          3.8370    2.7810    0.1750 o         1 BEY     -0.833800
     19 C7          3.5120    0.3470   -1.1380 c3        1 BEY     -0.019100
     20 C1          4.5380   -0.4680   -0.4280 ca        1 BEY     -0.057300
     21 C2          4.5700   -1.8590   -0.5720 ca        1 BEY     -0.124000
     22 C3          5.5550   -2.6110    0.0670 ca        1 BEY     -0.145500
     23 C4          6.5150   -1.9810    0.8560 ca        1 BEY     -0.152000
     24 C6          6.4830   -0.5940    1.0100 ca        1 BEY     -0.145500
     25 C5          5.5010    0.1610    0.3740 ca        1 BEY     -0.124000
     26 H19        -1.5660    0.9300   -2.0770 h1        1 BEY      0.083700
     27 H18        -2.4880   -0.7830   -0.5200 hc        1 BEY      0.080200
     28 H18A       -2.7260    0.4860    0.7460 hc        1 BEY      0.080200
     29 H15        -4.2970    1.7330   -0.7510 hc        1 BEY      0.040200
     30 H15A       -3.9720    0.5700   -2.0960 hc        1 BEY      0.040200
     31 H10        -6.2640    1.3900    0.4220 ha        1 BEY      0.136000
     32 H11        -8.1130   -0.0870    1.1920 ha        1 BEY      0.124000
     33 H12        -8.0390   -2.5360    0.7180 ha        1 BEY      0.121000
     34 H14        -6.1030   -3.5030   -0.5260 ha        1 BEY      0.124000
     35 H13        -4.2500   -2.0270   -1.2980 ha        1 BEY      0.136000
     36 HN         -2.4250    2.9330   -1.0920 hn        1 BEY      0.349800
     37 HNA        -1.4630    2.7320    0.2110 hn        1 BEY      0.349800
     38 H17         1.2460    0.8170   -2.0540 hc        1 BEY      0.106700
     39 H17A        1.0420    2.2680   -1.0530 hc        1 BEY      0.106700
     40 H8          2.1840    0.0370    0.5410 hc        1 BEY      0.045700
     41 H7          3.0720   -0.2680   -1.9690 hc        1 BEY      0.048700
     42 H7A         4.0100    1.2470   -1.5960 hc        1 BEY      0.048700
     43 H2          3.8070   -2.3630   -1.1840 ha        1 BEY      0.158000
     44 H3          5.5700   -3.7040   -0.0500 ha        1 BEY      0.114500
     45 H4          7.2900   -2.5740    1.3600 ha        1 BEY      0.109000
     46 H6          7.2310   -0.0940    1.6420 ha        1 BEY      0.114500
     47 H5          5.4460    1.2600    0.5020 ha        1 BEY      0.158000
     48 H23         0.5060    1.3760    1.6280 ho        1 BEY      0.524000
@<TRIPOS>BOND
     1    1    2 1   
     2    1   48 1   
     3    2    3 2   
     4    2    4 1   
     5    2   14 1   
     6    4    5 1   
     7    4   13 1   
     8    4   26 1   
     9    5    6 1   
    10    5   27 1   
    11    5   28 1   
    12    6    7 1   
    13    6   29 1   
    14    6   30 1   
    15    7    8 ar  
    16    7   12 ar  
    17    8    9 ar  
    18    8   31 1   
    19    9   10 ar  
    20    9   32 1   
    21   10   11 ar  
    22   10   33 1   
    23   11   12 ar  
    24   11   34 1   
    25   12   35 1   
    26   13   36 1   
    27   13   37 1   
    28   14   15 1   
    29   14   38 1   
    30   14   39 1   
    31   15   16 1   
    32   15   19 1   
    33   15   40 1   
    34   16   17 1   
    35   16   18 1   
    36   19   20 1   
    37   19   41 1   
    38   19   42 1   
    39   20   21 ar  
    40   20   25 ar  
    41   21   22 ar  
    42   21   43 1   
    43   22   23 ar  
    44   22   44 1   
    45   23   24 ar  
    46   23   45 1   
    47   24   25 ar  
    48   24   46 1   
    49   25   47 1   
@<TRIPOS>SUBSTRUCTURE
     1 BEY         1 TEMP              0 ****  ****    0 ROOT
