@<TRIPOS>MOLECULE
BEY
   49    50     1     0     0
SMALL
bcc


@<TRIPOS>ATOM
      1 O3          0.7220    0.3390   -1.2470 oh        1 BEY     -0.800400
      2 P           2.3230    0.3630   -1.0600 p5        1 BEY      1.489100
      3 O4          2.7810    1.4970   -1.8590 o         1 BEY     -0.876300
      4 C19         2.5700    0.5240    0.5840 c3        1 BEY     -0.133700
      5 C18         1.8560    1.8120    0.9880 c3        1 BEY     -0.119400
      6 C15         2.1210    2.2040    2.4250 c3        1 BEY     -0.025100
      7 C16         1.4860    3.5080    2.7640 ca        1 BEY     -0.085300
      8 C10         0.4120    3.5640    3.6590 ca        1 BEY     -0.125000
      9 C11        -0.1690    4.7890    3.9840 ca        1 BEY     -0.127000
     10 C12         0.3170    5.9670    3.4170 ca        1 BEY     -0.130000
     11 C14         1.3880    5.9170    2.5240 ca        1 BEY     -0.127000
     12 C13         1.9710    4.6940    2.1990 ca        1 BEY     -0.125000
     13 N           2.1870   -0.6920    1.2580 n3        1 BEY     -0.897800
     14 C17         2.9390   -1.0950   -1.5360 c3        1 BEY     -0.402600
     15 C8          1.9320   -2.2210   -1.5470 c3        1 BEY     -0.131700
     16 C9          2.0370   -3.1100   -0.3250 c         1 BEY      0.640100
     17 O2          1.1340   -3.3460    0.4760 o         1 BEY     -0.491000
     18 O1          3.2020   -3.7680   -0.0570 oh        1 BEY     -0.573100
     19 C7          2.0760   -3.1090   -2.7860 c3        1 BEY     -0.034100
     20 C1          1.6470   -2.4160   -4.0300 ca        1 BEY     -0.097300
     21 C2          2.5950   -1.9500   -4.9480 ca        1 BEY     -0.123500
     22 C3          2.1850   -1.3160   -6.1200 ca        1 BEY     -0.124000
     23 C4          0.8260   -1.1440   -6.3840 ca        1 BEY     -0.122000
     24 C6         -0.1230   -1.6090   -5.4730 ca        1 BEY     -0.124000
     25 C5          0.2840   -2.2430   -4.3010 ca        1 BEY     -0.123500
     26 H19         3.6690    0.6820    0.8050 h1        1 BEY      0.106700
     27 H18         2.2110    2.6280    0.2990 hc        1 BEY      0.073700
     28 H18A        0.7540    1.6810    0.8180 hc        1 BEY      0.073700
     29 H15         3.2300    2.2800    2.5910 hc        1 BEY      0.047700
     30 H15A        1.7370    1.4030    3.1120 hc        1 BEY      0.047700
     31 H10         0.0250    2.6380    4.1100 ha        1 BEY      0.132500
     32 H11        -1.0120    4.8250    4.6880 ha        1 BEY      0.132500
     33 H12        -0.1420    6.9330    3.6740 ha        1 BEY      0.132000
     34 H14         1.7740    6.8440    2.0750 ha        1 BEY      0.132500
     35 H13         2.8150    4.6570    1.4940 ha        1 BEY      0.132500
     36 HN          2.4430   -0.6770    2.2270 hn        1 BEY      0.367800
     37 HNA         3.8620   -3.5490   -0.7290 ho        1 BEY      0.423000
     38 H17         3.3500   -0.9810   -2.5820 hc        1 BEY      0.115700
     39 H17A        3.8250   -1.3870   -0.9120 hc        1 BEY      0.115700
     40 H8          0.8840   -1.7910   -1.5490 hc        1 BEY      0.117700
     41 H7          3.1440   -3.4440   -2.8780 hc        1 BEY      0.058200
     42 H7A         1.4460   -4.0300   -2.6420 hc        1 BEY      0.058200
     43 H2          3.6680   -2.0870   -4.7480 ha        1 BEY      0.133500
     44 H3          2.9350   -0.9490   -6.8350 ha        1 BEY      0.136000
     45 H4          0.5030   -0.6430   -7.3080 ha        1 BEY      0.136000
     46 H6         -1.1950   -1.4760   -5.6790 ha        1 BEY      0.136000
     47 H5         -0.4650   -2.6090   -3.5830 ha        1 BEY      0.133500
     48 H23         0.3720    1.0120   -1.8270 ho        1 BEY      0.482000
     49 HN3         1.1940   -0.8270    1.1860 hn        1 BEY      0.367800
@<TRIPOS>BOND
     1    1    2 1   
     2    1   48 1   
     3    2    3 2   
     4    2    4 1   
     5    2   14 1   
     6    4    5 1   
     7    4   13 1   
     8    4   26 1   
     9    5    6 1   
    10    5   27 1   
    11    5   28 1   
    12    6    7 1   
    13    6   29 1   
    14    6   30 1   
    15    7    8 ar  
    16    7   12 ar  
    17    8    9 ar  
    18    8   31 1   
    19    9   10 ar  
    20    9   32 1   
    21   10   11 ar  
    22   10   33 1   
    23   11   12 ar  
    24   11   34 1   
    25   12   35 1   
    26   13   36 1   
    27   13   49 1   
    28   14   15 1   
    29   14   38 1   
    30   14   39 1   
    31   15   16 1   
    32   15   19 1   
    33   15   40 1   
    34   16   17 2   
    35   16   18 1   
    36   18   37 1   
    37   19   20 1   
    38   19   41 1   
    39   19   42 1   
    40   20   21 ar  
    41   20   25 ar  
    42   21   22 ar  
    43   21   43 1   
    44   22   23 ar  
    45   22   44 1   
    46   23   24 ar  
    47   23   45 1   
    48   24   25 ar  
    49   24   46 1   
    50   25   47 1   
@<TRIPOS>SUBSTRUCTURE
     1 BEY         1 TEMP              0 ****  ****    0 ROOT
