@<TRIPOS>MOLECULE
BEY
   48    45     1     0     0
SMALL
bcc


@<TRIPOS>ATOM
      1 O3         -0.9500   -0.3310   -0.1060 oh        1 BEY     -0.864000
      2 P           0.6280   -0.2550   -0.0760 p5        1 BEY      2.833000
      3 O4          1.1920   -1.4290   -0.7790 o         1 BEY     -1.161000
      4 C19         1.2000   -0.2480    1.6450 c3        1 BEY     -0.725000
      5 C18         0.7520   -1.5190    2.3310 c3        1 BEY     -0.196000
      6 C15         0.0350   -1.1730    3.6170 c3        1 BEY     -0.116000
      7 C16        -0.3880   -2.4470    4.3190 c2        1 BEY     -0.059000
      8 C10        -1.5730   -3.0720    3.9640 c1        1 BEY     -0.127000
      9 C11        -2.0060   -4.1860    4.6650 c1        1 BEY     -0.143750
     10 C12        -1.2540   -4.6760    5.7210 c1        1 BEY     -0.143750
     11 C14        -0.0690   -4.0520    6.0760 c1        1 BEY     -0.131000
     12 C13         0.3650   -2.9370    5.3750 c2        1 BEY     -0.125000
     13 N           2.6190   -0.1700    1.6730 n3        1 BEY     -0.317000
     14 C17         1.1770    1.2670   -0.9030 c3        1 BEY     -0.916000
     15 C8          0.5050    1.3760   -2.2570 c3        1 BEY     -0.159000
     16 C9          1.2130    0.4760   -3.2450 c2        1 BEY      0.334000
     17 O2          0.5710   -0.4230   -3.8480 o         1 BEY     -0.566500
     18 O1          2.4380    0.6390   -3.4800 o         1 BEY     -0.566500
     19 C7          0.5750    2.8080   -2.7400 c3        1 BEY     -0.113000
     20 C1         -0.3090    2.9730   -3.9580 c2        1 BEY     -0.051000
     21 C2          0.2630    3.1610   -5.2070 c2        1 BEY     -0.113000
     22 C3         -0.5420    3.4090   -6.3080 c1        1 BEY     -0.140000
     23 C4         -1.9180    3.4680   -6.1610 c1        1 BEY     -0.143750
     24 C6         -2.4900    3.2800   -4.9130 c1        1 BEY     -0.143750
     25 C5         -1.6860    3.0320   -3.8110 c1        1 BEY     -0.146000
     26 H19         0.8220    0.5250    2.1110 h1        1 BEY      0.140000
     27 H18         0.1450   -2.0110    1.7420 hc        1 BEY      0.117000
     28 H18A        1.5310   -2.0740    2.5320 hc        1 BEY      0.117000
     29 H15         0.6350   -0.6640    4.1980 hc        1 BEY      0.081500
     30 H15A       -0.7560   -0.6350    3.4150 hc        1 BEY      0.081500
     31 H10        -2.1030   -2.7270    3.2210 ha        1 BEY      0.132000
     32 H11        -2.8410   -4.6260    4.4150 ha        1 BEY      0.116000
     33 H12        -1.5600   -5.4590    6.2170 ha        1 BEY      0.116000
     34 H14         0.4610   -4.3970    6.8200 ha        1 BEY      0.125000
     35 H13         1.1900   -2.4870    5.6370 ha        1 BEY      0.137000
     36 HN          2.8820    0.3740    2.3630 hn        1 BEY      0.144000
     37 HNA         2.9680   -1.0070    1.7940 hn        1 BEY      0.144000
     38 H17         2.1480    1.2420   -1.0220 hc        1 BEY      0.151000
     39 H17A        0.9350    2.0410   -0.3550 hc        1 BEY      0.151000
     40 H8         -0.4290    1.1040   -2.1800 hc        1 BEY      0.069000
     41 H7          1.4980    3.0280   -2.9750 hc        1 BEY      0.094000
     42 H7A         0.2670    3.4060   -2.0310 hc        1 BEY      0.094000
     43 H2          1.2330    3.1200   -5.3110 ha        1 BEY      0.193000
     44 H3         -0.1380    3.5630   -7.1830 ha        1 BEY      0.120000
     45 H4         -2.4850    3.6430   -6.9370 ha        1 BEY      0.116000
     46 H6         -3.4610    3.3220   -4.8090 ha        1 BEY      0.116000
     47 H5         -2.0890    2.8990   -2.9320 ha        1 BEY      0.121000
     48 H23        -1.2020   -1.1540   -0.3230 ho        1 BEY      0.321000
@<TRIPOS>BOND
     1    1    2 1   
     2    1   48 1   
     3    2    3 1   
     4    2    4 1   
     5    2   14 1   
     6    4    5 1   
     7    4   13 1   
     8    4   26 1   
     9    5    6 1   
    10    5   27 1   
    11    5   28 1   
    12    6    7 1   
    13    6   29 1   
    14    6   30 1   
    15    7    8 1   
    16    7   12 1   
    17    8   31 1   
    18    9   10 1   
    19    9   32 1   
    20   10   33 1   
    21   11   12 1   
    22   11   34 1   
    23   12   35 1   
    24   13   36 1   
    25   13   37 1   
    26   14   15 1   
    27   14   38 1   
    28   14   39 1   
    29   15   16 1   
    30   15   19 1   
    31   15   40 1   
    32   16   17 1   
    33   16   18 1   
    34   19   20 1   
    35   19   41 1   
    36   19   42 1   
    37   20   21 1   
    38   20   25 1   
    39   21   22 1   
    40   21   43 1   
    41   22   44 1   
    42   23   24 1   
    43   23   45 1   
    44   24   46 1   
    45   25   47 1   
@<TRIPOS>SUBSTRUCTURE
     1 BEY         1 TEMP              0 ****  ****    0 ROOT
