@<TRIPOS>MOLECULE
BEY
   48    49     1     0     0
SMALL
bcc


@<TRIPOS>ATOM
      1 O3          0.3560   -0.5470   -1.0720 o         1 BEY     -0.874500
      2 P           1.6690   -0.0370   -0.5870 p5        1 BEY      1.255400
      3 O4          2.0850    1.3670   -0.8390 o         1 BEY     -0.874500
      4 C19         1.6910   -0.2850    1.1510 c3        1 BEY     -0.081700
      5 C18         1.0120    0.9340    1.7700 c3        1 BEY     -0.074400
      6 C15         1.9880    1.8480    2.4970 c3        1 BEY     -0.026100
      7 C16         1.5730    3.2770    2.4240 ca        1 BEY     -0.072300
      8 C10         1.2380    3.9940    3.5760 ca        1 BEY     -0.127500
      9 C11         0.8760    5.3380    3.4870 ca        1 BEY     -0.144000
     10 C12         0.8480    5.9730    2.2480 ca        1 BEY     -0.150000
     11 C14         1.1810    5.2610    1.0940 ca        1 BEY     -0.144000
     12 C13         1.5440    3.9180    1.1750 ca        1 BEY     -0.127500
     13 N           1.0940   -1.5650    1.4370 n3        1 BEY     -0.908800
     14 C17         2.9370   -1.0650   -1.0960 c3        1 BEY     -0.348600
     15 C8          2.4320   -2.3730   -1.6510 c3        1 BEY     -0.117700
     16 C9          3.0440   -3.5510   -0.9200 c         1 BEY      0.633100
     17 O2          2.8490   -3.7210    0.4150 oh        1 BEY     -0.620100
     18 O1          3.7330   -4.4520   -1.4170 o         1 BEY     -0.560000
     19 C7          2.7440   -2.5640   -3.1350 c3        1 BEY     -0.023100
     20 C1          2.0660   -1.6500   -4.0920 ca        1 BEY     -0.073300
     21 C2          2.8000   -1.1560   -5.1800 ca        1 BEY     -0.115500
     22 C3          2.1880   -0.3650   -6.1500 ca        1 BEY     -0.136500
     23 C4          0.8330   -0.0550   -6.0440 ca        1 BEY     -0.144000
     24 C6          0.0990   -0.5340   -4.9610 ca        1 BEY     -0.136500
     25 C5          0.7060   -1.3300   -3.9890 ca        1 BEY     -0.115500
     26 H19         2.7490   -0.3330    1.5310 h1        1 BEY      0.059700
     27 H18         0.5030    1.5140    0.9500 hc        1 BEY      0.045200
     28 H18A        0.2100    0.6330    2.4980 hc        1 BEY      0.045200
     29 H15         2.0800    1.5210    3.5660 hc        1 BEY      0.041700
     30 H15A        3.0100    1.7680    2.0350 hc        1 BEY      0.041700
     31 H10         1.2570    3.4960    4.5560 ha        1 BEY      0.165000
     32 H11         0.6120    5.8950    4.3970 ha        1 BEY      0.117500
     33 H12         0.5620    7.0320    2.1780 ha        1 BEY      0.111000
     34 H14         1.1570    5.7590    0.1140 ha        1 BEY      0.117500
     35 H13         1.8060    3.3380    0.2630 ha        1 BEY      0.165000
     36 HN          2.3060   -2.9990    0.7830 ho        1 BEY      0.469000
     37 HNA         0.8750   -1.6590    2.4100 hn        1 BEY      0.349300
     38 H17         3.6640   -1.2510   -0.2680 hc        1 BEY      0.078700
     39 H17A        3.5160   -0.5180   -1.8840 hc        1 BEY      0.078700
     40 H8          1.3090   -2.4200   -1.4980 hc        1 BEY      0.119700
     41 H7          2.4600   -3.6180   -3.4150 hc        1 BEY      0.050700
     42 H7A         3.8590   -2.4870   -3.2640 hc        1 BEY      0.050700
     43 H2          3.8710   -1.3900   -5.2660 ha        1 BEY      0.151000
     44 H3          2.7770    0.0200   -6.9940 ha        1 BEY      0.119000
     45 H4          0.3500    0.5750   -6.8040 ha        1 BEY      0.112000
     46 H6         -0.9640   -0.2720   -4.8550 ha        1 BEY      0.119000
     47 H5          0.1160   -1.6610   -3.1150 ha        1 BEY      0.151000
     48 HN3         0.2430   -1.6520    0.9030 hn        1 BEY      0.349300
@<TRIPOS>BOND
     1    1    2 1   
     2    2    3 1   
     3    2    4 1   
     4    2   14 1   
     5    4    5 1   
     6    4   13 1   
     7    4   26 1   
     8    5    6 1   
     9    5   27 1   
    10    5   28 1   
    11    6    7 1   
    12    6   29 1   
    13    6   30 1   
    14    7    8 ar  
    15    7   12 ar  
    16    8    9 ar  
    17    8   31 1   
    18    9   10 ar  
    19    9   32 1   
    20   10   11 ar  
    21   10   33 1   
    22   11   12 ar  
    23   11   34 1   
    24   12   35 1   
    25   13   37 1   
    26   13   48 1   
    27   14   15 1   
    28   14   38 1   
    29   14   39 1   
    30   15   16 1   
    31   15   19 1   
    32   15   40 1   
    33   16   17 1   
    34   16   18 2   
    35   17   36 1   
    36   19   20 1   
    37   19   41 1   
    38   19   42 1   
    39   20   21 ar  
    40   20   25 ar  
    41   21   22 ar  
    42   21   43 1   
    43   22   23 ar  
    44   22   44 1   
    45   23   24 ar  
    46   23   45 1   
    47   24   25 ar  
    48   24   46 1   
    49   25   47 1   
@<TRIPOS>SUBSTRUCTURE
     1 BEY         1 TEMP              0 ****  ****    0 ROOT
