@<TRIPOS>MOLECULE
BEY
   48    49     1     0     0
SMALL
bcc


@<TRIPOS>ATOM
      1 O3          0.2130   -0.4980   -0.1470 o         1 BEY     -0.882000
      2 P           1.6090   -0.0060   -0.3560 p5        1 BEY      1.270400
      3 O4          1.8820    1.1470   -1.2490 o         1 BEY     -0.882000
      4 C19         2.2990    0.3300    1.1930 c3        1 BEY     -0.085700
      5 C18         1.7460    1.7030    1.5480 c3        1 BEY     -0.117400
      6 C15         2.3580    2.2810    2.8060 c3        1 BEY     -0.031100
      7 C16         1.9300    3.6840    3.0610 ca        1 BEY     -0.058300
      8 C10         1.2650    4.0210    4.2460 ca        1 BEY     -0.128500
      9 C11         0.8850    5.3390    4.4940 ca        1 BEY     -0.134500
     10 C12         1.1660    6.3350    3.5600 ca        1 BEY     -0.147000
     11 C14         1.8260    6.0070    2.3760 ca        1 BEY     -0.134500
     12 C13         2.2070    4.6910    2.1260 ca        1 BEY     -0.128500
     13 N           2.0150   -0.7490    2.1020 n8        1 BEY     -0.885800
     14 C17         2.5130   -1.3490   -0.8990 c3        1 BEY     -0.350600
     15 C8          1.8250   -1.9190   -2.1230 c3        1 BEY     -0.111700
     16 C9          1.1550   -3.2350   -1.7850 c         1 BEY      0.646100
     17 O2          1.4780   -4.3610   -2.1880 o         1 BEY     -0.574000
     18 O1          0.0760   -3.2320   -0.9660 oh        1 BEY     -0.618100
     19 C7          2.7900   -2.0860   -3.2920 c3        1 BEY     -0.029100
     20 C1          2.0950   -2.1100   -4.6100 ca        1 BEY     -0.074300
     21 C2          1.8070   -0.9120   -5.2750 ca        1 BEY     -0.120500
     22 C3          1.1850   -0.9340   -6.5220 ca        1 BEY     -0.141000
     23 C4          0.8430   -2.1500   -7.1140 ca        1 BEY     -0.146000
     24 C6          1.1150   -3.3450   -6.4490 ca        1 BEY     -0.141000
     25 C5          1.7350   -3.3270   -5.2010 ca        1 BEY     -0.120500
     26 H19         3.4180    0.4140    1.1200 h1        1 BEY      0.064700
     27 H18         0.6310    1.6250    1.6530 hc        1 BEY      0.074200
     28 H18A        1.9510    2.3820    0.6720 hc        1 BEY      0.074200
     29 H15         2.0910    1.6390    3.6880 hc        1 BEY      0.038700
     30 H15A        3.4780    2.2590    2.7110 hc        1 BEY      0.038700
     31 H10         1.0340    3.2380    4.9840 ha        1 BEY      0.137000
     32 H11         0.3600    5.5910    5.4260 ha        1 BEY      0.120500
     33 H12         0.8650    7.3740    3.7540 ha        1 BEY      0.117000
     34 H14         2.0420    6.7890    1.6330 ha        1 BEY      0.120500
     35 H13         2.7180    4.4310    1.1860 ha        1 BEY      0.137000
     36 HN          2.1720   -0.4730    3.0520 hn        1 BEY      0.339800
     37 HNA         1.0480   -1.0120    2.0000 hn        1 BEY      0.339800
     38 H17         3.5560   -1.0370   -1.1460 hc        1 BEY      0.077700
     39 H17A        2.6010   -2.1320   -0.1080 hc        1 BEY      0.077700
     40 H8          1.0050   -1.2050   -2.4410 hc        1 BEY      0.091700
     41 H7          3.5180   -1.2300   -3.2860 hc        1 BEY      0.058700
     42 H7A         3.3730   -3.0360   -3.1510 hc        1 BEY      0.058700
     43 H2          2.0630    0.0480   -4.7990 ha        1 BEY      0.153000
     44 H3          0.9590    0.0110   -7.0370 ha        1 BEY      0.119000
     45 H4          0.3530   -2.1650   -8.0970 ha        1 BEY      0.114000
     46 H6          0.8330   -4.3050   -6.9050 ha        1 BEY      0.119000
     47 H5          1.9250   -4.2660   -4.6540 ha        1 BEY      0.153000
     48 HN3        -0.0960   -2.3180   -0.6290 ho        1 BEY      0.500000
@<TRIPOS>BOND
     1    1    2 1   
     2    2    3 1   
     3    2    4 1   
     4    2   14 1   
     5    4    5 1   
     6    4   13 1   
     7    4   26 1   
     8    5    6 1   
     9    5   27 1   
    10    5   28 1   
    11    6    7 1   
    12    6   29 1   
    13    6   30 1   
    14    7    8 ar  
    15    7   12 ar  
    16    8    9 ar  
    17    8   31 1   
    18    9   10 ar  
    19    9   32 1   
    20   10   11 ar  
    21   10   33 1   
    22   11   12 ar  
    23   11   34 1   
    24   12   35 1   
    25   13   36 1   
    26   13   37 1   
    27   14   15 1   
    28   14   38 1   
    29   14   39 1   
    30   15   16 1   
    31   15   19 1   
    32   15   40 1   
    33   16   17 2   
    34   16   18 1   
    35   18   48 1   
    36   19   20 1   
    37   19   41 1   
    38   19   42 1   
    39   20   21 ar  
    40   20   25 ar  
    41   21   22 ar  
    42   21   43 1   
    43   22   23 ar  
    44   22   44 1   
    45   23   24 ar  
    46   23   45 1   
    47   24   25 ar  
    48   24   46 1   
    49   25   47 1   
@<TRIPOS>SUBSTRUCTURE
     1 BEY         1 TEMP              0 ****  ****    0 ROOT
