@<TRIPOS>MOLECULE
BEZ
   14    14     1     0     0
SMALL
bcc


@<TRIPOS>ATOM
      1 C           1.6980   -0.0620    0.0020 c         1 BEZ      0.906200
      2 O1          2.2600   -1.1940    0.0010 o         1 BEZ     -0.834300
      3 O2          2.3230    1.0370    0.0030 o         1 BEZ     -0.834300
      4 C1          0.1780   -0.0190    0.0010 ca        1 BEZ     -0.123600
      5 C2         -0.5640   -1.2040   -0.0010 ca        1 BEZ     -0.109000
      6 C3         -1.9580   -1.1660   -0.0010 ca        1 BEZ     -0.166000
      7 C4         -2.6230    0.0600   -0.0010 ca        1 BEZ     -0.162000
      8 C5         -1.8890    1.2470    0.0010 ca        1 BEZ     -0.166000
      9 C6         -0.4960    1.2070    0.0010 ca        1 BEZ     -0.109000
     10 H2         -0.0180   -2.1610   -0.0010 ha        1 BEZ      0.148000
     11 H3         -2.5340   -2.1010   -0.0020 ha        1 BEZ      0.101000
     12 H4         -3.7210    0.0920   -0.0010 ha        1 BEZ      0.097000
     13 H5         -2.4120    2.2130    0.0010 ha        1 BEZ      0.101000
     14 H6          0.1040    2.1310    0.0020 ha        1 BEZ      0.148000
@<TRIPOS>BOND
     1    1    2 1   
     2    1    3 1   
     3    1    4 1   
     4    4    5 ar  
     5    4    9 ar  
     6    5    6 ar  
     7    5   10 1   
     8    6    7 ar  
     9    6   11 1   
    10    7    8 ar  
    11    7   12 1   
    12    8    9 ar  
    13    8   13 1   
    14    9   14 1   
@<TRIPOS>SUBSTRUCTURE
     1 BEZ         1 TEMP              0 ****  ****    0 ROOT
