@<TRIPOS>MOLECULE
BF0
   65    67     1     0     0
SMALL
bcc


@<TRIPOS>ATOM
      1 CBF        -0.6460    3.7580   -5.2540 cx        1 BF0     -0.209500
      2 CBG        -0.9170    4.9110   -4.3040 cx        1 BF0     -0.209500
      3 CBE        -0.3010    3.6250   -3.7810 cx        1 BF0     -0.159000
      4 CBD        -1.2380    2.7220   -2.9530 c3        1 BF0     -0.038000
      5 NAJ        -0.9860    2.9300   -1.5320 n3        1 BF0     -0.245000
      6 CAK         0.7460    2.9400   -1.2390 c3        1 BF0     -0.067000
      7 CAL         1.1380    2.0170    0.3510 c3        1 BF0     -0.174000
      8 CAM        -0.0720    1.3700    0.8510 c3        1 BF0     -0.051000
      9 CBC        -0.6570    2.3250    1.9290 c2        1 BF0     -0.118000
     10 CAN         0.3780    0.1250    1.6180 c3        1 BF0      0.010000
     11 OAA         0.1650    0.4130    3.1130 os        1 BF0     -0.198000
     12 CAB        -0.2160    1.8380    3.2530 c2        1 BF0      0.042000
     13 CAC        -1.0160    2.0350    4.3580 c2        1 BF0      0.057000
     14 OAD        -0.3000    1.7510    5.5450 oh        1 BF0     -0.236000
     15 CAE        -2.2480    2.6030    4.2120 c1        1 BF0     -0.179000
     16 CAF        -2.6930    2.9830    2.9420 c1        1 BF0     -0.119000
     17 CAG        -1.8430    2.7720    1.7790 c1        1 BF0     -0.048000
     18 CAH        -2.5410    2.4520    0.6170 c2        1 BF0     -0.112000
     19 CAI        -1.6820    1.7150   -0.6640 c3        1 BF0      0.009000
     20 CAR        -0.9730    1.0970   -0.4520 c3        1 BF0      0.073000
     21 OAS        -0.0500    1.2740   -1.5160 oh        1 BF0     -0.328000
     22 CAQ        -1.3550    0.0790   -0.6090 c3        1 BF0     -0.176000
     23 CAP        -0.5660   -1.0970    0.0560 c3        1 BF0     -0.168000
     24 CAO        -0.2340   -0.9500    1.3270 c3        1 BF0      0.019000
     25 NAT         0.7700   -2.2510    1.7570 n         1 BF0     -0.368000
     26 CAU         0.9210   -3.3700    0.8610 c2        1 BF0      0.297000
     27 OAV         0.3290   -3.3810   -0.2050 o         1 BF0     -0.375000
     28 CAW         1.8980   -4.5030    1.2080 c3        1 BF0     -0.183000
     29 CAX         1.2270   -5.8580    0.9380 c3        1 BF0     -0.151000
     30 CAY         2.2110   -6.7810    0.2160 c1        1 BF0      0.297000
     31 OAZ         1.8820   -7.9200   -0.0680 o         1 BF0     -0.339000
     32 OBA         3.5170   -6.3250   -0.0840 o         1 BF0     -0.284000
     33 CBB         4.3400   -7.3050   -0.7000 c3        1 BF0     -0.064000
     34 H1         -1.4360    3.2570   -5.5530 hc        1 BF0      0.108000
     35 H2          0.1180    3.8760   -5.8620 hc        1 BF0      0.108000
     36 H3         -0.3050    5.6770   -4.3780 hc        1 BF0      0.108000
     37 H4         -1.8580    5.0580   -4.0710 hc        1 BF0      0.108000
     38 H5          0.6540    3.6680   -3.5620 hc        1 BF0      0.117000
     39 H6         -1.0710    1.7810   -3.1810 h1        1 BF0      0.085500
     40 H7         -2.1750    2.9470   -3.1560 h1        1 BF0      0.085500
     41 H9          1.0590    3.8710   -1.1620 h1        1 BF0      0.095000
     42 H10         1.2060    2.5040   -1.9900 h1        1 BF0      0.095000
     43 H11         1.8250    1.3360    0.1740 hc        1 BF0      0.098500
     44 H12         1.4730    2.6520    1.0250 hc        1 BF0      0.098500
     45 H13         1.3390   -0.0100    1.4590 h1        1 BF0      0.139000
     46 H14        -0.5390    2.3270    6.1820 ho        1 BF0      0.216000
     47 H15        -2.8390    2.7030    4.9900 ha        1 BF0      0.134000
     48 H16        -3.5800    3.3930    2.8340 ha        1 BF0      0.138000
     49 H17        -3.2770    1.8490    0.8690 ha        1 BF0      0.103500
     50 H18        -2.9380    3.2840    0.2700 ha        1 BF0      0.103500
     51 H19        -2.3320    1.2510   -1.2440 h1        1 BF0      0.108000
     52 H20         0.2540    0.4760   -1.7840 ho        1 BF0      0.222000
     53 H21        -1.3780   -0.0870   -1.5830 hc        1 BF0      0.099000
     54 H22        -2.2820    0.0490   -0.2730 hc        1 BF0      0.099000
     55 H23         0.2600   -1.2360   -0.4590 hc        1 BF0      0.102500
     56 H24        -1.1160   -1.9120   -0.0210 hc        1 BF0      0.102500
     57 H25        -1.0550   -0.9960    1.8710 h1        1 BF0      0.113000
     58 H26         1.1750   -2.2660    2.5810 hn        1 BF0      0.230000
     59 H27         2.7040   -4.4220    0.6550 hc        1 BF0      0.125000
     60 H28         2.1450   -4.4440    2.1570 hc        1 BF0      0.125000
     61 H29         0.4320   -5.7240    0.3760 hc        1 BF0      0.126000
     62 H30         0.9600   -6.2670    1.7910 hc        1 BF0      0.126000
     63 H31         4.3000   -7.1990   -1.6750 h1        1 BF0      0.092333
     64 H32         4.0230   -8.2010   -0.4540 h1        1 BF0      0.092333
     65 H33         5.2670   -7.1910   -0.3960 h1        1 BF0      0.092333
@<TRIPOS>BOND
     1    1    2 1   
     2    1    3 1   
     3    1   34 1   
     4    1   35 1   
     5    2    3 1   
     6    2   36 1   
     7    2   37 1   
     8    3    4 1   
     9    3   38 1   
    10    4    5 1   
    11    4   39 1   
    12    4   40 1   
    13    5    6 1   
    14    5   19 1   
    15    6    7 1   
    16    6   41 1   
    17    6   42 1   
    18    7    8 1   
    19    7   43 1   
    20    7   44 1   
    21    8    9 1   
    22    8   10 1   
    23    8   20 1   
    24    9   12 1   
    25    9   17 1   
    26   10   11 1   
    27   10   24 1   
    28   10   45 1   
    29   11   12 1   
    30   12   13 1   
    31   13   14 1   
    32   13   15 1   
    33   14   46 1   
    34   15   47 1   
    35   16   17 1   
    36   16   48 1   
    37   18   19 1   
    38   18   49 1   
    39   18   50 1   
    40   19   20 1   
    41   19   51 1   
    42   20   21 1   
    43   20   22 1   
    44   21   52 1   
    45   22   23 1   
    46   22   53 1   
    47   22   54 1   
    48   23   24 1   
    49   23   55 1   
    50   23   56 1   
    51   24   25 1   
    52   24   57 1   
    53   25   26 1   
    54   25   58 1   
    55   26   27 1   
    56   26   28 1   
    57   28   29 1   
    58   28   59 1   
    59   28   60 1   
    60   29   30 1   
    61   29   61 1   
    62   29   62 1   
    63   30   31 1   
    64   32   33 1   
    65   33   63 1   
    66   33   64 1   
    67   33   65 1   
@<TRIPOS>SUBSTRUCTURE
     1 BF0         1 TEMP              0 ****  ****    0 ROOT
