@<TRIPOS>MOLECULE
BF0
   66    71     1     0     0
SMALL
bcc


@<TRIPOS>ATOM
      1 CBF        -0.6300    0.1580    0.5870 cx        1 BF0     -0.126900
      2 CBG         0.7810   -0.3450    0.6590 cx        1 BF0     -0.126900
      3 CBE         0.0620    0.0550    1.9200 cx        1 BF0     -0.139700
      4 CBD         0.4270    1.3400    2.6210 c3        1 BF0      0.207800
      5 NAJ         1.3960    1.1500    3.6920 n3        1 BF0     -0.760600
      6 CAK         2.7170    0.7720    3.2110 c3        1 BF0      0.166800
      7 CAL         3.7240    0.4970    4.3310 c3        1 BF0     -0.072400
      8 CAM         3.7030    1.6340    5.3540 c3        1 BF0     -0.035700
      9 CBC         4.0870    2.9270    4.6930 ca        1 BF0     -0.130300
     10 CAN         4.8820    1.4980    6.3560 c3        1 BF0      0.127100
     11 OAA         6.0190    2.1910    5.7440 os        1 BF0     -0.321900
     12 CAB         5.4620    3.1570    4.8900 ca        1 BF0      0.049100
     13 CAC         6.0700    4.2770    4.3300 ca        1 BF0      0.133100
     14 OAD         7.4080    4.4850    4.5410 oh        1 BF0     -0.480100
     15 CAE         5.2410    5.1630    3.6010 ca        1 BF0     -0.171000
     16 CAF         3.8670    4.9660    3.4970 ca        1 BF0     -0.095000
     17 CAG         3.2520    3.8390    4.0770 ca        1 BF0     -0.059300
     18 CAH         1.7870    3.6200    4.1740 c3        1 BF0     -0.063100
     19 CAI         1.3920    2.2160    4.6930 c3        1 BF0      0.174500
     20 CAR         2.2720    1.7520    5.9090 c3        1 BF0      0.181800
     21 OAS         1.8210    0.5120    6.4390 oh        1 BF0     -0.611800
     22 CAQ         2.2380    2.7010    7.1060 c3        1 BF0     -0.067400
     23 CAP         3.1800    2.1740    8.1760 c3        1 BF0     -0.092400
     24 CAO         4.6180    2.2710    7.6750 c3        1 BF0      0.104500
     25 NAT         5.6310    1.8380    8.7070 n4        1 BF0     -0.681800
     26 CAU         5.6070    2.7180    9.9380 c         1 BF0      0.548100
     27 OAV         6.0300    3.8540    9.7930 o         1 BF0     -0.402100
     28 CAW         5.0800    2.0640   11.1790 c3        1 BF0     -0.158400
     29 CAX         5.0950    3.0280   12.3510 c3        1 BF0     -0.137400
     30 CAY         4.8870    2.2630   13.6260 c         1 BF0      0.627100
     31 OAZ         4.9300    1.0390   13.7740 o         1 BF0     -0.537000
     32 OBA         4.6370    3.0690   14.6890 os        1 BF0     -0.417900
     33 CBB         4.4520    2.4230   15.9570 c3        1 BF0      0.123700
     34 H1         -0.8210    1.1570    0.1550 hc        1 BF0      0.075950
     35 H2         -1.4450   -0.5510    0.3560 hc        1 BF0      0.075950
     36 H3          1.5970    0.2960    0.2790 hc        1 BF0      0.075950
     37 H4          0.9810   -1.4160    0.4770 hc        1 BF0      0.075950
     38 H5         -0.2560   -0.7460    2.6160 hc        1 BF0      0.092700
     39 H6         -0.5150    1.7660    3.0720 h1        1 BF0      0.040700
     40 H7          0.8040    2.0820    1.8540 h1        1 BF0      0.040700
     41 H9          3.1500    1.5670    2.5340 h1        1 BF0      0.056700
     42 H10         2.5870   -0.1660    2.5990 h1        1 BF0      0.056700
     43 H11         3.4860   -0.4690    4.8470 hc        1 BF0      0.066200
     44 H12         4.7450    0.4110    3.8770 hc        1 BF0      0.066200
     45 H13         5.2020    0.4380    6.4980 h1        1 BF0      0.102700
     46 H14         7.6900    5.2180    3.9710 ho        1 BF0      0.436000
     47 H15         5.7010    6.0450    3.1280 ha        1 BF0      0.153000
     48 H16         3.2500    5.7050    2.9630 ha        1 BF0      0.154000
     49 H17         1.3020    3.7960    3.1770 hc        1 BF0      0.070700
     50 H18         1.3650    4.3830    4.8840 hc        1 BF0      0.070700
     51 H19         0.3310    2.2940    5.0770 h1        1 BF0      0.079700
     52 H20         1.4780   -0.0360    5.7200 ho        1 BF0      0.444000
     53 H21         2.5300    3.7320    6.7830 hc        1 BF0      0.078700
     54 H22         1.1970    2.7360    7.5220 hc        1 BF0      0.078700
     55 H23         2.9070    1.1110    8.4150 hc        1 BF0      0.071700
     56 H24         3.0620    2.7880    9.1080 hc        1 BF0      0.071700
     57 H25         4.8480    3.3680    7.4720 hx        1 BF0      0.129700
     58 H26         6.5580    1.9030    8.2580 hn        1 BF0      0.464300
     59 H27         5.7090    1.1610   11.4310 hc        1 BF0      0.119200
     60 H28         4.0300    1.7000   10.9950 hc        1 BF0      0.119200
     61 H29         4.2930    3.8060   12.2450 hc        1 BF0      0.107700
     62 H30         6.0790    3.5680   12.4180 hc        1 BF0      0.107700
     63 H31         4.2710    3.2790   16.6540 h1        1 BF0      0.065700
     64 H32         5.3740    1.8560   16.2290 h1        1 BF0      0.065700
     65 H33         3.5740    1.7370   15.9060 h1        1 BF0      0.065700
     66 HAT2        5.4540    0.8650    8.9700 hn        1 BF0      0.464300
@<TRIPOS>BOND
     1    1    2 1   
     2    1    3 1   
     3    1   34 1   
     4    1   35 1   
     5    2    3 1   
     6    2   36 1   
     7    2   37 1   
     8    3    4 1   
     9    3   38 1   
    10    4    5 1   
    11    4   39 1   
    12    4   40 1   
    13    5    6 1   
    14    5   19 1   
    15    6    7 1   
    16    6   41 1   
    17    6   42 1   
    18    7    8 1   
    19    7   43 1   
    20    7   44 1   
    21    8    9 1   
    22    8   10 1   
    23    8   20 1   
    24    9   12 ar  
    25    9   17 ar  
    26   10   11 1   
    27   10   24 1   
    28   10   45 1   
    29   11   12 1   
    30   12   13 ar  
    31   13   14 1   
    32   13   15 ar  
    33   14   46 1   
    34   15   16 ar  
    35   15   47 1   
    36   16   17 ar  
    37   16   48 1   
    38   17   18 1   
    39   18   19 1   
    40   18   49 1   
    41   18   50 1   
    42   19   20 1   
    43   19   51 1   
    44   20   21 1   
    45   20   22 1   
    46   21   52 1   
    47   22   23 1   
    48   22   53 1   
    49   22   54 1   
    50   23   24 1   
    51   23   55 1   
    52   23   56 1   
    53   24   25 1   
    54   24   57 1   
    55   25   26 1   
    56   25   58 1   
    57   25   66 1   
    58   26   27 2   
    59   26   28 1   
    60   28   29 1   
    61   28   59 1   
    62   28   60 1   
    63   29   30 1   
    64   29   61 1   
    65   29   62 1   
    66   30   31 2   
    67   30   32 1   
    68   32   33 1   
    69   33   63 1   
    70   33   64 1   
    71   33   65 1   
@<TRIPOS>SUBSTRUCTURE
     1 BF0         1 TEMP              0 ****  ****    0 ROOT
