@<TRIPOS>MOLECULE
BF0
   66    71     1     0     0
SMALL
bcc


@<TRIPOS>ATOM
      1 CBF        -0.6620    0.1960    0.5940 cx        1 BF0     -0.126900
      2 CBG         0.7430   -0.3230    0.6650 cx        1 BF0     -0.126900
      3 CBE         0.0300    0.0870    1.9270 cx        1 BF0     -0.139700
      4 CBD         0.4110    1.3680    2.6260 c3        1 BF0      0.207800
      5 NAJ         1.3790    1.1680    3.6960 n3        1 BF0     -0.760600
      6 CAK         2.6950    0.7740    3.2140 c3        1 BF0      0.166800
      7 CAL         3.7000    0.4880    4.3320 c3        1 BF0     -0.072400
      8 CAM         3.6940    1.6260    5.3540 c3        1 BF0     -0.035700
      9 CBC         4.0920    2.9140    4.6910 ca        1 BF0     -0.130300
     10 CAN         4.8730    1.4790    6.3540 c3        1 BF0      0.127100
     11 OAA         6.0170    2.1570    5.7400 os        1 BF0     -0.321900
     12 CAB         5.4700    3.1280    4.8860 ca        1 BF0      0.049100
     13 CAC         6.0910    4.2400    4.3230 ca        1 BF0      0.133100
     14 OAD         7.4310    4.4320    4.5320 oh        1 BF0     -0.480100
     15 CAE         5.2710    5.1350    3.5940 ca        1 BF0     -0.171000
     16 CAF         3.8940    4.9540    3.4930 ca        1 BF0     -0.095000
     17 CAG         3.2680    3.8350    4.0750 ca        1 BF0     -0.059300
     18 CAH         1.8000    3.6330    4.1750 c3        1 BF0     -0.063100
     19 CAI         1.3890    2.2360    4.6960 c3        1 BF0      0.174500
     20 CAR         2.2660    1.7620    5.9110 c3        1 BF0      0.181800
     21 OAS         1.8000    0.5280    6.4440 oh        1 BF0     -0.611800
     22 CAQ         2.2440    2.7130    7.1070 c3        1 BF0     -0.067400
     23 CAP         3.1820    2.1760    8.1770 c3        1 BF0     -0.092400
     24 CAO         4.6200    2.2560    7.6730 c3        1 BF0      0.104500
     25 NAT         5.6300    1.8130    8.7040 n4        1 BF0     -0.681800
     26 CAU         5.6190    2.6970    9.9320 c         1 BF0      0.548100
     27 OAV         6.0560    3.8270    9.7840 o         1 BF0     -0.402100
     28 CAW         5.0880    2.0530   11.1770 c3        1 BF0     -0.158400
     29 CAX         5.1180    3.0200   12.3460 c3        1 BF0     -0.137400
     30 CAY         4.9020    2.2610   13.6230 c         1 BF0      0.627100
     31 OAZ         4.9280    1.0380   13.7750 o         1 BF0     -0.537000
     32 OBA         4.6670    3.0740   14.6850 os        1 BF0     -0.417900
     33 CBB         4.4760    2.4340   15.9560 c3        1 BF0      0.123700
     34 H1         -0.8430    1.1970    0.1630 hc        1 BF0      0.075950
     35 H2         -1.4860   -0.5040    0.3660 hc        1 BF0      0.075950
     36 H3          1.5650    0.3090    0.2840 hc        1 BF0      0.075950
     37 H4          0.9300   -1.3960    0.4840 hc        1 BF0      0.075950
     38 H5         -0.2960   -0.7100    2.6240 hc        1 BF0      0.092700
     39 H6          0.7950    2.1040    1.8580 h1        1 BF0      0.040700
     40 H7         -0.5250    1.8060    3.0790 h1        1 BF0      0.040700
     41 H9          2.5530   -0.1640    2.6030 h1        1 BF0      0.056700
     42 H10         3.1360    1.5630    2.5350 h1        1 BF0      0.056700
     43 H11         3.4520   -0.4740    4.8500 hc        1 BF0      0.066200
     44 H12         4.7200    0.3900    3.8780 hc        1 BF0      0.066200
     45 H13         5.1800    0.4140    6.4980 h1        1 BF0      0.102700
     46 H14         7.7210    5.1610    3.9600 ho        1 BF0      0.436000
     47 H15         5.7400    6.0110    3.1190 ha        1 BF0      0.153000
     48 H16         3.2860    5.7000    2.9590 ha        1 BF0      0.154000
     49 H17         1.3880    4.4030    4.8840 hc        1 BF0      0.070700
     50 H18         1.3150    3.8150    3.1780 hc        1 BF0      0.070700
     51 H19         0.3290    2.3260    5.0810 h1        1 BF0      0.079700
     52 H20         1.4500   -0.0170    5.7250 ho        1 BF0      0.444000
     53 H21         2.5480    3.7410    6.7820 hc        1 BF0      0.078700
     54 H22         1.2050    2.7610    7.5250 hc        1 BF0      0.078700
     55 H23         2.8970    1.1170    8.4170 hc        1 BF0      0.071700
     56 H24         3.0720    2.7930    9.1080 hc        1 BF0      0.071700
     57 H25         4.8620    3.3500    7.4670 hx        1 BF0      0.129700
     58 H26         6.5570    1.8660    8.2530 hn        1 BF0      0.464300
     59 H27         5.7060    1.1430   11.4300 hc        1 BF0      0.119200
     60 H28         4.0320    1.7020   10.9970 hc        1 BF0      0.119200
     61 H29         6.1090    3.5470   12.4090 hc        1 BF0      0.107700
     62 H30         4.3260    3.8080   12.2390 hc        1 BF0      0.107700
     63 H31         4.3100    3.2950   16.6510 h1        1 BF0      0.065700
     64 H32         5.3900    1.8530   16.2260 h1        1 BF0      0.065700
     65 H33         3.5870    1.7610   15.9090 h1        1 BF0      0.065700
     66 HAT2        5.4410    0.8430    8.9700 hn        1 BF0      0.464300
@<TRIPOS>BOND
     1    1    2 1   
     2    1    3 1   
     3    1   34 1   
     4    1   35 1   
     5    2    3 1   
     6    2   36 1   
     7    2   37 1   
     8    3    4 1   
     9    3   38 1   
    10    4    5 1   
    11    4   39 1   
    12    4   40 1   
    13    5    6 1   
    14    5   19 1   
    15    6    7 1   
    16    6   41 1   
    17    6   42 1   
    18    7    8 1   
    19    7   43 1   
    20    7   44 1   
    21    8    9 1   
    22    8   10 1   
    23    8   20 1   
    24    9   12 ar  
    25    9   17 ar  
    26   10   11 1   
    27   10   24 1   
    28   10   45 1   
    29   11   12 1   
    30   12   13 ar  
    31   13   14 1   
    32   13   15 ar  
    33   14   46 1   
    34   15   16 ar  
    35   15   47 1   
    36   16   17 ar  
    37   16   48 1   
    38   17   18 1   
    39   18   19 1   
    40   18   49 1   
    41   18   50 1   
    42   19   20 1   
    43   19   51 1   
    44   20   21 1   
    45   20   22 1   
    46   21   52 1   
    47   22   23 1   
    48   22   53 1   
    49   22   54 1   
    50   23   24 1   
    51   23   55 1   
    52   23   56 1   
    53   24   25 1   
    54   24   57 1   
    55   25   26 1   
    56   25   58 1   
    57   25   66 1   
    58   26   27 2   
    59   26   28 1   
    60   28   29 1   
    61   28   59 1   
    62   28   60 1   
    63   29   30 1   
    64   29   61 1   
    65   29   62 1   
    66   30   31 2   
    67   30   32 1   
    68   32   33 1   
    69   33   63 1   
    70   33   64 1   
    71   33   65 1   
@<TRIPOS>SUBSTRUCTURE
     1 BF0         1 TEMP              0 ****  ****    0 ROOT
