@<TRIPOS>MOLECULE
BF0
   66    71     1     0     0
SMALL
bcc


@<TRIPOS>ATOM
      1 CBF        -0.6400    0.1850    0.5820 cx        1 BF0     -0.126900
      2 CBG         0.7670   -0.3260    0.6540 cx        1 BF0     -0.126900
      3 CBE         0.0500    0.0770    1.9160 cx        1 BF0     -0.139700
      4 CBD         0.4220    1.3590    2.6180 c3        1 BF0      0.207800
      5 NAJ         1.3890    1.1620    3.6900 n3        1 BF0     -0.760600
      6 CAK         2.7080    0.7760    3.2100 c3        1 BF0      0.166800
      7 CAL         3.7130    0.4940    4.3300 c3        1 BF0     -0.072400
      8 CAM         3.6980    1.6300    5.3530 c3        1 BF0     -0.035700
      9 CBC         4.0900    2.9210    4.6930 ca        1 BF0     -0.130300
     10 CAN         4.8750    1.4870    6.3560 c3        1 BF0      0.127100
     11 OAA         6.0170    2.1720    5.7450 os        1 BF0     -0.321900
     12 CAB         5.4670    3.1420    4.8920 ca        1 BF0      0.049100
     13 CAC         6.0820    4.2580    4.3320 ca        1 BF0      0.133100
     14 OAD         7.4210    4.4570    4.5430 oh        1 BF0     -0.480100
     15 CAE         5.2590    5.1500    3.6030 ca        1 BF0     -0.171000
     16 CAF         3.8840    4.9610    3.4990 ca        1 BF0     -0.095000
     17 CAG         3.2620    3.8390    4.0770 ca        1 BF0     -0.059300
     18 CAH         1.7960    3.6290    4.1740 c3        1 BF0     -0.063100
     19 CAI         1.3910    2.2280    4.6910 c3        1 BF0      0.174500
     20 CAR         2.2680    1.7560    5.9070 c3        1 BF0      0.181800
     21 OAS         1.8080    0.5190    6.4370 oh        1 BF0     -0.611800
     22 CAQ         2.2390    2.7060    7.1050 c3        1 BF0     -0.067400
     23 CAP         3.1770    2.1720    8.1760 c3        1 BF0     -0.092400
     24 CAO         4.6160    2.2610    7.6760 c3        1 BF0      0.104500
     25 NAT         5.6260    1.8220    8.7080 ny        1 BF0     -0.681800
     26 CAU         5.6080    2.7040    9.9370 c         1 BF0      0.548100
     27 OAV         6.0380    3.8360    9.7910 o         1 BF0     -0.402100
     28 CAW         5.0790    2.0540   11.1800 c3        1 BF0     -0.158400
     29 CAX         5.1030    3.0190   12.3510 c3        1 BF0     -0.137400
     30 CAY         4.8950    2.2560   13.6270 c         1 BF0      0.627100
     31 OAZ         4.9320    1.0330   13.7770 o         1 BF0     -0.537000
     32 OBA         4.6520    3.0640   14.6910 os        1 BF0     -0.417900
     33 CBB         4.4680    2.4210   15.9600 c3        1 BF0      0.123700
     34 H1         -1.4600   -0.5190    0.3500 hc        1 BF0      0.075950
     35 H2         -0.8260    1.1860    0.1520 hc        1 BF0      0.075950
     36 H3          0.9610   -1.3980    0.4710 hc        1 BF0      0.075950
     37 H4          1.5870    0.3100    0.2760 hc        1 BF0      0.075950
     38 H5         -0.2730   -0.7240    2.6110 hc        1 BF0      0.092700
     39 H6          0.8040    2.0990    1.8520 h1        1 BF0      0.040700
     40 H7         -0.5180    1.7900    3.0690 h1        1 BF0      0.040700
     41 H9          2.5730   -0.1620    2.5970 h1        1 BF0      0.056700
     42 H10         3.1460    1.5680    2.5330 h1        1 BF0      0.056700
     43 H11         3.4680   -0.4710    4.8450 hc        1 BF0      0.066200
     44 H12         4.7340    0.4010    3.8770 hc        1 BF0      0.066200
     45 H13         5.1880    0.4240    6.4980 h1        1 BF0      0.102700
     46 H14         7.7080    5.1890    3.9740 ho        1 BF0      0.436000
     47 H15         5.7250    6.0290    3.1310 ha        1 BF0      0.153000
     48 H16         3.2720    5.7050    2.9650 ha        1 BF0      0.154000
     49 H17         1.3120    3.8090    3.1760 hc        1 BF0      0.070700
     50 H18         1.3780    4.3950    4.8840 hc        1 BF0      0.070700
     51 H19         0.3300    2.3110    5.0750 h1        1 BF0      0.079700
     52 H20         1.4620   -0.0260    5.7170 ho        1 BF0      0.444000
     53 H21         1.1980    2.7460    7.5210 hc        1 BF0      0.078700
     54 H22         2.5370    3.7350    6.7830 hc        1 BF0      0.078700
     55 H23         3.0620    2.7870    9.1080 hc        1 BF0      0.071700
     56 H24         2.8970    1.1110    8.4140 hc        1 BF0      0.071700
     57 H25         4.8520    3.3560    7.4720 hx        1 BF0      0.129700
     58 H26         6.5530    1.8800    8.2590 hn        1 BF0      0.464300
     59 H27         5.7020    1.1470   11.4320 hc        1 BF0      0.119200
     60 H28         4.0260    1.6980   10.9990 hc        1 BF0      0.119200
     61 H29         6.0900    3.5540   12.4140 hc        1 BF0      0.107700
     62 H30         4.3040    3.8010   12.2470 hc        1 BF0      0.107700
     63 H31         5.3870    1.8490   16.2300 h1        1 BF0      0.065700
     64 H32         3.5850    1.7400   15.9120 h1        1 BF0      0.065700
     65 H33         4.2930    3.2790   16.6560 h1        1 BF0      0.065700
     66 HAT2        5.4420    0.8500    8.9720 hn        1 BF0      0.464300
@<TRIPOS>BOND
     1    1    2 1   
     2    1    3 1   
     3    1   34 1   
     4    1   35 1   
     5    2    3 1   
     6    2   36 1   
     7    2   37 1   
     8    3    4 1   
     9    3   38 1   
    10    4    5 1   
    11    4   39 1   
    12    4   40 1   
    13    5    6 1   
    14    5   19 1   
    15    6    7 1   
    16    6   41 1   
    17    6   42 1   
    18    7    8 1   
    19    7   43 1   
    20    7   44 1   
    21    8    9 1   
    22    8   10 1   
    23    8   20 1   
    24    9   12 ar  
    25    9   17 ar  
    26   10   11 1   
    27   10   24 1   
    28   10   45 1   
    29   11   12 1   
    30   12   13 ar  
    31   13   14 1   
    32   13   15 ar  
    33   14   46 1   
    34   15   16 ar  
    35   15   47 1   
    36   16   17 ar  
    37   16   48 1   
    38   17   18 1   
    39   18   19 1   
    40   18   49 1   
    41   18   50 1   
    42   19   20 1   
    43   19   51 1   
    44   20   21 1   
    45   20   22 1   
    46   21   52 1   
    47   22   23 1   
    48   22   53 1   
    49   22   54 1   
    50   23   24 1   
    51   23   55 1   
    52   23   56 1   
    53   24   25 1   
    54   24   57 1   
    55   25   26 1   
    56   25   58 1   
    57   25   66 1   
    58   26   27 2   
    59   26   28 1   
    60   28   29 1   
    61   28   59 1   
    62   28   60 1   
    63   29   30 1   
    64   29   61 1   
    65   29   62 1   
    66   30   31 2   
    67   30   32 1   
    68   32   33 1   
    69   33   63 1   
    70   33   64 1   
    71   33   65 1   
@<TRIPOS>SUBSTRUCTURE
     1 BF0         1 TEMP              0 ****  ****    0 ROOT
