@<TRIPOS>MOLECULE
BF0
   65    70     1     0     0
SMALL
bcc


@<TRIPOS>ATOM
      1 CBF        -7.9070    1.3450    0.7290 cx        1 BF0     -0.132900
      2 CBG        -6.9940    1.0440    1.8800 cx        1 BF0     -0.132900
      3 CBE        -6.4520    1.7230    0.6520 cx        1 BF0     -0.126700
      4 CBD        -5.5750    0.9560   -0.3080 c3        1 BF0      0.207800
      5 NAJ        -4.1540    1.1400   -0.0530 n3        1 BF0     -0.755600
      6 CAK        -3.7120    0.4910    1.1730 c3        1 BF0      0.167800
      7 CAL        -2.2270    0.6920    1.4840 c3        1 BF0     -0.072400
      8 CAM        -1.3760    0.4010    0.2490 c3        1 BF0     -0.044700
      9 CBC        -1.5880   -1.0240   -0.1860 ca        1 BF0     -0.123300
     10 CAN         0.1350    0.3510    0.6120 c3        1 BF0      0.143100
     11 OAA         0.3930   -1.0490    1.0140 os        1 BF0     -0.329900
     12 CAB        -0.5590   -1.8210    0.3500 ca        1 BF0      0.031100
     13 CAC        -0.5380   -3.1920    0.1080 ca        1 BF0      0.119100
     14 OAD         0.3990   -4.0570    0.6160 oh        1 BF0     -0.490100
     15 CAE        -1.5620   -3.7270   -0.7080 ca        1 BF0     -0.127000
     16 CAF        -2.5180   -2.9070   -1.3000 ca        1 BF0     -0.124000
     17 CAG        -2.5280   -1.5190   -1.0690 ca        1 BF0     -0.067300
     18 CAH        -3.3800   -0.5440   -1.7960 c3        1 BF0     -0.055100
     19 CAI        -3.3080    0.8890   -1.2220 c3        1 BF0      0.168500
     20 CAR        -1.8370    1.3290   -0.8870 c3        1 BF0      0.185800
     21 OAS        -1.8030    2.7030   -0.5210 oh        1 BF0     -0.600800
     22 CAQ        -0.8660    1.2260   -2.0620 c3        1 BF0     -0.065400
     23 CAP         0.5150    1.6330   -1.5900 c3        1 BF0     -0.085400
     24 CAO         1.0910    0.6270   -0.5820 c3        1 BF0      0.088700
     25 NAT         2.3990    1.0280   -0.1170 n         1 BF0     -0.570900
     26 CAU         3.5340    0.2650   -0.3060 c         1 BF0      0.664100
     27 OAV         3.5030   -0.8120   -0.9330 o         1 BF0     -0.609100
     28 CAW         4.8210    0.8120    0.2870 c3        1 BF0     -0.152400
     29 CAX         5.9850   -0.0920   -0.0530 c3        1 BF0     -0.121400
     30 CAY         7.2370    0.3860    0.6080 c         1 BF0      0.628100
     31 OAZ         7.3850    1.2840    1.4410 o         1 BF0     -0.549000
     32 OBA         8.3460   -0.3050    0.2010 os        1 BF0     -0.436900
     33 CBB         9.5910    0.0720    0.7910 c3        1 BF0      0.125700
     34 H1         -8.2780    0.5110    0.1080 hc        1 BF0      0.071200
     35 H2         -8.6590    2.1470    0.8320 hc        1 BF0      0.071200
     36 H3         -7.0920    1.6270    2.8120 hc        1 BF0      0.071200
     37 H4         -6.7130   -0.0060    2.0800 hc        1 BF0      0.071200
     38 H5         -6.1820    2.7950    0.7250 hc        1 BF0      0.091700
     39 H6         -5.8660   -0.1370   -0.2710 h1        1 BF0      0.036200
     40 H7         -5.7980    1.3300   -1.3490 h1        1 BF0      0.036200
     41 H9         -4.3240    0.9280    2.0130 h1        1 BF0      0.044700
     42 H10        -3.9160   -0.6210    1.1430 h1        1 BF0      0.044700
     43 H11        -2.0330    1.7380    1.8320 hc        1 BF0      0.058200
     44 H12        -1.9410   -0.0060    2.3130 hc        1 BF0      0.058200
     45 H13         0.3680    0.9550    1.5230 h1        1 BF0      0.085700
     46 H14         1.1230   -3.5190    0.9740 ho        1 BF0      0.436000
     47 H15        -1.5640   -4.8110   -0.8920 ha        1 BF0      0.152000
     48 H16        -3.2670   -3.3490   -1.9730 ha        1 BF0      0.136000
     49 H17        -3.0300   -0.5040   -2.8650 hc        1 BF0      0.058200
     50 H18        -4.4460   -0.8920   -1.8120 hc        1 BF0      0.058200
     51 H19        -3.6720    1.5900   -2.0320 h1        1 BF0      0.068700
     52 H20        -2.5210    2.8770    0.1000 ho        1 BF0      0.423000
     53 H21        -0.8610    0.1760   -2.4530 hc        1 BF0      0.060700
     54 H22        -1.2000    1.9130   -2.8810 hc        1 BF0      0.060700
     55 H23         1.2020    1.6880   -2.4760 hc        1 BF0      0.059200
     56 H24         0.4620    2.6580   -1.1350 hc        1 BF0      0.059200
     57 H25         1.2160   -0.3630   -1.1270 h1        1 BF0      0.103700
     58 H26         2.4630    1.8810    0.3820 hn        1 BF0      0.310500
     59 H27         5.0140    1.8450   -0.1080 hc        1 BF0      0.079200
     60 H28         4.7160    0.8930    1.4020 hc        1 BF0      0.079200
     61 H29         5.7750   -1.1440    0.2840 hc        1 BF0      0.099200
     62 H30         6.1410   -0.1340   -1.1640 hc        1 BF0      0.099200
     63 H31         9.8160    1.1400    0.5540 h1        1 BF0      0.051700
     64 H32         9.5470   -0.0730    1.8970 h1        1 BF0      0.051700
     65 H33        10.3280   -0.6190    0.3150 h1        1 BF0      0.051700
@<TRIPOS>BOND
     1    1    2 1   
     2    1    3 1   
     3    1   34 1   
     4    1   35 1   
     5    2    3 1   
     6    2   36 1   
     7    2   37 1   
     8    3    4 1   
     9    3   38 1   
    10    4    5 1   
    11    4   39 1   
    12    4   40 1   
    13    5    6 1   
    14    5   19 1   
    15    6    7 1   
    16    6   41 1   
    17    6   42 1   
    18    7    8 1   
    19    7   43 1   
    20    7   44 1   
    21    8    9 1   
    22    8   10 1   
    23    8   20 1   
    24    9   12 ar  
    25    9   17 ar  
    26   10   11 1   
    27   10   24 1   
    28   10   45 1   
    29   11   12 1   
    30   12   13 ar  
    31   13   14 1   
    32   13   15 ar  
    33   14   46 1   
    34   15   16 ar  
    35   15   47 1   
    36   16   17 ar  
    37   16   48 1   
    38   17   18 1   
    39   18   19 1   
    40   18   49 1   
    41   18   50 1   
    42   19   20 1   
    43   19   51 1   
    44   20   21 1   
    45   20   22 1   
    46   21   52 1   
    47   22   23 1   
    48   22   53 1   
    49   22   54 1   
    50   23   24 1   
    51   23   55 1   
    52   23   56 1   
    53   24   25 1   
    54   24   57 1   
    55   25   26 1   
    56   25   58 1   
    57   26   27 2   
    58   26   28 1   
    59   28   29 1   
    60   28   59 1   
    61   28   60 1   
    62   29   30 1   
    63   29   61 1   
    64   29   62 1   
    65   30   31 2   
    66   30   32 1   
    67   32   33 1   
    68   33   63 1   
    69   33   64 1   
    70   33   65 1   
@<TRIPOS>SUBSTRUCTURE
     1 BF0         1 TEMP              0 ****  ****    0 ROOT
