@<TRIPOS>MOLECULE
BF3
   31    33     1     0     0
SMALL
bcc


@<TRIPOS>ATOM
      1 OAA         0.0980    0.6360   -0.1510 o         1 BF3     -0.266000
      2 OAB         1.2510   -0.7500    4.1500 o         1 BF3     -0.331000
      3 OAD         4.3180   -0.6260    3.8860 oh        1 BF3     -0.186000
      4 CAG        -2.7160   -3.0030    4.3800 c3        1 BF3     -0.298000
      5 CAH        -2.5410   -4.1600    3.5180 c1        1 BF3     -0.003000
      6 CAI         4.6130    0.3510    0.2940 c1        1 BF3     -0.083000
      7 CAJ        -2.4190   -1.6710    3.8620 c1        1 BF3     -0.033000
      8 CAK         3.2550    0.5890   -0.0270 c2        1 BF3     -0.191000
      9 CAL        -1.1000   -0.1690    2.4110 c3        1 BF3      0.040000
     10 CAM         5.0270    0.1430    1.6930 c3        1 BF3      0.009000
     11 CAN         3.9240   -0.2530    2.6600 c2        1 BF3      0.213000
     12 CAO        -2.0110   -3.9740    2.1600 c3        1 BF3     -0.145000
     13 CAP        -1.4970   -2.5980    1.8060 c2        1 BF3      0.126000
     14 CAQ        -1.6440   -1.5470    2.6750 c2        1 BF3     -0.232000
     15 CAR         0.7940    0.3160    0.8130 c2        1 BF3      0.340000
     16 CAS         1.3630   -0.3760    2.9760 c2        1 BF3      0.381000
     17 CAT         2.3010    0.3100    0.9020 c2        1 BF3      0.046000
     18 CAU         2.6280   -0.1190    2.2460 c2        1 BF3     -0.365000
     19 NAV         0.2970   -0.1090    2.0760 n         1 BF3     -0.343000
     20 HOAC        6.3810   -1.0130    0.9310 ho        1 BF3      0.236000
     21 HOAD        3.5330   -0.8010    4.4460 ho        1 BF3      0.263000
     22 HAG        -2.0980   -3.1610    5.3210 hc        1 BF3      0.202000
     23 HAH        -1.1770   -4.7200    2.0020 h1        1 BF3      0.183000
     24 HAI         5.4010    1.1640    2.0520 h1        1 BF3      0.166000
     25 HAJ        -3.7890   -3.0220    4.7550 hc        1 BF3      0.202000
     26 HAK         2.9980    0.9200   -1.0470 ha        1 BF3      0.180000
     27 HAL        -1.6790    0.2880    1.5540 h1        1 BF3      0.132000
     28 HALA       -1.2700    0.4540    3.3400 h1        1 BF3      0.132000
     29 OAC         6.1100   -0.7590    1.8270 oh        1 BF3     -0.289000
     30 FAE        -0.8840   -2.4880    0.6160 f         1 BF3     -0.070000
     31 CLA        -3.3130   -4.4550    1.0700 cl        1 BF3     -0.015000
@<TRIPOS>BOND
     1    1   15 1   
     2    2   16 1   
     3    3   11 1   
     4    3   21 1   
     5    4    5 1   
     6    4    7 1   
     7    4   22 1   
     8    4   25 1   
     9    5   12 1   
    10    6    8 1   
    11    6   10 1   
    12    7   14 1   
    13    8   17 1   
    14    8   26 1   
    15    9   14 1   
    16    9   19 1   
    17    9   27 1   
    18    9   28 1   
    19   10   11 1   
    20   10   24 1   
    21   10   29 1   
    22   11   18 1   
    23   12   13 1   
    24   12   23 1   
    25   12   31 1   
    26   13   14 1   
    27   13   30 1   
    28   15   17 1   
    29   15   19 1   
    30   16   18 1   
    31   16   19 1   
    32   17   18 1   
    33   20   29 1   
@<TRIPOS>SUBSTRUCTURE
     1 BF3         1 TEMP              0 ****  ****    0 ROOT
