@<TRIPOS>MOLECULE
BF3
   31    32     1     0     0
SMALL
bcc


@<TRIPOS>ATOM
      1 OAA         0.3800   -0.5810   -0.2370 o         1 BF3     -0.260000
      2 OAB         1.1260    0.3830    4.2650 o         1 BF3     -0.330000
      3 OAD         4.1950    0.7080    4.1790 oh        1 BF3     -0.187000
      4 CAG        -0.1240   -3.3050    4.1360 c1        1 BF3     -0.162000
      5 CAH        -4.0120   -4.0290    2.6580 c2        1 BF3     -0.169000
      6 CAI         4.8210   -0.0860    0.5830 c1        1 BF3     -0.084000
      7 CAJ        -0.7360   -2.6190    3.3680 c1        1 BF3     -0.140000
      8 CAK         3.4940   -0.1890    0.1010 c2        1 BF3     -0.192000
      9 CAL        -1.0170   -0.3600    2.3590 c3        1 BF3      0.029000
     10 CAM         5.0880    0.4370    1.9350 c3        1 BF3      0.009000
     11 CAN         3.9150    0.4140    2.9000 c2        1 BF3      0.212000
     12 CAO        -2.9920   -3.6710    1.8750 c2        1 BF3     -0.095000
     13 CAP        -2.5060   -2.2810    1.7620 c2        1 BF3      0.122000
     14 CAQ        -1.4440   -1.8040    2.4710 c2        1 BF3     -0.054000
     15 CAR         0.9800   -0.3280    0.8070 c2        1 BF3      0.339000
     16 CAS         1.3510    0.1550    3.0700 c2        1 BF3      0.382000
     17 CAT         2.4640   -0.1090    0.9860 c2        1 BF3      0.046000
     18 CAU         2.6680    0.1860    2.3890 c2        1 BF3     -0.362000
     19 NAV         0.3750   -0.1480    2.0820 n         1 BF3     -0.333000
     20 HOAC        6.5900   -0.7870    1.9150 ho        1 BF3      0.235000
     21 HOAD        3.3660    0.7200    4.7020 ho        1 BF3      0.263000
     22 HAG        -4.5540   -3.2950    3.2690 ha        1 BF3      0.137500
     23 HAH        -4.3630   -5.0670    2.7370 ha        1 BF3      0.137500
     24 HAI         5.3440    1.5430    1.7850 h1        1 BF3      0.166000
     25 HAJ         0.4180   -3.9100    4.8190 ha        1 BF3      0.230000
     26 HAK         3.3300   -0.4090   -0.9660 ha        1 BF3      0.180000
     27 HAL        -1.6080    0.1350    1.5320 h1        1 BF3      0.127500
     28 HALA       -1.2510    0.1490    3.3410 h1        1 BF3      0.127500
     29 OAC         6.2140   -0.1600    2.5520 oh        1 BF3     -0.289000
     30 FAE        -3.1960   -1.4940    0.9030 f         1 BF3     -0.088000
     31 ClA        -2.1540   -4.7990    0.9140 cl        1 BF3      0.002000
@<TRIPOS>BOND
     1    1   15 1   
     2    2   16 1   
     3    3   11 1   
     4    3   21 1   
     5    4    7 1   
     6    4   25 1   
     7    5   12 1   
     8    5   22 1   
     9    5   23 1   
    10    6    8 1   
    11    6   10 1   
    12    7   14 1   
    13    8   17 1   
    14    8   26 1   
    15    9   14 1   
    16    9   19 1   
    17    9   27 1   
    18    9   28 1   
    19   10   11 1   
    20   10   24 1   
    21   10   29 1   
    22   11   18 1   
    23   12   13 1   
    24   12   31 1   
    25   13   14 1   
    26   13   30 1   
    27   15   17 1   
    28   15   19 1   
    29   16   18 1   
    30   16   19 1   
    31   17   18 1   
    32   20   29 1   
@<TRIPOS>SUBSTRUCTURE
     1 BF3         1 TEMP              0 ****  ****    0 ROOT
