@<TRIPOS>MOLECULE
BF3
   31    28     1     0     0
SMALL
bcc


@<TRIPOS>ATOM
      1 OAA        -0.6520    0.5680   -2.5810 o         1 BF3     -0.287000
      2 OAB         0.7210    0.7260    1.8290 o         1 BF3     -0.287000
      3 OAC         5.6760    0.4320   -0.7530 oh        1 BF3     -0.265000
      4 OAD         3.7070    0.6510    1.4060 oh        1 BF3     -0.212000
      5 FAE        -0.8460   -2.0280    1.0180 f         1 BF3     -0.083000
      6 CLA        -2.7340   -3.9130    2.2740 cl        1 BF3      0.009000
      7 CAG        -4.6820   -0.5650    1.2480 c1        1 BF3     -0.116500
      8 CAH        -4.3950   -1.8350    1.7230 c1        1 BF3     -0.097000
      9 CAI         3.8780    0.5070   -2.2900 c1        1 BF3     -0.170000
     10 CAJ        -3.6780    0.2080    0.6870 c1        1 BF3     -0.116500
     11 CAK         2.5270    0.5290   -2.5980 c1        1 BF3     -0.061000
     12 CAL        -1.7410    1.0100    0.1650 c3        1 BF3      0.028000
     13 CAM         4.2870    0.5090   -0.9650 c2        1 BF3      0.017000
     14 CAN         3.3450    0.5320    0.0510 c2        1 BF3      0.143000
     15 CAO        -3.1030   -2.3310    1.6390 c2        1 BF3     -0.107000
     16 CAP        -2.0990   -1.5580    1.0780 c2        1 BF3      0.119000
     17 CAQ        -2.3860   -0.2880    0.6030 c1        1 BF3     -0.138000
     18 CAR         0.0520    0.6260   -1.5920 c1        1 BF3      0.368500
     19 CAS         0.7380    0.6850    0.6150 c1        1 BF3      0.368500
     20 CAT         1.5740    0.5520   -1.5710 c1        1 BF3     -0.116000
     21 CAU         1.9790    0.5540   -0.2600 c1        1 BF3     -0.140000
     22 NAV        -0.4020    0.7600   -0.2440 n3        1 BF3     -0.353000
     23 HOAC        6.0230    1.2500   -0.7590 ho        1 BF3      0.238000
     24 HOAD        3.9930   -0.1350    1.7070 ho        1 BF3      0.244000
     25 HAG        -5.5920   -0.2160    1.3070 ha        1 BF3      0.153500
     26 HAH        -5.1020   -2.3800    2.1180 ha        1 BF3      0.151000
     27 HAI         4.5420    0.4900   -3.0060 ha        1 BF3      0.147000
     28 HAJ        -3.8810    1.1020    0.3530 ha        1 BF3      0.153500
     29 HAK         2.2390    0.5270   -3.5310 ha        1 BF3      0.163000
     30 HAL        -1.7410    1.6430    0.9130 h1        1 BF3      0.123000
     31 HALA       -2.2460    1.3890   -0.5840 h1        1 BF3      0.123000
@<TRIPOS>BOND
     1    1   18 1   
     2    2   19 1   
     3    3   13 1   
     4    3   23 1   
     5    4   14 1   
     6    4   24 1   
     7    5   16 1   
     8    6   15 1   
     9    7   10 1   
    10    7   25 1   
    11    8   15 1   
    12    8   26 1   
    13    9   13 1   
    14    9   27 1   
    15   10   28 1   
    16   11   20 1   
    17   11   29 1   
    18   12   17 1   
    19   12   22 1   
    20   12   30 1   
    21   12   31 1   
    22   13   14 1   
    23   14   21 1   
    24   15   16 1   
    25   16   17 1   
    26   18   22 1   
    27   19   22 1   
    28   20   21 1   
@<TRIPOS>SUBSTRUCTURE
     1 BF3         1 TEMP              0 ****  ****    0 ROOT
