@<TRIPOS>MOLECULE
BF3
   31    33     1     0     0
SMALL
bcc


@<TRIPOS>ATOM
      1 OAA         0.1090    2.0760    1.6030 o         1 BF3     -0.551500
      2 OAB         1.1720   -2.3350    0.5280 o         1 BF3     -0.611500
      3 OAD         4.0100   -1.8520   -0.6980 oh        1 BF3     -0.506100
      4 CAG        -2.9210   -2.1440   -1.2110 ca        1 BF3     -0.140000
      5 CAH        -4.0180   -1.2920   -1.2990 ca        1 BF3     -0.095000
      6 CAI         4.2210    1.7960   -0.3340 ca        1 BF3     -0.135000
      7 CAJ        -1.9400   -1.9260   -0.2460 ca        1 BF3     -0.092000
      8 CAK         2.9900    2.1210    0.2690 ca        1 BF3     -0.050000
      9 CAL        -0.9870   -0.6590    1.6980 c3        1 BF3      0.151300
     10 CAM         4.5380    0.4740   -0.6460 ca        1 BF3      0.128100
     11 CAN         3.6190   -0.5840   -0.3600 ca        1 BF3      0.129100
     12 CAO        -4.1440   -0.2140   -0.4200 ca        1 BF3     -0.028600
     13 CAP        -3.1500    0.0160    0.5600 ca        1 BF3      0.153900
     14 CAQ        -2.0400   -0.8540    0.6420 ca        1 BF3     -0.148300
     15 CAR         0.7470    1.1170    1.1690 c         1 BF3      0.729100
     16 CAS         1.2650   -1.1050    0.6420 c         1 BF3      0.737100
     17 CAT         2.1060    1.1030    0.5420 ca        1 BF3     -0.142600
     18 CAU         2.4170   -0.2520    0.2280 ca        1 BF3     -0.209600
     19 NAV         0.2970   -0.2420    1.2070 n         1 BF3     -0.515400
     20 HOAC        5.8390   -0.7180   -1.3880 ho        1 BF3      0.446000
     21 HOAD        3.2970   -2.4660   -0.4450 ho        1 BF3      0.465000
     22 HAG        -2.8290   -2.9930   -1.9060 ha        1 BF3      0.144000
     23 HAH        -4.7930   -1.4670   -2.0620 ha        1 BF3      0.152000
     24 HAI         4.9480    2.5890   -0.5670 ha        1 BF3      0.166000
     25 HAJ        -1.0700   -2.6020   -0.1740 ha        1 BF3      0.162000
     26 HAK         2.7510    3.1680    0.5110 ha        1 BF3      0.165000
     27 HAL        -1.3340    0.1210    2.4390 h1        1 BF3      0.085200
     28 HALA       -0.8460   -1.6430    2.2360 h1        1 BF3      0.085200
     29 OAC         5.7550    0.2370   -1.2310 oh        1 BF3     -0.484100
     30 FAE        -3.2600    1.0520    1.4220 f         1 BF3     -0.117900
     31 CLA        -5.4970    0.8020   -0.5540 cl        1 BF3     -0.067400
@<TRIPOS>BOND
     1    1   15 2   
     2    2   16 2   
     3    3   11 1   
     4    3   21 1   
     5    4    5 ar  
     6    4    7 ar  
     7    4   22 1   
     8    5   12 ar  
     9    5   23 1   
    10    6    8 ar  
    11    6   10 ar  
    12    6   24 1   
    13    7   14 ar  
    14    7   25 1   
    15    8   17 ar  
    16    8   26 1   
    17    9   14 1   
    18    9   19 1   
    19    9   27 1   
    20    9   28 1   
    21   10   11 ar  
    22   10   29 1   
    23   11   18 ar  
    24   12   13 ar  
    25   12   31 1   
    26   13   14 ar  
    27   13   30 1   
    28   15   17 1   
    29   15   19 1   
    30   16   18 1   
    31   16   19 1   
    32   17   18 ar  
    33   20   29 1   
@<TRIPOS>SUBSTRUCTURE
     1 BF3         1 TEMP              0 ****  ****    0 ROOT
