@<TRIPOS>MOLECULE
BF3
   31    33     1     0     0
SMALL
bcc


@<TRIPOS>ATOM
      1 OAA         0.1010    0.6050   -0.1470 o         1 BF3     -0.270000
      2 OAB         1.3240   -0.6310    4.1810 o         1 BF3     -0.323000
      3 OAD         4.3820   -0.4850    3.8750 oh        1 BF3     -0.188000
      4 CAG        -2.9140   -3.0260    4.1640 c3        1 BF3     -0.208000
      5 CAH        -2.6630   -4.1230    3.2070 c2        1 BF3     -0.088000
      6 CAI         4.6240    0.4000    0.2540 c1        1 BF3     -0.086000
      7 CAJ        -2.3690   -1.7170    3.8420 c1        1 BF3     -0.071000
      8 CAK         3.2590    0.6060   -0.0580 c2        1 BF3     -0.193000
      9 CAL        -1.0590   -0.1640    2.4440 c3        1 BF3      0.042000
     10 CAM         5.0560    0.2370    1.6540 c3        1 BF3      0.009000
     11 CAN         3.9690   -0.1500    2.6440 c2        1 BF3      0.211000
     12 CAO        -1.9660   -3.9130    2.0640 c2        1 BF3     -0.154000
     13 CAP        -1.4190   -2.5880    1.7660 c2        1 BF3      0.227000
     14 CAQ        -1.6000   -1.5500    2.6670 c2        1 BF3     -0.235000
     15 CAR         0.8110    0.3190    0.8180 c2        1 BF3      0.338000
     16 CAS         1.4130   -0.2990    2.9930 c2        1 BF3      0.380000
     17 CAT         2.3200    0.3400    0.8890 c2        1 BF3      0.048000
     18 CAU         2.6680   -0.0450    2.2410 c2        1 BF3     -0.365000
     19 NAV         0.3340   -0.0780    2.0960 n         1 BF3     -0.341000
     20 HOAC        6.4070   -0.9350    0.9110 ho        1 BF3      0.235000
     21 HOAD        3.6040   -0.6580    4.4470 ho        1 BF3      0.264000
     22 HAG        -4.0300   -2.8970    4.3060 hc        1 BF3      0.175000
     23 HAH        -3.0630   -5.1190    3.4580 ha        1 BF3      0.152000
     24 HAI         5.4160    1.2730    1.9810 h1        1 BF3      0.165000
     25 HAJ        -2.5090   -3.3100    5.1830 hc        1 BF3      0.175000
     26 HAK         2.9850    0.9020   -1.0840 ha        1 BF3      0.179000
     27 HAL        -1.6480    0.3220    1.6100 h1        1 BF3      0.130500
     28 HALA       -1.2190    0.4210    3.3990 h1        1 BF3      0.130500
     29 OAC         6.1570   -0.6400    1.8000 oh        1 BF3     -0.289000
     30 FAE        -0.7560   -2.4210    0.6100 f         1 BF3     -0.066000
     31 CLA        -1.7070   -5.1900    0.9730 cl        1 BF3      0.017000
@<TRIPOS>BOND
     1    1   15 1   
     2    2   16 1   
     3    3   11 1   
     4    3   21 1   
     5    4    5 1   
     6    4    7 1   
     7    4   22 1   
     8    4   25 1   
     9    5   12 1   
    10    5   23 1   
    11    6    8 1   
    12    6   10 1   
    13    7   14 1   
    14    8   17 1   
    15    8   26 1   
    16    9   14 1   
    17    9   19 1   
    18    9   27 1   
    19    9   28 1   
    20   10   11 1   
    21   10   24 1   
    22   10   29 1   
    23   11   18 1   
    24   12   13 1   
    25   12   31 1   
    26   13   14 1   
    27   13   30 1   
    28   15   17 1   
    29   15   19 1   
    30   16   18 1   
    31   16   19 1   
    32   17   18 1   
    33   20   29 1   
@<TRIPOS>SUBSTRUCTURE
     1 BF3         1 TEMP              0 ****  ****    0 ROOT
