@<TRIPOS>MOLECULE
BF5
   46    47     1     0     0
SMALL
bcc


@<TRIPOS>ATOM
      1 C1         -1.6930    0.2760   -1.0220 c1        1 BF5     -0.080000
      2 F1         -2.3680    0.1390   -2.1700 f         1 BF5     -0.138000
      3 N1          0.6110    0.3750   -2.2280 n3        1 BF5     -0.236000
      4 O1          0.6920   -0.0490    0.1660 os        1 BF5     -0.198000
      5 C2         -0.1090    0.1890   -1.0200 c2        1 BF5      0.085000
      6 N2          0.4390   -0.5100    2.9340 n3        1 BF5     -0.197000
      7 O2         -3.8610    0.3310    3.1940 oh        1 BF5     -0.283000
      8 C3          0.5580   -0.2490    0.1320 c2        1 BF5     -0.163000
      9 N3          1.9310    0.7540   -4.7100 n3        1 BF5     -0.210000
     10 O3         -2.2730    0.9670    6.4560 o         1 BF5     -0.563000
     11 C4         -2.5340    0.5560    0.4270 c3        1 BF5     -0.033000
     12 N4          0.9000    0.8640   -5.6290 n3        1 BF5     -0.256000
     13 O4         -2.9470   -1.0780    6.1140 o         1 BF5     -0.563000
     14 C5          1.6940   -0.0990    1.3830 c3        1 BF5     -0.033000
     15 C6          1.0080   -0.7320    2.8110 c3        1 BF5      0.000000
     16 C7          0.8750   -2.6200    2.6150 c3        1 BF5     -0.228000
     17 C8         -1.8230   -0.1190    1.7660 c2        1 BF5     -0.236000
     18 C9         -0.4340   -0.5660    1.6970 c2        1 BF5      0.133000
     19 C10        -0.1780   -0.2630    4.2590 c2        1 BF5      0.030000
     20 C11        -1.6660   -0.0450    4.3620 c1        1 BF5     -0.262000
     21 C12        -2.4940    0.0110    3.1160 c1        1 BF5      0.206000
     22 C13         0.6550    1.6570   -2.8390 c3        1 BF5     -0.070000
     23 C14         1.8390    1.8130   -3.7670 c3        1 BF5     -0.084500
     24 C15         1.8870   -0.5280   -4.1000 c3        1 BF5     -0.084500
     25 C16         0.7020   -0.6830   -3.1710 c3        1 BF5     -0.070000
     26 C17        -2.3380   -0.0500    5.7170 c2        1 BF5      0.380000
     27 HO2        -3.9580    1.1300    3.5730 ho        1 BF5      0.290000
     28 H4         -2.7690    1.4870    0.6120 hc        1 BF5      0.087000
     29 H4A        -3.4270    0.1760    0.3010 hc        1 BF5      0.087000
     30 HN4         0.9580    1.6700   -6.0590 hn        1 BF5      0.130000
     31 HN4A        0.9630    0.1850   -6.2410 hn        1 BF5      0.130000
     32 H5          2.4610   -0.6520    1.1330 h1        1 BF5      0.089000
     33 H5A         2.0090    0.8090    1.5650 h1        1 BF5      0.089000
     34 H6          1.6010   -0.5300    3.5670 h1        1 BF5      0.095000
     35 H7          0.1500   -2.8330    1.9900 hc        1 BF5      0.084333
     36 H7A         0.6850   -3.0270    3.4860 hc        1 BF5      0.084333
     37 H7B         1.7200   -2.9730    2.2670 hc        1 BF5      0.084333
     38 H10         0.3680   -0.3010    5.0670 h4        1 BF5      0.181000
     39 H13         0.7100    2.3400   -2.1390 h1        1 BF5      0.090000
     40 H13A       -0.1690    1.7930   -3.3510 h1        1 BF5      0.090000
     41 H14         1.7540    2.6610   -4.2500 h1        1 BF5      0.090250
     42 H14A        2.6600    1.8330   -3.2330 h1        1 BF5      0.090250
     43 H15         2.7110   -0.6630   -3.5880 h1        1 BF5      0.090250
     44 H15A        1.8320   -1.2100   -4.8000 h1        1 BF5      0.090250
     45 H16        -0.1180   -0.7030   -3.7050 h1        1 BF5      0.090000
     46 H16A        0.7880   -1.5310   -2.6880 h1        1 BF5      0.090000
@<TRIPOS>BOND
     1    1    5 1   
     2    1   11 1   
     3    3    5 1   
     4    3   22 1   
     5    3   25 1   
     6    4    8 1   
     7    4   14 1   
     8    5    8 1   
     9    6   15 1   
    10    6   18 1   
    11    6   19 1   
    12    7   21 1   
    13    7   27 1   
    14    8   18 1   
    15    9   12 1   
    16    9   23 1   
    17    9   24 1   
    18   10   26 1   
    19   11   17 1   
    20   11   28 1   
    21   11   29 1   
    22   12   30 1   
    23   12   31 1   
    24   13   26 1   
    25   14   15 1   
    26   14   32 1   
    27   14   33 1   
    28   15   16 1   
    29   15   34 1   
    30   16   35 1   
    31   16   36 1   
    32   16   37 1   
    33   17   18 1   
    34   17   21 1   
    35   19   20 1   
    36   19   38 1   
    37   20   26 1   
    38   22   23 1   
    39   22   39 1   
    40   22   40 1   
    41   23   41 1   
    42   23   42 1   
    43   24   25 1   
    44   24   43 1   
    45   24   44 1   
    46   25   45 1   
    47   25   46 1   
@<TRIPOS>SUBSTRUCTURE
     1 BF5         1 TEMP              0 ****  ****    0 ROOT
