@<TRIPOS>MOLECULE
BF5
   46    49     1     0     0
SMALL
bcc


@<TRIPOS>ATOM
      1 C1         -1.1450   -1.4890    0.3300 c2        1 BF5     -0.030700
      2 F1         -2.0820   -2.4740    0.4230 f         1 BF5     -0.202500
      3 N1         -2.7450    0.3670    0.7780 nh        1 BF5     -0.636400
      4 O1         -0.7090    2.1610    0.2700 os        1 BF5     -0.315900
      5 C2         -1.4620   -0.1540    0.4570 ce        1 BF5      0.170000
      6 N2          1.9760    1.3540    0.0530 na        1 BF5     -0.128100
      7 O2          2.8870   -2.6990   -0.1910 oh        1 BF5     -0.528100
      8 C3         -0.3760    0.8000    0.2850 ce        1 BF5     -0.125900
      9 N3         -5.4280   -0.2050   -0.3320 n3        1 BF5     -0.504400
     10 O3          5.9410    0.2710   -0.4110 o         1 BF5     -0.827300
     11 C4          0.2350   -2.0180    0.1080 c3        1 BF5      0.059100
     12 N4         -6.4200   -0.8130   -1.0690 n3        1 BF5     -0.647600
     13 O4          5.4690   -1.9110   -0.4400 o         1 BF5     -0.827300
     14 C5          0.2920    2.9600    0.8880 c3        1 BF5      0.117400
     15 C6          1.6600    2.7670    0.1950 c3        1 BF5      0.019000
     16 C7          1.6630    3.5200   -1.1350 c3        1 BF5     -0.110100
     17 C8          1.2970   -0.9910    0.0340 cd        1 BF5     -0.245300
     18 C9          0.9430    0.4050    0.1140 cd        1 BF5      0.111700
     19 C10         3.2880    0.9500   -0.0980 cd        1 BF5      0.005700
     20 C11         3.6580   -0.3670   -0.1890 cc        1 BF5     -0.282600
     21 C12         2.6250   -1.3680   -0.1170 cc        1 BF5      0.252100
     22 C13        -3.7050   -0.4520    1.4800 c3        1 BF5      0.201800
     23 C14        -4.7820   -1.1400    0.6130 c3        1 BF5      0.109800
     24 C15        -4.3950    0.5020   -1.1230 c3        1 BF5      0.109800
     25 C16        -3.3610    1.2110   -0.2250 c3        1 BF5      0.201800
     26 C17         5.1280   -0.6920   -0.3590 c         1 BF5      0.932200
     27 HO2         3.8570   -2.8340   -0.2970 ho        1 BF5      0.491000
     28 H4          0.4810   -2.7450    0.9350 hc        1 BF5      0.047200
     29 H4A         0.2370   -2.6210   -0.8450 hc        1 BF5      0.047200
     30 HN4        -7.0240   -0.0760   -1.4090 hn        1 BF5      0.327800
     31 HN4A       -6.0540   -1.2960   -1.8830 hn        1 BF5      0.327800
     32 H5         -0.0660    4.0130    0.7530 h1        1 BF5      0.050700
     33 H5A         0.3710    2.7090    1.9770 h1        1 BF5      0.050700
     34 H6          2.4530    3.2260    0.8590 h1        1 BF5      0.055700
     35 H7          0.8150    3.1780   -1.7770 hc        1 BF5      0.045033
     36 H7A         1.5450    4.6120   -0.9330 hc        1 BF5      0.045033
     37 H7B         2.6220    3.3560   -1.6830 hc        1 BF5      0.045033
     38 H10         4.0560    1.7480   -0.1480 h4        1 BF5      0.181000
     39 H13        -3.1780   -1.2520    2.0690 h1        1 BF5      0.060200
     40 H13A       -4.2260    0.2370    2.2060 h1        1 BF5      0.060200
     41 H14        -5.5760   -1.5340    1.3060 h1        1 BF5      0.040700
     42 H14A       -4.3150   -2.0190    0.0820 h1        1 BF5      0.040700
     43 H15        -3.8530   -0.1940   -1.8270 h1        1 BF5      0.040700
     44 H15A       -4.9060    1.2910   -1.7410 h1        1 BF5      0.040700
     45 H16        -3.8770    2.0460    0.3290 h1        1 BF5      0.060200
     46 H16A       -2.5750    1.6610   -0.8920 h1        1 BF5      0.060200
@<TRIPOS>BOND
     1    1    2 1   
     2    1    5 2   
     3    1   11 1   
     4    3    5 1   
     5    3   22 1   
     6    3   25 1   
     7    4    8 1   
     8    4   14 1   
     9    5    8 1   
    10    6   15 1   
    11    6   18 1   
    12    6   19 1   
    13    7   21 1   
    14    7   27 1   
    15    8   18 2   
    16    9   12 1   
    17    9   23 1   
    18    9   24 1   
    19   10   26 1   
    20   11   17 1   
    21   11   28 1   
    22   11   29 1   
    23   12   30 1   
    24   12   31 1   
    25   13   26 1   
    26   14   15 1   
    27   14   32 1   
    28   14   33 1   
    29   15   16 1   
    30   15   34 1   
    31   16   35 1   
    32   16   36 1   
    33   16   37 1   
    34   17   18 1   
    35   17   21 2   
    36   19   20 2   
    37   19   38 1   
    38   20   21 1   
    39   20   26 1   
    40   22   23 1   
    41   22   39 1   
    42   22   40 1   
    43   23   41 1   
    44   23   42 1   
    45   24   25 1   
    46   24   43 1   
    47   24   44 1   
    48   25   45 1   
    49   25   46 1   
@<TRIPOS>SUBSTRUCTURE
     1 BF5         1 TEMP              0 ****  ****    0 ROOT
