@<TRIPOS>MOLECULE
BF5
   47    50     1     0     0
SMALL
bcc


@<TRIPOS>ATOM
      1 C1          0.3270    0.6230   -0.2160 c2        1 BF5     -0.060700
      2 F1         -0.3540    0.7660   -1.3900 f         1 BF5     -0.222500
      3 N1          2.5760    0.6310   -1.2900 nh        1 BF5     -0.616400
      4 O1          3.7050    0.1860    1.1870 os        1 BF5     -0.328900
      5 C2          1.7030    0.5350   -0.1620 ce        1 BF5      0.169000
      6 N2          2.1610   -0.1060    3.5160 na        1 BF5     -0.111100
      7 O2         -1.9860   -0.0150    3.2590 oh        1 BF5     -0.521100
      8 C3          2.3090    0.2990    1.1270 ce        1 BF5     -0.174900
      9 N3          2.2300   -0.9340   -3.7580 n3        1 BF5     -0.479400
     10 O3         -0.0310   -0.9640    6.9170 o         1 BF5     -0.809800
     11 C4         -0.5610    0.6130    0.9840 c3        1 BF5      0.067100
     12 N4          1.4790   -1.8450   -4.5640 nz        1 BF5     -0.628400
     13 O4         -1.9860   -0.7240    5.8510 o         1 BF5     -0.809800
     14 C5          4.2230    0.7020    2.4100 c3        1 BF5      0.119400
     15 C6          3.6140   -0.0380    3.6220 c3        1 BF5      0.013000
     16 C7          4.2680   -1.4130    3.7620 c3        1 BF5     -0.109100
     17 C8          0.1130    0.2060    2.2360 cd        1 BF5     -0.265300
     18 C9          1.5440    0.1320    2.2850 cd        1 BF5      0.144700
     19 C10         1.3960   -0.3580    4.6390 cd        1 BF5      0.009700
     20 C11         0.0250   -0.3740    4.6140 cc        1 BF5     -0.282600
     21 C12        -0.6400   -0.0680    3.3790 cc        1 BF5      0.281100
     22 C13         2.1410    1.2710   -2.4970 c3        1 BF5      0.208800
     23 C14         1.4980    0.3360   -3.5640 c3        1 BF5      0.058300
     24 C15         2.6600   -1.5610   -2.4910 c3        1 BF5      0.058300
     25 C16         3.3730   -0.5380   -1.5650 c3        1 BF5      0.208800
     26 C17        -0.7200   -0.7120    5.8960 c         1 BF5      0.934200
     27 HO2        -2.4080   -0.2300    4.1290 ho        1 BF5      0.504000
     28 H4         -1.0020    1.6430    1.1150 hc        1 BF5      0.051200
     29 H4A        -1.4310   -0.0770    0.7880 hc        1 BF5      0.051200
     30 HN4         2.0720   -2.6700   -4.7300 hn        1 BF5      0.450800
     31 HN4A        1.2890   -1.3780   -5.4610 hn        1 BF5      0.450800
     32 H5          5.3250    0.5070    2.3520 h1        1 BF5      0.058700
     33 H5A         4.0210    1.8010    2.4830 h1        1 BF5      0.058700
     34 H6          3.8540    0.5620    4.5510 h1        1 BF5      0.068700
     35 H7          3.8060   -1.9900    4.5990 hc        1 BF5      0.049033
     36 H7A         4.1580   -1.9960    2.8160 hc        1 BF5      0.049033
     37 H7B         5.3540   -1.2740    3.9770 hc        1 BF5      0.049033
     38 H10         1.9380   -0.5610    5.5860 h4        1 BF5      0.194000
     39 H13         3.0490    1.7480   -2.9660 h1        1 BF5      0.090950
     40 H13A        1.3850    2.0730   -2.2690 h1        1 BF5      0.090950
     41 H14         1.5200    0.8860   -4.5470 h1        1 BF5      0.074200
     42 H14A        0.4220    0.1640   -3.2660 h1        1 BF5      0.074200
     43 H15         3.3970   -2.3740   -2.7390 h1        1 BF5      0.074200
     44 H15A        1.7950   -2.0070   -1.9180 h1        1 BF5      0.074200
     45 H16         3.6270   -1.0800   -0.6090 h1        1 BF5      0.090950
     46 H16A        4.3290   -0.2040   -2.0580 h1        1 BF5      0.090950
     47 H43         0.5870   -2.1460   -4.1410 hn        1 BF5      0.450800
@<TRIPOS>BOND
     1    1    2 1   
     2    1    5 2   
     3    1   11 1   
     4    3    5 1   
     5    3   22 1   
     6    3   25 1   
     7    4    8 1   
     8    4   14 1   
     9    5    8 1   
    10    6   15 1   
    11    6   18 1   
    12    6   19 1   
    13    7   21 1   
    14    7   27 1   
    15    8   18 2   
    16    9   12 1   
    17    9   23 1   
    18    9   24 1   
    19   10   26 1   
    20   11   17 1   
    21   11   28 1   
    22   11   29 1   
    23   12   30 1   
    24   12   31 1   
    25   12   47 1   
    26   13   26 1   
    27   14   15 1   
    28   14   32 1   
    29   14   33 1   
    30   15   16 1   
    31   15   34 1   
    32   16   35 1   
    33   16   36 1   
    34   16   37 1   
    35   17   18 1   
    36   17   21 2   
    37   19   20 2   
    38   19   38 1   
    39   20   21 1   
    40   20   26 1   
    41   22   23 1   
    42   22   39 1   
    43   22   40 1   
    44   23   41 1   
    45   23   42 1   
    46   24   25 1   
    47   24   43 1   
    48   24   44 1   
    49   25   45 1   
    50   25   46 1   
@<TRIPOS>SUBSTRUCTURE
     1 BF5         1 TEMP              0 ****  ****    0 ROOT
