@<TRIPOS>MOLECULE
BF5
   47    50     1     0     0
SMALL
bcc


@<TRIPOS>ATOM
      1 C1          0.3260    0.6150   -0.2230 c2        1 BF5     -0.060700
      2 F1         -0.3530    0.7510   -1.3980 f         1 BF5     -0.222500
      3 N1          2.5770    0.6280   -1.2910 nh        1 BF5     -0.616400
      4 O1          3.7030    0.1970    1.1900 os        1 BF5     -0.328900
      5 C2          1.7020    0.5330   -0.1650 ce        1 BF5      0.169000
      6 N2          2.1540   -0.0940    3.5160 na        1 BF5     -0.111100
      7 O2         -1.9920   -0.0220    3.2500 oh        1 BF5     -0.521100
      8 C3          2.3060    0.3040    1.1260 ce        1 BF5     -0.174900
      9 N3          2.2410   -0.9480   -3.7540 n3        1 BF5     -0.479400
     10 O3         -0.0410   -0.9510    6.9150 o         1 BF5     -0.809800
     11 C4         -0.5650    0.6060    0.9760 c3        1 BF5      0.067100
     12 N4          1.4960   -1.8660   -4.5570 n4        1 BF5     -0.628400
     13 O4         -1.9950   -0.7230    5.8440 o         1 BF5     -0.809800
     14 C5          4.2160    0.7180    2.4120 c3        1 BF5      0.119400
     15 C6          3.6070   -0.0210    3.6240 c3        1 BF5      0.013000
     16 C7          4.2660   -1.3910    3.7700 c3        1 BF5     -0.109100
     17 C8          0.1080    0.2050    2.2310 cd        1 BF5     -0.265300
     18 C9          1.5400    0.1370    2.2830 cd        1 BF5      0.144700
     19 C10         1.3880   -0.3470    4.6380 cd        1 BF5      0.009700
     20 C11         0.0170   -0.3680    4.6100 cc        1 BF5     -0.282600
     21 C12        -0.6460   -0.0680    3.3730 cc        1 BF5      0.281100
     22 C13         2.1420    1.2610   -2.5020 c3        1 BF5      0.208800
     23 C14         1.5050    0.3190   -3.5670 c3        1 BF5      0.058300
     24 C15         2.6720   -1.5680   -2.4830 c3        1 BF5      0.058300
     25 C16         3.3790   -0.5380   -1.5600 c3        1 BF5      0.208800
     26 C17        -0.7290   -0.7060    5.8920 c         1 BF5      0.934200
     27 HO2        -2.4150   -0.2350    4.1200 ho        1 BF5      0.504000
     28 H4         -1.4330   -0.0880    0.7800 hc        1 BF5      0.051200
     29 H4A        -1.0100    1.6340    1.1020 hc        1 BF5      0.051200
     30 HN4         1.3050   -1.4040   -5.4570 hn        1 BF5      0.450800
     31 HN4A        2.0920   -2.6890   -4.7180 hn        1 BF5      0.450800
     32 H5          4.0080    1.8170    2.4820 h1        1 BF5      0.058700
     33 H5A         5.3180    0.5280    2.3570 h1        1 BF5      0.058700
     34 H6          3.8420    0.5840    4.5530 h1        1 BF5      0.068700
     35 H7          5.3510   -1.2480    3.9870 hc        1 BF5      0.049033
     36 H7A         4.1610   -1.9780    2.8260 hc        1 BF5      0.049033
     37 H7B         3.8050   -1.9680    4.6080 hc        1 BF5      0.049033
     38 H10         1.9290   -0.5430    5.5870 h4        1 BF5      0.194000
     39 H13         1.3810    2.0620   -2.2790 h1        1 BF5      0.090950
     40 H13A        3.0490    1.7400   -2.9720 h1        1 BF5      0.090950
     41 H14         0.4280    0.1440   -3.2700 h1        1 BF5      0.074200
     42 H14A        1.5270    0.8650   -4.5520 h1        1 BF5      0.074200
     43 H15         1.8080   -2.0160   -1.9110 h1        1 BF5      0.074200
     44 H15A        3.4130   -2.3800   -2.7260 h1        1 BF5      0.074200
     45 H16         4.3350   -0.2030   -2.0530 h1        1 BF5      0.090950
     46 H16A        3.6340   -1.0760   -0.6020 h1        1 BF5      0.090950
     47 H43         0.6040   -2.1680   -4.1350 hn        1 BF5      0.450800
@<TRIPOS>BOND
     1    1    2 1   
     2    1    5 2   
     3    1   11 1   
     4    3    5 1   
     5    3   22 1   
     6    3   25 1   
     7    4    8 1   
     8    4   14 1   
     9    5    8 1   
    10    6   15 1   
    11    6   18 1   
    12    6   19 1   
    13    7   21 1   
    14    7   27 1   
    15    8   18 2   
    16    9   12 1   
    17    9   23 1   
    18    9   24 1   
    19   10   26 1   
    20   11   17 1   
    21   11   28 1   
    22   11   29 1   
    23   12   30 1   
    24   12   31 1   
    25   12   47 1   
    26   13   26 1   
    27   14   15 1   
    28   14   32 1   
    29   14   33 1   
    30   15   16 1   
    31   15   34 1   
    32   16   35 1   
    33   16   36 1   
    34   16   37 1   
    35   17   18 1   
    36   17   21 2   
    37   19   20 2   
    38   19   38 1   
    39   20   21 1   
    40   20   26 1   
    41   22   23 1   
    42   22   39 1   
    43   22   40 1   
    44   23   41 1   
    45   23   42 1   
    46   24   25 1   
    47   24   43 1   
    48   24   44 1   
    49   25   45 1   
    50   25   46 1   
@<TRIPOS>SUBSTRUCTURE
     1 BF5         1 TEMP              0 ****  ****    0 ROOT
