@<TRIPOS>MOLECULE
BF5
   47    50     1     0     0
SMALL
bcc


@<TRIPOS>ATOM
      1 C1          0.3270    0.6260   -0.2180 c2        1 BF5     -0.060700
      2 F1         -0.3520    0.7690   -1.3920 f         1 BF5     -0.222500
      3 N1          2.5770    0.6300   -1.2890 nh        1 BF5     -0.616400
      4 O1          3.7030    0.1850    1.1890 os        1 BF5     -0.328900
      5 C2          1.7030    0.5360   -0.1630 ce        1 BF5      0.169000
      6 N2          2.1560   -0.1060    3.5160 na        1 BF5     -0.111100
      7 O2         -1.9910   -0.0090    3.2550 oh        1 BF5     -0.521100
      8 C3          2.3070    0.2990    1.1270 ce        1 BF5     -0.174900
      9 N3          2.2300   -0.9370   -3.7570 n3        1 BF5     -0.479400
     10 O3         -0.0410   -0.9620    6.9140 o         1 BF5     -0.809800
     11 C4         -0.5620    0.6180    0.9810 c3        1 BF5      0.067100
     12 N4          1.4790   -1.8480   -4.5620 n4        1 BF5     -0.628400
     13 O4         -1.9950   -0.7190    5.8470 o         1 BF5     -0.809800
     14 C5          4.2210    0.6990    2.4130 c3        1 BF5      0.119400
     15 C6          3.6090   -0.0400    3.6230 c3        1 BF5      0.013000
     16 C7          4.2610   -1.4150    3.7640 c3        1 BF5     -0.109100
     17 C8          0.1100    0.2100    2.2340 cd        1 BF5     -0.265300
     18 C9          1.5410    0.1330    2.2840 cd        1 BF5      0.144700
     19 C10         1.3900   -0.3580    4.6380 cd        1 BF5      0.009700
     20 C11         0.0180   -0.3720    4.6110 cc        1 BF5     -0.282600
     21 C12        -0.6450   -0.0640    3.3760 cc        1 BF5      0.281100
     22 C13         2.1440    1.2690   -2.4980 c3        1 BF5      0.208800
     23 C14         1.5010    0.3340   -3.5640 c3        1 BF5      0.058300
     24 C15         2.6580   -1.5640   -2.4880 c3        1 BF5      0.058300
     25 C16         3.3730   -0.5400   -1.5630 c3        1 BF5      0.208800
     26 C17        -0.7290   -0.7090    5.8930 c         1 BF5      0.934200
     27 HO2        -2.4140   -0.2230    4.1240 ho        1 BF5      0.504000
     28 H4         -1.0010    1.6490    1.1120 hc        1 BF5      0.051200
     29 H4A        -1.4340   -0.0700    0.7840 hc        1 BF5      0.051200
     30 HN4         1.2900   -1.3820   -5.4600 hn        1 BF5      0.450800
     31 HN4A        2.0700   -2.6740   -4.7270 hn        1 BF5      0.450800
     32 H5          4.0190    1.7990    2.4860 h1        1 BF5      0.058700
     33 H5A         5.3220    0.5030    2.3550 h1        1 BF5      0.058700
     34 H6          3.8490    0.5600    4.5530 h1        1 BF5      0.068700
     35 H7          4.1520   -1.9980    2.8180 hc        1 BF5      0.049033
     36 H7A         5.3470   -1.2780    3.9800 hc        1 BF5      0.049033
     37 H7B         3.7980   -1.9920    4.6000 hc        1 BF5      0.049033
     38 H10         1.9310   -0.5610    5.5860 h4        1 BF5      0.194000
     39 H13         1.3890    2.0730   -2.2720 h1        1 BF5      0.090950
     40 H13A        3.0540    1.7440   -2.9670 h1        1 BF5      0.090950
     41 H14         0.4240    0.1640   -3.2670 h1        1 BF5      0.074200
     42 H14A        1.5250    0.8830   -4.5480 h1        1 BF5      0.074200
     43 H15         3.3950   -2.3780   -2.7350 h1        1 BF5      0.074200
     44 H15A        1.7920   -2.0080   -1.9160 h1        1 BF5      0.074200
     45 H16         3.6250   -1.0830   -0.6070 h1        1 BF5      0.090950
     46 H16A        4.3300   -0.2090   -2.0550 h1        1 BF5      0.090950
     47 H43         0.5860   -2.1470   -4.1400 hn        1 BF5      0.450800
@<TRIPOS>BOND
     1    1    2 1   
     2    1    5 2   
     3    1   11 1   
     4    3    5 1   
     5    3   22 1   
     6    3   25 1   
     7    4    8 1   
     8    4   14 1   
     9    5    8 1   
    10    6   15 1   
    11    6   18 1   
    12    6   19 1   
    13    7   21 1   
    14    7   27 1   
    15    8   18 2   
    16    9   12 1   
    17    9   23 1   
    18    9   24 1   
    19   10   26 1   
    20   11   17 1   
    21   11   28 1   
    22   11   29 1   
    23   12   30 1   
    24   12   31 1   
    25   12   47 1   
    26   13   26 1   
    27   14   15 1   
    28   14   32 1   
    29   14   33 1   
    30   15   16 1   
    31   15   34 1   
    32   16   35 1   
    33   16   36 1   
    34   16   37 1   
    35   17   18 1   
    36   17   21 2   
    37   19   20 2   
    38   19   38 1   
    39   20   21 1   
    40   20   26 1   
    41   22   23 1   
    42   22   39 1   
    43   22   40 1   
    44   23   41 1   
    45   23   42 1   
    46   24   25 1   
    47   24   43 1   
    48   24   44 1   
    49   25   45 1   
    50   25   46 1   
@<TRIPOS>SUBSTRUCTURE
     1 BF5         1 TEMP              0 ****  ****    0 ROOT
