@<TRIPOS>MOLECULE
BFA
   40    42     1     0     0
SMALL
bcc


@<TRIPOS>ATOM
      1 BR         -0.8760   -1.8870    2.3330 br        1 BFA     -0.001700
      2 C4          3.8270   -0.0970   -0.1230 ce        1 BFA     -0.150400
      3 C3          5.3170   -0.0030   -0.3340 c3        1 BFA     -0.039000
      4 C2          6.0490   -0.7050    0.7670 c2        1 BFA     -0.121300
      5 C1          5.4620   -0.5990    1.9490 c1        1 BFA     -0.130800
      6 N9          3.7190    0.1590    3.5140 na        1 BFA     -0.593800
      7 C8          1.8270    0.8000    4.8870 ce        1 BFA     -0.227000
      8 C7          0.4030    1.1020    4.8850 ce        1 BFA     -0.092100
      9 C6         -0.2590    0.3040    4.0480 c1        1 BFA      0.006200
     10 C5          0.0740   -0.4650    3.0210 ce        1 BFA     -0.171000
     11 C12         3.2650   -0.2930    1.1130 cd        1 BFA      0.138600
     12 C11         4.2080   -0.2440    2.2860 cd        1 BFA      0.099900
     13 C13         2.3510    0.2740    3.7250 cd        1 BFA      0.054400
     14 C14         1.4620   -0.1720    2.5660 cc        1 BFA      0.533900
     15 N10         1.8840   -0.3880    1.3550 nd        1 BFA     -0.524300
     16 OD1         3.4750    0.4380   -2.4110 o         1 BFA     -0.533100
     17 ND1         7.4970   -0.5030   -3.6090 n3        1 BFA     -0.760200
     18 CD2         6.1330   -0.9640   -3.8100 cx        1 BFA      0.051800
     19 CD3         7.1200   -0.9700   -4.9510 cx        1 BFA      0.295700
     20 ND2         6.9700   -0.0540   -6.0690 n3        1 BFA     -0.738600
     21 CD7         8.2100    0.1390   -6.7850 c3        1 BFA      0.162600
     22 CD8         5.8560   -0.4020   -6.9200 c3        1 BFA      0.162600
     23 H3          5.5920    1.0830   -0.4360 hc        1 BFA      0.096700
     24 H2          5.5820   -0.5000   -1.3110 hc        1 BFA      0.096700
     25 H1          6.9240   -1.3200    0.5340 ha        1 BFA      0.163000
     26 H8          4.3590    0.4240    4.2280 hn        1 BFA      0.464800
     27 H7          2.4420    1.0930    5.7450 ha        1 BFA      0.154000
     28 H6          0.0050    1.9480    5.4530 ha        1 BFA      0.170000
     29 HN1         1.9110   -0.1410   -1.2250 h4        1 BFA      0.037200
     30 HD21        7.6020    0.4870   -3.4990 hn        1 BFA      0.359800
     31 HD22        5.8770   -1.9190   -3.3060 h1        1 BFA      0.087700
     32 HD31        5.2810   -0.2490   -3.8050 h1        1 BFA      0.087700
     33 HD32        7.6170   -1.9350   -5.2290 h2        1 BFA      0.083700
     34 HD71        9.0040    0.4560   -6.0590 h1        1 BFA      0.034700
     35 HD72        8.5620   -0.7850   -7.3200 h1        1 BFA      0.034700
     36 HD73        8.0600    0.9540   -7.5410 h1        1 BFA      0.034700
     37 HD81        5.7130    0.4200   -7.6700 h1        1 BFA      0.034700
     38 HD82        4.9310   -0.4870   -6.2910 h1        1 BFA      0.034700
     39 HD83        6.0050   -1.3690   -7.4740 h1        1 BFA      0.034700
     40 CD1         2.9970    0.0790   -1.3320 c         1 BFA      0.570100
@<TRIPOS>BOND
     1    1   10 1   
     2    2    3 1   
     3    2   11 2   
     4    2   40 1   
     5    3    4 1   
     6    3   23 1   
     7    3   24 1   
     8    4    5 2   
     9    4   25 1   
    10    5   12 2   
    11    6   12 1   
    12    6   13 1   
    13    6   26 1   
    14    7    8 1   
    15    7   13 2   
    16    7   27 1   
    17    8    9 2   
    18    8   28 1   
    19    9   10 2   
    20   10   14 1   
    21   11   12 1   
    22   11   15 1   
    23   13   14 1   
    24   14   15 2   
    25   16   40 2   
    26   17   18 1   
    27   17   19 1   
    28   17   30 1   
    29   18   19 1   
    30   18   31 1   
    31   18   32 1   
    32   19   20 1   
    33   19   33 1   
    34   20   21 1   
    35   20   22 1   
    36   21   34 1   
    37   21   35 1   
    38   21   36 1   
    39   22   37 1   
    40   22   38 1   
    41   22   39 1   
    42   29   40 1   
@<TRIPOS>SUBSTRUCTURE
     1 BFA         1 TEMP              0 ****  ****    0 ROOT
