@<TRIPOS>MOLECULE
BFA
   40    36     1     0     0
SMALL
bcc


@<TRIPOS>ATOM
      1 BR         -4.9480   -0.4140    1.1240 br        1 BFA      0.088000
      2 C4          0.6760   -0.3590    1.1630 c1        1 BFA     -0.094000
      3 C3          2.0370   -0.3310    1.4210 c1        1 BFA     -0.099000
      4 C2          2.4940   -0.3430    2.7350 c1        1 BFA     -0.099000
      5 C1          1.5470   -0.3840    3.8400 c1        1 BFA     -0.084000
      6 N9         -0.7230   -0.4160    4.6360 n1        1 BFA     -0.086000
      7 C8         -2.9500   -0.4030    5.4580 c1        1 BFA     -0.099000
      8 C7         -4.3100   -0.3860    5.2130 c1        1 BFA     -0.099000
      9 C6         -4.7890   -0.3740    3.8720 c1        1 BFA     -0.085000
     10 C5         -3.8990   -0.3790    2.8230 c2        1 BFA     -0.146000
     11 C12        -0.2790   -0.4000    2.2720 c1        1 BFA     -0.001000
     12 C11         0.1800   -0.4120    3.5830 c1        1 BFA     -0.028000
     13 C13        -2.0490   -0.4080    4.3900 c1        1 BFA     -0.025000
     14 C14        -2.5170   -0.3960    3.0750 c2        1 BFA     -0.002000
     15 N10        -1.6230   -0.3930    2.0250 n2        1 BFA     -0.098000
     16 CD1         0.1440   -0.2040   -0.2430 c2        1 BFA      0.354000
     17 OD1        -1.1090   -0.2330   -0.4530 o         1 BFA     -0.370000
     18 ND1         1.0780   -0.1820   -1.3700 n         1 BFA     -0.356000
     19 CD2         0.6100    0.0590   -2.6710 c3        1 BFA     -0.033000
     20 CD3         1.7810    0.0970   -3.6140 c3        1 BFA     -0.083000
     21 ND2         1.4250    0.8860   -4.8420 n3        1 BFA     -0.264000
     22 CD7         2.3600    1.9080   -5.0150 c3        1 BFA     -0.121000
     23 CD8         1.4550    0.0130   -5.9980 c3        1 BFA     -0.121000
     24 H3          2.6550   -0.3050    0.7050 ha        1 BFA      0.153500
     25 H2          3.3980   -0.3250    2.9060 ha        1 BFA      0.153500
     26 H1          1.8510   -0.3930    4.7100 ha        1 BFA      0.158000
     27 H8         -2.6010   -0.4120    6.4230 ha        1 BFA      0.153500
     28 H7         -4.9280   -0.3810    5.9440 ha        1 BFA      0.153500
     29 H6         -5.7470   -0.3630    3.6960 ha        1 BFA      0.155000
     30 HN1         1.9850   -0.2390   -1.2130 hn        1 BFA      0.234000
     31 HD21        0.1220    0.9590   -2.6970 h1        1 BFA      0.107000
     32 HD22        0.0010   -0.6530   -2.9360 h1        1 BFA      0.107000
     33 HD31        2.5030    0.5010   -3.1870 h1        1 BFA      0.073500
     34 HD32        2.0370   -0.8790   -3.8890 h1        1 BFA      0.073500
     35 HD71        3.2040    1.5480   -5.0450 h1        1 BFA      0.071333
     36 HD72        2.2930    2.5750   -4.2150 h1        1 BFA      0.071333
     37 HD73        2.1810    2.3750   -5.8450 h1        1 BFA      0.071333
     38 HD81        1.2810    0.5360   -6.8100 h1        1 BFA      0.071333
     39 HD82        2.3820   -0.4290   -6.0680 h1        1 BFA      0.071333
     40 HD83        0.7910   -0.6590   -5.9050 h1        1 BFA      0.071333
@<TRIPOS>BOND
     1    1   10 1   
     2    2   11 1   
     3    2   16 1   
     4    3    4 1   
     5    3   24 1   
     6    4   25 1   
     7    5   12 1   
     8    5   26 1   
     9    6   12 1   
    10    7    8 1   
    11    7   27 1   
    12    8   28 1   
    13    9   10 1   
    14    9   29 1   
    15   10   14 1   
    16   11   15 1   
    17   13   14 1   
    18   14   15 1   
    19   16   17 1   
    20   16   18 1   
    21   18   19 1   
    22   18   30 1   
    23   19   20 1   
    24   19   31 1   
    25   19   32 1   
    26   20   21 1   
    27   20   33 1   
    28   20   34 1   
    29   21   22 1   
    30   21   23 1   
    31   22   35 1   
    32   22   36 1   
    33   22   37 1   
    34   23   38 1   
    35   23   39 1   
    36   23   40 1   
@<TRIPOS>SUBSTRUCTURE
     1 BFA         1 TEMP              0 ****  ****    0 ROOT
