@<TRIPOS>MOLECULE
BFA
   40    42     1     0     0
SMALL
bcc


@<TRIPOS>ATOM
      1 BR          2.4410    0.1130   -0.7180 br        1 BFA     -0.052100
      2 C4         -2.4400   -0.9520    0.9680 ca        1 BFA     -0.179900
      3 C3         -3.7760   -1.1630    1.1690 ca        1 BFA     -0.060000
      4 C2         -4.7290   -0.8860    0.1470 ca        1 BFA     -0.127000
      5 C1         -4.3370   -0.4240   -1.0730 ca        1 BFA     -0.149300
      6 N9         -2.5550    0.2360   -2.5750 nb        1 BFA     -0.612000
      7 C8         -0.7690    0.8850   -4.0790 ca        1 BFA     -0.149300
      8 C7          0.5590    1.0810   -4.2990 ca        1 BFA     -0.125000
      9 C6          1.5200    0.8430   -3.2750 ca        1 BFA     -0.085000
     10 C5          1.1440    0.4080   -2.0360 ca        1 BFA     -0.071200
     11 C12        -1.9620   -0.4610   -0.3040 ca        1 BFA      0.327300
     12 C11        -2.9390   -0.2030   -1.3530 ca        1 BFA      0.300300
     13 C13        -1.2320    0.4260   -2.7910 ca        1 BFA      0.303300
     14 C14        -0.2540    0.1760   -1.7430 ca        1 BFA      0.326300
     15 N10        -0.6400   -0.2630   -0.5210 nb        1 BFA     -0.624000
     16 OD1        -1.5800   -2.4150    2.6420 o         1 BFA     -0.609100
     17 ND1        -0.5970   -0.3460    2.4840 n         1 BFA     -0.546900
     18 CD2         0.4180   -0.6170    3.4670 c3        1 BFA      0.083000
     19 CD3         0.3040    0.3220    4.6930 c3        1 BFA      0.153800
     20 ND2         1.4640    0.2340    5.5700 n3        1 BFA     -0.738600
     21 CD7         1.5140    1.3290    6.5140 c3        1 BFA      0.155100
     22 CD8         1.6070   -1.0570    6.2040 c3        1 BFA      0.155100
     23 H3         -4.1300   -1.5670    2.1330 ha        1 BFA      0.161000
     24 H2         -5.7940   -1.0630    0.3650 ha        1 BFA      0.147000
     25 H1         -5.0700   -0.2160   -1.8690 ha        1 BFA      0.158000
     26 H8         -1.5160    1.0690   -4.8690 ha        1 BFA      0.159000
     27 H7          0.9210    1.4300   -5.2790 ha        1 BFA      0.147000
     28 H6          2.5820    1.0220   -3.5150 ha        1 BFA      0.155000
     29 HN1        -0.4890    0.4820    1.9480 hn        1 BFA      0.320500
     30 HD21        1.4330   -0.4880    2.9930 h1        1 BFA      0.067700
     31 HD22        0.3200   -1.6880    3.8090 h1        1 BFA      0.067700
     32 HD31       -0.6530    0.0830    5.2420 h1        1 BFA      0.034200
     33 HD32        0.2320    1.3870    4.3320 h1        1 BFA      0.034200
     34 HD71        2.4610    1.2480    7.1110 h1        1 BFA      0.032033
     35 HD72        1.5290    2.2980    5.9510 h1        1 BFA      0.032033
     36 HD73        0.6440    1.3430    7.2260 h1        1 BFA      0.032033
     37 HD81        1.7440   -1.8380    5.4100 h1        1 BFA      0.032033
     38 HD82        2.5210   -1.0470    6.8540 h1        1 BFA      0.032033
     39 HD83        0.7220   -1.3430    6.8370 h1        1 BFA      0.032033
     40 CD1        -1.4930   -1.3060    2.0740 c         1 BFA      0.680700
@<TRIPOS>BOND
     1    1   10 1   
     2    2    3 ar  
     3    2   11 ar  
     4    2   40 1   
     5    3    4 ar  
     6    3   23 1   
     7    4    5 ar  
     8    4   24 1   
     9    5   12 ar  
    10    5   25 1   
    11    6   12 ar  
    12    6   13 ar  
    13    7    8 ar  
    14    7   13 ar  
    15    7   26 1   
    16    8    9 ar  
    17    8   27 1   
    18    9   10 ar  
    19    9   28 1   
    20   10   14 ar  
    21   11   12 ar  
    22   11   15 ar  
    23   13   14 ar  
    24   14   15 ar  
    25   16   40 2   
    26   17   18 1   
    27   17   29 1   
    28   17   40 1   
    29   18   19 1   
    30   18   30 1   
    31   18   31 1   
    32   19   20 1   
    33   19   32 1   
    34   19   33 1   
    35   20   21 1   
    36   20   22 1   
    37   21   34 1   
    38   21   35 1   
    39   21   36 1   
    40   22   37 1   
    41   22   38 1   
    42   22   39 1   
@<TRIPOS>SUBSTRUCTURE
     1 BFA         1 TEMP              0 ****  ****    0 ROOT
