@<TRIPOS>MOLECULE
BFB
   43    43     1     0     0
SMALL
bcc


@<TRIPOS>ATOM
      1 OAE         0.9320   -0.5190    0.0170 o         1 BFB     -0.334100
      2 CAU         1.9160    0.0420    0.4700 c         1 BFB      0.510100
      3 NAA         2.8140    0.7500   -0.4860 nz        1 BFB     -0.737400
      4 CAZ         2.2670    0.0640    1.9720 c3        1 BFB      0.082500
      5 CAO         2.4900   -1.3990    2.4010 c3        1 BFB     -0.114400
      6 CAM         3.1400   -1.5440    3.7660 c3        1 BFB     -0.114400
      7 CAN         3.4990   -3.0190    3.9930 c3        1 BFB      0.105800
      8 NAR         4.1430   -3.3020    5.2970 ny        1 BFB     -0.840000
      9 CAV         4.5740   -4.8180    5.3940 c2        1 BFB      0.607200
     10 CAP         6.0180   -4.9730    4.9970 c3        1 BFB     -0.165400
     11 NAC         3.8120   -5.7330    5.7800 n2        1 BFB     -0.671100
     12 NAS         1.1620    0.7420    2.7240 ny        1 BFB     -0.708800
     13 CAW         1.0240    2.2610    2.3830 c         1 BFB      0.629700
     14 OAF         1.7380    2.5720    1.4320 o         1 BFB     -0.549100
     15 CAX         0.1230    3.0270    3.1880 ca        1 BFB     -0.242600
     16 CAK        -0.7320    2.4860    4.1790 ca        1 BFB     -0.038000
     17 CAL         0.0900    4.4230    2.9320 ca        1 BFB     -0.038000
     18 CAJ        -0.7710    5.2430    3.6530 ca        1 BFB     -0.119500
     19 CAH        -1.6100    4.6990    4.6270 ca        1 BFB      0.023000
     20 CAI        -1.5850    3.3160    4.8850 ca        1 BFB     -0.119500
     21 HAA1        2.4650    0.6200   -1.4560 hn        1 BFB      0.504800
     22 HAA2        3.7760    0.3910   -0.4330 hn        1 BFB      0.504800
     23 HAZ         3.2090    0.6680    2.1600 hx        1 BFB      0.144700
     24 HAO1        3.1590   -1.8720    1.6270 hc        1 BFB      0.108700
     25 HAO2        1.5150   -1.9620    2.3720 hc        1 BFB      0.108700
     26 HAM1        4.0670   -0.9120    3.8210 hc        1 BFB      0.074700
     27 HAM2        2.4400   -1.1970    4.5710 hc        1 BFB      0.074700
     28 HAN1        2.5640   -3.6490    3.9240 hx        1 BFB      0.115700
     29 HAN2        4.2110   -3.3620    3.1840 hx        1 BFB      0.115700
     30 HNAR        4.9910   -2.7340    5.4010 hn        1 BFB      0.448300
     31 HAP1        6.2040   -4.5430    3.9840 hc        1 BFB      0.111700
     32 HAP2        6.6810   -4.4810    5.7550 hc        1 BFB      0.111700
     33 HAP3        6.2840   -6.0680    4.9700 hc        1 BFB      0.111700
     34 HNAC        2.8680   -5.6880    6.0850 hn        1 BFB      0.497400
     35 HNAS        0.2630    0.2840    2.5210 hn        1 BFB      0.476800
     36 HAK        -0.7520    1.4090    4.3990 ha        1 BFB      0.149000
     37 HAL         0.7500    4.8560    2.1590 ha        1 BFB      0.149000
     38 HAJ        -0.7910    6.3310    3.4480 ha        1 BFB      0.197000
     39 HAH        -2.3000    5.3520    5.1980 ha        1 BFB      0.202000
     40 HAI        -2.2590    2.8960    5.6540 ha        1 BFB      0.197000
     41 HAA3        2.8210    1.7660   -0.2760 hn        1 BFB      0.504800
     42 HAR2        3.5090   -3.0610    6.0630 hn        1 BFB      0.448300
     43 HAS2        1.3470    0.6540    3.7310 hn        1 BFB      0.476800
@<TRIPOS>BOND
     1    1    2 2   
     2    2    3 1   
     3    2    4 1   
     4    3   21 1   
     5    3   22 1   
     6    3   41 1   
     7    4    5 1   
     8    4   12 1   
     9    4   23 1   
    10    5    6 1   
    11    5   24 1   
    12    5   25 1   
    13    6    7 1   
    14    6   26 1   
    15    6   27 1   
    16    7    8 1   
    17    7   28 1   
    18    7   29 1   
    19    8    9 1   
    20    8   30 1   
    21    8   42 1   
    22    9   10 1   
    23    9   11 2   
    24   10   31 1   
    25   10   32 1   
    26   10   33 1   
    27   11   34 1   
    28   12   13 1   
    29   12   35 1   
    30   12   43 1   
    31   13   14 2   
    32   13   15 1   
    33   15   16 ar  
    34   15   17 ar  
    35   16   20 ar  
    36   16   36 1   
    37   17   18 ar  
    38   17   37 1   
    39   18   19 ar  
    40   18   38 1   
    41   19   20 ar  
    42   19   39 1   
    43   20   40 1   
@<TRIPOS>SUBSTRUCTURE
     1 BFB         1 TEMP              0 ****  ****    0 ROOT
