@<TRIPOS>MOLECULE
BFB
   43    43     1     0     0
SMALL
bcc


@<TRIPOS>ATOM
      1 OAE         0.2170   -0.8700    0.4160 o         1 BFB     -0.334100
      2 CAU         1.2700   -0.2610    0.5030 c         1 BFB      0.510100
      3 NAA         1.8350    0.3310   -0.7420 n4        1 BFB     -0.737400
      4 CAZ         2.0340   -0.0650    1.8300 c3        1 BFB      0.082500
      5 CAO         2.4160   -1.4700    2.3370 c3        1 BFB     -0.114400
      6 CAM         3.4340   -1.4570    3.4630 c3        1 BFB     -0.114400
      7 CAN         3.8780   -2.8970    3.7500 c3        1 BFB      0.105800
      8 NAR         4.8670   -3.0310    4.8460 n4        1 BFB     -0.840000
      9 CAV         5.2210   -4.5480    5.1020 c2        1 BFB      0.607200
     10 CAP         4.3190   -5.1190    6.1650 c3        1 BFB     -0.165400
     11 NAC         6.1460   -5.1540    4.5160 n2        1 BFB     -0.671100
     12 NAS         1.1670    0.6960    2.7870 n4        1 BFB     -0.707800
     13 CAW         0.8890    2.1660    2.3340 c         1 BFB      0.629700
     14 OAF         1.2930    2.3640    1.1890 o         1 BFB     -0.549100
     15 CAX         0.2300    3.0210    3.2730 ca        1 BFB     -0.242600
     16 CAK        -0.2900    2.5980    4.5210 ca        1 BFB     -0.038000
     17 CAL         0.0810    4.3780    2.8830 ca        1 BFB     -0.038000
     18 CAJ        -0.5650    5.2760    3.7250 ca        1 BFB     -0.119500
     19 CAH        -1.0750    4.8490    4.9530 ca        1 BFB      0.023000
     20 CAI        -0.9330    3.5050    5.3440 ca        1 BFB     -0.119500
     21 HAA1        1.8690    1.3650   -0.6570 hn        1 BFB      0.504800
     22 HAA2        1.2290    0.0910   -1.5500 hn        1 BFB      0.504800
     23 HAZ         2.9700    0.5550    1.6720 hx        1 BFB      0.144700
     24 HAO1        2.8490   -2.0310    1.4610 hc        1 BFB      0.108700
     25 HAO2        1.4920   -2.0300    2.6540 hc        1 BFB      0.108700
     26 HAM1        2.9870   -1.0080    4.3900 hc        1 BFB      0.074200
     27 HAM2        4.3220   -0.8330    3.1740 hc        1 BFB      0.074200
     28 HAN1        2.9770   -3.5220    4.0270 hx        1 BFB      0.115700
     29 HAN2        4.3370   -3.3420    2.8190 hx        1 BFB      0.115700
     30 HNAR        4.4800   -2.6540    5.7170 hn        1 BFB      0.447800
     31 HAP1        4.5070   -6.2250    6.2630 hc        1 BFB      0.111700
     32 HAP2        3.2440   -4.9700    5.9020 hc        1 BFB      0.111700
     33 HAP3        4.5450   -4.6470    7.1550 hc        1 BFB      0.111700
     34 HNAC        6.7920   -4.8240    3.8380 hn        1 BFB      0.497400
     35 HNAS        0.2620    0.2180    2.9020 hn        1 BFB      0.477300
     36 HAK        -0.2130    1.5530    4.8550 ha        1 BFB      0.149000
     37 HAL         0.4800    4.7180    1.9110 ha        1 BFB      0.149000
     38 HAJ        -0.6780    6.3330    3.4160 ha        1 BFB      0.197000
     39 HAH        -1.5950    5.5640    5.6210 ha        1 BFB      0.202000
     40 HAI        -1.3470    3.1770    6.3150 ha        1 BFB      0.197000
     41 HAA3        2.7830   -0.0200   -0.9280 hn        1 BFB      0.504800
     42 HAR2        5.7130   -2.4980    4.6230 hn        1 BFB      0.447800
     43 HAS2        1.6330    0.7250    3.7020 hn        1 BFB      0.477300
@<TRIPOS>BOND
     1    1    2 2   
     2    2    3 1   
     3    2    4 1   
     4    3   21 1   
     5    3   22 1   
     6    3   41 1   
     7    4    5 1   
     8    4   12 1   
     9    4   23 1   
    10    5    6 1   
    11    5   24 1   
    12    5   25 1   
    13    6    7 1   
    14    6   26 1   
    15    6   27 1   
    16    7    8 1   
    17    7   28 1   
    18    7   29 1   
    19    8    9 1   
    20    8   30 1   
    21    8   42 1   
    22    9   10 1   
    23    9   11 2   
    24   10   31 1   
    25   10   32 1   
    26   10   33 1   
    27   11   34 1   
    28   12   13 1   
    29   12   35 1   
    30   12   43 1   
    31   13   14 2   
    32   13   15 1   
    33   15   16 ar  
    34   15   17 ar  
    35   16   20 ar  
    36   16   36 1   
    37   17   18 ar  
    38   17   37 1   
    39   18   19 ar  
    40   18   38 1   
    41   19   20 ar  
    42   19   39 1   
    43   20   40 1   
@<TRIPOS>SUBSTRUCTURE
     1 BFB         1 TEMP              0 ****  ****    0 ROOT
