@<TRIPOS>MOLECULE
BFB
   40    40     1     0     0
SMALL
bcc


@<TRIPOS>ATOM
      1 OAE        -1.5230   -2.1090    1.8030 o         1 BFB     -0.621100
      2 CAU        -0.6510   -1.4810    2.4390 c         1 BFB      0.629100
      3 NAA         0.4190   -2.1320    2.9900 n         1 BFB     -0.663000
      4 CAZ        -0.7700    0.0490    2.6660 c3        1 BFB      0.034700
      5 CAO        -1.6690    0.2310    3.9000 c3        1 BFB     -0.082400
      6 CAM        -1.6870    1.6680    4.3700 c3        1 BFB     -0.087400
      7 CAN        -2.5180    1.7800    5.6490 c3        1 BFB      0.186800
      8 NAR        -2.5380    3.1120    6.1980 nh        1 BFB     -0.868200
      9 CAV        -3.4530    3.4150    7.2400 c2        1 BFB      0.606200
     10 CAP        -3.6420    4.9070    7.4630 c3        1 BFB     -0.140400
     11 NAC        -4.0590    2.5830    8.0270 n2        1 BFB     -0.834100
     12 NAS        -1.2790    0.7050    1.4890 n         1 BFB     -0.547900
     13 CAW        -0.4520    1.4400    0.6510 c         1 BFB      0.671700
     14 OAF         0.6980    1.7660    1.0100 o         1 BFB     -0.604100
     15 CAX        -1.0250    1.8850   -0.6500 ca        1 BFB     -0.143600
     16 CAK        -1.8230    1.0410   -1.4300 ca        1 BFB     -0.089500
     17 CAL        -0.7190    3.1750   -1.0990 ca        1 BFB     -0.089500
     18 CAJ        -1.2260    3.6240   -2.3180 ca        1 BFB     -0.138000
     19 CAH        -2.0290    2.7860   -3.0920 ca        1 BFB     -0.106000
     20 CAI        -2.3220    1.4960   -2.6510 ca        1 BFB     -0.138000
     21 HAA1        0.5290   -3.1040    2.8380 hn        1 BFB      0.315000
     22 HAA2        1.1570   -1.6300    3.4110 hn        1 BFB      0.315000
     23 HAZ         0.2490    0.4900    2.8930 h1        1 BFB      0.099700
     24 HAO1       -1.2680   -0.4290    4.7150 hc        1 BFB      0.058700
     25 HAO2       -2.7110   -0.1150    3.6690 hc        1 BFB      0.058700
     26 HAM1       -0.6390    2.0180    4.5610 hc        1 BFB      0.056700
     27 HAM2       -2.1220    2.3260    3.5730 hc        1 BFB      0.056700
     28 HAN1       -3.5630    1.4090    5.4280 h1        1 BFB      0.035700
     29 HAN2       -2.0790    1.0920    6.4300 h1        1 BFB      0.035700
     30 HNAR       -2.4200    3.8380    5.5270 hn        1 BFB      0.403800
     31 HAP1       -2.6540    5.3870    7.6680 hc        1 BFB      0.057700
     32 HAP2       -4.0950    5.3700    6.5530 hc        1 BFB      0.057700
     33 HAP3       -4.3170    5.0970    8.3330 hc        1 BFB      0.057700
     34 HNAC       -3.9170    1.6110    7.8550 hn        1 BFB      0.382400
     35 HNAS       -2.1260    0.3310    1.1200 hn        1 BFB      0.323500
     36 HAK        -2.0480    0.0140   -1.1030 ha        1 BFB      0.148000
     37 HAL        -0.0690    3.8210   -0.4880 ha        1 BFB      0.148000
     38 HAJ        -0.9880    4.6390   -2.6690 ha        1 BFB      0.139000
     39 HAH        -2.4270    3.1420   -4.0550 ha        1 BFB      0.136000
     40 HAI        -2.9460    0.8310   -3.2670 ha        1 BFB      0.139000
@<TRIPOS>BOND
     1    1    2 2   
     2    2    3 1   
     3    2    4 1   
     4    3   21 1   
     5    3   22 1   
     6    4    5 1   
     7    4   12 1   
     8    4   23 1   
     9    5    6 1   
    10    5   24 1   
    11    5   25 1   
    12    6    7 1   
    13    6   26 1   
    14    6   27 1   
    15    7    8 1   
    16    7   28 1   
    17    7   29 1   
    18    8    9 1   
    19    8   30 1   
    20    9   10 1   
    21    9   11 2   
    22   10   31 1   
    23   10   32 1   
    24   10   33 1   
    25   11   34 1   
    26   12   13 1   
    27   12   35 1   
    28   13   14 2   
    29   13   15 1   
    30   15   16 ar  
    31   15   17 ar  
    32   16   20 ar  
    33   16   36 1   
    34   17   18 ar  
    35   17   37 1   
    36   18   19 ar  
    37   18   38 1   
    38   19   20 ar  
    39   19   39 1   
    40   20   40 1   
@<TRIPOS>SUBSTRUCTURE
     1 BFB         1 TEMP              0 ****  ****    0 ROOT
