@<TRIPOS>MOLECULE
BFB
   43    43     1     0     0
SMALL
bcc


@<TRIPOS>ATOM
      1 OAE         0.9450   -0.5310    0.0130 o         1 BFB     -0.334100
      2 CAU         1.9230    0.0390    0.4690 c         1 BFB      0.510100
      3 NAA         2.8180    0.7530   -0.4840 n4        1 BFB     -0.737400
      4 CAZ         2.2690    0.0640    1.9730 c3        1 BFB      0.082500
      5 CAO         2.5030   -1.3970    2.4040 c3        1 BFB     -0.114400
      6 CAM         3.1500   -1.5360    3.7700 c3        1 BFB     -0.114400
      7 CAN         3.5210   -3.0070    3.9990 c3        1 BFB      0.105800
      8 NAR         4.1630   -3.2840    5.3050 n4        1 BFB     -0.840000
      9 CAV         4.6070   -4.7970    5.4040 c2        1 BFB      0.607200
     10 CAP         6.0540   -4.9380    5.0130 c3        1 BFB     -0.165400
     11 NAC         3.8530   -5.7190    5.7880 n2        1 BFB     -0.671100
     12 NAS         1.1550    0.7330    2.7210 n4        1 BFB     -0.708800
     13 CAW         1.0060    2.2510    2.3790 c         1 BFB      0.629700
     14 OAF         1.7210    2.5670    1.4300 o         1 BFB     -0.549100
     15 CAX         0.0960    3.0100    3.1810 ca        1 BFB     -0.242600
     16 CAK        -0.7580    2.4610    4.1690 ca        1 BFB     -0.038000
     17 CAL         0.0530    4.4050    2.9240 ca        1 BFB     -0.038000
     18 CAJ        -0.8180    5.2180    3.6420 ca        1 BFB     -0.119500
     19 CAH        -1.6560    4.6670    4.6130 ca        1 BFB      0.023000
     20 CAI        -1.6200    3.2840    4.8710 ca        1 BFB     -0.119500
     21 HAA1        3.7820    0.4020   -0.4280 hn        1 BFB      0.504800
     22 HAA2        2.4730    0.6210   -1.4540 hn        1 BFB      0.504800
     23 HAZ         3.2050    0.6760    2.1640 hx        1 BFB      0.144700
     24 HAO1        1.5330   -1.9680    2.3710 hc        1 BFB      0.108700
     25 HAO2        3.1780   -1.8650    1.6310 hc        1 BFB      0.108700
     26 HAM1        2.4440   -1.1950    4.5730 hc        1 BFB      0.074700
     27 HAM2        4.0710   -0.8960    3.8280 hc        1 BFB      0.074700
     28 HAN1        2.5910   -3.6450    3.9270 hx        1 BFB      0.115700
     29 HAN2        4.2380   -3.3450    3.1920 hx        1 BFB      0.115700
     30 HNAR        3.5240   -3.0500    6.0690 hn        1 BFB      0.448300
     31 HAP1        6.7100   -4.4400    5.7730 hc        1 BFB      0.111700
     32 HAP2        6.2400   -4.5050    4.0000 hc        1 BFB      0.111700
     33 HAP3        6.3310   -6.0300    4.9860 hc        1 BFB      0.111700
     34 HNAC        2.9070   -5.6820    6.0890 hn        1 BFB      0.497400
     35 HNAS        0.2610    0.2670    2.5150 hn        1 BFB      0.476800
     36 HAK        -0.7700    1.3840    4.3890 ha        1 BFB      0.149000
     37 HAL         0.7120    4.8440    2.1530 ha        1 BFB      0.149000
     38 HAJ        -0.8460    6.3060    3.4370 ha        1 BFB      0.197000
     39 HAH        -2.3530    5.3150    5.1810 ha        1 BFB      0.202000
     40 HAI        -2.2940    2.8590    5.6370 ha        1 BFB      0.197000
     41 HAA3        2.8160    1.7690   -0.2740 hn        1 BFB      0.504800
     42 HAR2        5.0050   -2.7090    5.4120 hn        1 BFB      0.448300
     43 HAS2        1.3380    0.6470    3.7280 hn        1 BFB      0.476800
@<TRIPOS>BOND
     1    1    2 2   
     2    2    3 1   
     3    2    4 1   
     4    3   21 1   
     5    3   22 1   
     6    3   41 1   
     7    4    5 1   
     8    4   12 1   
     9    4   23 1   
    10    5    6 1   
    11    5   24 1   
    12    5   25 1   
    13    6    7 1   
    14    6   26 1   
    15    6   27 1   
    16    7    8 1   
    17    7   28 1   
    18    7   29 1   
    19    8    9 1   
    20    8   30 1   
    21    8   42 1   
    22    9   10 1   
    23    9   11 2   
    24   10   31 1   
    25   10   32 1   
    26   10   33 1   
    27   11   34 1   
    28   12   13 1   
    29   12   35 1   
    30   12   43 1   
    31   13   14 2   
    32   13   15 1   
    33   15   16 ar  
    34   15   17 ar  
    35   16   20 ar  
    36   16   36 1   
    37   17   18 ar  
    38   17   37 1   
    39   18   19 ar  
    40   18   38 1   
    41   19   20 ar  
    42   19   39 1   
    43   20   40 1   
@<TRIPOS>SUBSTRUCTURE
     1 BFB         1 TEMP              0 ****  ****    0 ROOT
