@<TRIPOS>MOLECULE
BFB
   40    36     1     0     0
SMALL
bcc


@<TRIPOS>ATOM
      1 OAE        -1.9270    0.2740   -1.6870 o         1 BFB     -0.385000
      2 CAU        -0.7260    0.4540   -1.7090 c1        1 BFB      0.278000
      3 NAA        -0.0620    0.6580   -2.9470 n3        1 BFB     -0.425000
      4 CAZ         0.0570    0.4950   -0.4160 c2        1 BFB      0.014000
      5 CAO         0.1580   -0.9010    0.1570 c3        1 BFB     -0.160000
      6 CAM         1.5160   -1.4820   -0.1680 c3        1 BFB     -0.168000
      7 CAN         1.4980   -2.9750    0.0760 c3        1 BFB     -0.049000
      8 NAR         2.4010   -3.6130   -0.8180 n3        1 BFB     -0.348000
      9 CAV         2.5030   -5.0280   -0.8330 c2        1 BFB      0.090000
     10 CAP         2.1050   -5.8010   -2.0710 c3        1 BFB     -0.183000
     11 NAC         2.9400   -5.6640    0.2220 n1        1 BFB     -0.302000
     12 NAS        -0.6070    1.3410    0.5120 n         1 BFB     -0.376000
     13 CAW        -0.7440    2.7260    0.2370 c2        1 BFB      0.353000
     14 OAF        -0.1800    3.2140   -0.7220 o         1 BFB     -0.385000
     15 CAX        -1.5860    3.5980    1.1440 c2        1 BFB     -0.124000
     16 CAK        -0.9730    4.4740    2.0260 c2        1 BFB     -0.076000
     17 CAL        -2.9680    3.5740    1.0390 c1        1 BFB     -0.103000
     18 CAJ        -3.7360    4.4270    1.8160 c1        1 BFB     -0.120500
     19 CAH        -3.1230    5.3030    2.6980 c1        1 BFB     -0.120500
     20 CAI        -1.7410    5.3260    2.8020 c1        1 BFB     -0.137000
     21 HAA1        0.8330    0.8430   -2.9600 hn        1 BFB      0.238000
     22 HAA2       -0.5310    0.6110   -3.7300 hn        1 BFB      0.238000
     23 HAZ         0.9540    0.8420   -0.5890 h4        1 BFB      0.130000
     24 HAO1       -0.5400   -1.4650   -0.2330 hc        1 BFB      0.101000
     25 HAO2        0.0430   -0.8640    1.1280 hc        1 BFB      0.101000
     26 HAM1        2.1940   -1.0670    0.4030 hc        1 BFB      0.098500
     27 HAM2        1.7290   -1.3080   -1.1070 hc        1 BFB      0.098500
     28 HAN1        0.5930   -3.3190   -0.0730 h1        1 BFB      0.076000
     29 HAN2        1.7680   -3.1580    1.0000 h1        1 BFB      0.076000
     30 HNAR        2.9230   -3.1120   -1.3730 hn        1 BFB      0.198000
     31 HAP1        2.5980   -5.4550   -2.8450 hc        1 BFB      0.097000
     32 HAP2        2.3180   -6.7500   -1.9470 hc        1 BFB      0.097000
     33 HAP3        1.1430   -5.6990   -2.2250 hc        1 BFB      0.097000
     34 HNAC        3.1800   -5.1970    0.9690 DU        1 BFB      0.137000
     35 HNAS       -0.9270    0.9970    1.2940 hn        1 BFB      0.236000
     36 HAK         0.0010    4.4910    2.1000 ha        1 BFB      0.156000
     37 HAL        -3.4000    2.9570    0.4180 ha        1 BFB      0.136000
     38 HAJ        -4.7090    4.4100    1.7420 ha        1 BFB      0.138500
     39 HAH        -3.6640    5.9030    3.2450 ha        1 BFB      0.138500
     40 HAI        -1.3090    5.9430    3.4230 ha        1 BFB      0.141000
@<TRIPOS>BOND
     1    1    2 1   
     2    2    3 1   
     3    3   21 1   
     4    3   22 1   
     5    4    5 1   
     6    4   12 1   
     7    4   23 1   
     8    5    6 1   
     9    5   24 1   
    10    5   25 1   
    11    6    7 1   
    12    6   26 1   
    13    6   27 1   
    14    7    8 1   
    15    7   28 1   
    16    7   29 1   
    17    8    9 1   
    18    8   30 1   
    19    9   10 1   
    20    9   11 1   
    21   10   31 1   
    22   10   32 1   
    23   10   33 1   
    24   12   13 1   
    25   12   35 1   
    26   13   14 1   
    27   13   15 1   
    28   15   16 1   
    29   15   17 1   
    30   16   20 1   
    31   16   36 1   
    32   17   37 1   
    33   18   19 1   
    34   18   38 1   
    35   19   39 1   
    36   20   40 1   
@<TRIPOS>SUBSTRUCTURE
     1 BFB         1 TEMP              0 ****  ****    0 ROOT
