@<TRIPOS>MOLECULE
BFE
   24    24     1     0     0
SMALL
bcc


@<TRIPOS>ATOM
      1 C4         -0.1660    0.4300    0.0880 ca        1 BFE     -0.208600
      2 C5          1.1580    0.0630   -0.2110 ca        1 BFE     -0.068000
      3 C6          1.9660   -0.4800    0.7860 ca        1 BFE     -0.120500
      4 C7         -0.9530    1.0110   -0.9960 c         1 BFE      0.578700
      5 C10        -2.8520   -0.0790   -2.1860 c3        1 BFE      0.104800
      6 C2          0.1590   -0.2580    2.3820 ca        1 BFE     -0.120500
      7 C3         -0.6610    0.2780    1.3940 ca        1 BFE     -0.068000
      8 N9         -2.4490    0.7120   -0.9800 n4        1 BFE     -0.684800
      9 C11        -4.3520   -0.3010   -2.2800 c3        1 BFE     -0.064300
     10 S12        -4.6640   -1.4600   -3.5590 sh        1 BFE     -0.253900
     11 O8         -0.5800    1.6920   -1.9400 o         1 BFE     -0.417100
     12 C1          1.4700   -0.6430    2.0790 ca        1 BFE     -0.049000
     13 H5          1.5540    0.2090   -1.2310 ha        1 BFE      0.149000
     14 H6          3.0030   -0.7720    0.5490 ha        1 BFE      0.170500
     15 H10        -2.4810    0.4810   -3.0950 hx        1 BFE      0.120700
     16 H10A       -2.3200   -1.0750   -2.1360 hx        1 BFE      0.120700
     17 H2         -0.2240   -0.3720    3.4090 ha        1 BFE      0.170500
     18 H3         -1.6730    0.6090    1.6700 ha        1 BFE      0.149000
     19 HN9        -2.6930    0.1870   -0.1350 hn        1 BFE      0.454300
     20 H11        -4.8930    0.6630   -2.4370 h1        1 BFE      0.099200
     21 H11A       -4.7510   -0.7720   -1.3440 h1        1 BFE      0.099200
     22 HS12       -4.8040   -0.6380   -4.5880 hs        1 BFE      0.214800
     23 H1          2.1120   -1.0690    2.8690 ha        1 BFE      0.170000
     24 H92        -2.9660    1.5980   -0.9770 hn        1 BFE      0.454300
@<TRIPOS>BOND
     1    1    2 ar  
     2    1    4 1   
     3    1    7 ar  
     4    2    3 ar  
     5    2   13 1   
     6    3   12 ar  
     7    3   14 1   
     8    4    8 1   
     9    4   11 2   
    10    5    8 1   
    11    5    9 1   
    12    5   15 1   
    13    5   16 1   
    14    6    7 ar  
    15    6   12 ar  
    16    6   17 1   
    17    7   18 1   
    18    8   19 1   
    19    8   24 1   
    20    9   10 1   
    21    9   20 1   
    22    9   21 1   
    23   10   22 1   
    24   12   23 1   
@<TRIPOS>SUBSTRUCTURE
     1 BFE         1 TEMP              0 ****  ****    0 ROOT
