@<TRIPOS>MOLECULE
BFE
   24    24     1     0     0
SMALL
bcc


@<TRIPOS>ATOM
      1 C4         -0.1840   -0.4740    0.0930 ca        1 BFE     -0.208600
      2 C5          1.1570   -0.1610   -0.1910 ca        1 BFE     -0.068000
      3 C6          1.9800    0.3310    0.8200 ca        1 BFE     -0.121000
      4 C7         -0.9880   -1.0040   -1.0050 c         1 BFE      0.578700
      5 C10        -2.8420    0.1550   -2.2040 c3        1 BFE      0.104800
      6 C2          0.1510    0.1660    2.3980 ca        1 BFE     -0.121000
      7 C3         -0.6830   -0.3190    1.3970 ca        1 BFE     -0.068000
      8 N9         -2.4700   -0.6430   -0.9930 ny        1 BFE     -0.684800
      9 C11        -4.3310    0.4350   -2.3000 c3        1 BFE     -0.064300
     10 S12        -4.5980    1.5980   -3.5870 sh        1 BFE     -0.253900
     11 O8         -0.6370   -1.6840   -1.9580 o         1 BFE     -0.417100
     12 C1          1.4800    0.4970    2.1120 ca        1 BFE     -0.049000
     13 H5          1.5540   -0.3100   -1.2100 ha        1 BFE      0.149000
     14 H6          3.0300    0.5810    0.5950 ha        1 BFE      0.170500
     15 H10        -2.2700    1.1290   -2.1600 hx        1 BFE      0.120700
     16 H10A       -2.4920   -0.4250   -3.1090 hx        1 BFE      0.120700
     17 H2         -0.2340    0.2820    3.4250 ha        1 BFE      0.170500
     18 H3         -1.7110   -0.6080    1.6610 ha        1 BFE      0.149000
     19 HN9        -3.0230   -1.5080   -0.9830 hn        1 BFE      0.454800
     20 H11        -4.7120    0.9270   -1.3670 h1        1 BFE      0.099200
     21 H11A       -4.9100   -0.5080   -2.4510 h1        1 BFE      0.099200
     22 HS12       -4.7670    0.7760   -4.6100 hs        1 BFE      0.214800
     23 H1          2.1350    0.8830    2.9120 ha        1 BFE      0.170000
     24 H92        -2.6930   -0.1040   -0.1510 hn        1 BFE      0.454800
@<TRIPOS>BOND
     1    1    2 ar  
     2    1    4 1   
     3    1    7 ar  
     4    2    3 ar  
     5    2   13 1   
     6    3   12 ar  
     7    3   14 1   
     8    4    8 1   
     9    4   11 2   
    10    5    8 1   
    11    5    9 1   
    12    5   15 1   
    13    5   16 1   
    14    6    7 ar  
    15    6   12 ar  
    16    6   17 1   
    17    7   18 1   
    18    8   19 1   
    19    8   24 1   
    20    9   10 1   
    21    9   20 1   
    22    9   21 1   
    23   10   22 1   
    24   12   23 1   
@<TRIPOS>SUBSTRUCTURE
     1 BFE         1 TEMP              0 ****  ****    0 ROOT
