@<TRIPOS>MOLECULE
BFE
   24    24     1     0     0
SMALL
bcc


@<TRIPOS>ATOM
      1 C4         -0.1800   -0.4660    0.0940 ca        1 BFE     -0.208600
      2 C5          1.1610   -0.1470   -0.1810 ca        1 BFE     -0.068500
      3 C6          1.9800    0.3330    0.8390 ca        1 BFE     -0.121000
      4 C7         -0.9790   -0.9840   -1.0140 c         1 BFE      0.578700
      5 C10        -2.8420    0.1580   -2.2150 c3        1 BFE      0.104800
      6 C2          0.1450    0.1480    2.4080 ca        1 BFE     -0.121000
      7 C3         -0.6840   -0.3260    1.3970 ca        1 BFE     -0.068500
      8 N9         -2.4630   -0.6290   -1.0000 n4        1 BFE     -0.684800
      9 C11        -4.3340    0.4290   -2.3090 c3        1 BFE     -0.064300
     10 S12        -4.6120    1.5820   -3.6020 sh        1 BFE     -0.253900
     11 O8         -0.6220   -1.6500   -1.9750 o         1 BFE     -0.417100
     12 C1          1.4750    0.4840    2.1310 ca        1 BFE     -0.049000
     13 H5          1.5620   -0.2830   -1.2000 ha        1 BFE      0.149000
     14 H6          3.0310    0.5870    0.6210 ha        1 BFE      0.170500
     15 H10        -2.4920   -0.4250   -3.1180 hx        1 BFE      0.121200
     16 H10A       -2.2770    1.1360   -2.1800 hx        1 BFE      0.121200
     17 H2         -0.2450    0.2510    3.4340 ha        1 BFE      0.170500
     18 H3         -1.7130   -0.6200    1.6540 ha        1 BFE      0.149000
     19 HN9        -2.6840   -0.0850   -0.1610 hn        1 BFE      0.454800
     20 H11        -4.9080   -0.5190   -2.4520 h1        1 BFE      0.098700
     21 H11A       -4.7150    0.9240   -1.3770 h1        1 BFE      0.098700
     22 HS12       -4.7770    0.7520   -4.6200 hs        1 BFE      0.214800
     23 H1          2.1250    0.8620    2.9380 ha        1 BFE      0.170000
     24 H92        -3.0110   -1.4960   -0.9810 hn        1 BFE      0.454800
@<TRIPOS>BOND
     1    1    2 ar  
     2    1    4 1   
     3    1    7 ar  
     4    2    3 ar  
     5    2   13 1   
     6    3   12 ar  
     7    3   14 1   
     8    4    8 1   
     9    4   11 2   
    10    5    8 1   
    11    5    9 1   
    12    5   15 1   
    13    5   16 1   
    14    6    7 ar  
    15    6   12 ar  
    16    6   17 1   
    17    7   18 1   
    18    8   19 1   
    19    8   24 1   
    20    9   10 1   
    21    9   20 1   
    22    9   21 1   
    23   10   22 1   
    24   12   23 1   
@<TRIPOS>SUBSTRUCTURE
     1 BFE         1 TEMP              0 ****  ****    0 ROOT
