@<TRIPOS>MOLECULE
BFE
   23    20     1     0     0
SMALL
bcc


@<TRIPOS>ATOM
      1 C4          1.3390    0.1550    0.5090 cg        1 BFE     -0.090200
      2 C5          2.7330    0.1970    0.5030 c1        1 BFE     -0.057250
      3 C6          3.4290    0.2400    1.6960 c1        1 BFE     -0.057250
      4 C7          0.5640    0.1490   -0.8200 c         1 BFE      0.617300
      5 C10        -1.5970   -0.3210   -1.9790 c3        1 BFE      0.088000
      6 C2          1.3560    0.2000    2.9010 c1        1 BFE     -0.057250
      7 C3          0.6560    0.1570    1.7030 c1        1 BFE     -0.049500
      8 N9         -0.8830    0.1060   -0.8110 n         1 BFE     -0.567900
      9 C11        -3.0890   -0.2400   -1.7110 c3        1 BFE     -0.032300
     10 S12        -3.9900   -0.9070   -3.1010 sh        1 BFE     -0.362900
     11 O8          1.1630    0.3040   -1.8780 o         1 BFE     -0.603100
     12 C1          2.7450    0.2420    2.8940 c1        1 BFE     -0.057250
     13 H5          3.2210    0.1960   -0.3510 ha        1 BFE      0.084500
     14 H6          4.4290    0.2690    1.6910 ha        1 BFE      0.084500
     15 H10        -1.3590    0.2790   -2.7580 h1        1 BFE      0.071200
     16 H10A       -1.3510   -1.2600   -2.1950 h1        1 BFE      0.071200
     17 H2          0.8670    0.2020    3.7590 ha        1 BFE      0.084500
     18 H3         -0.3130    0.1280    1.7080 ha        1 BFE      0.073500
     19 HN9        -1.3450    0.3750   -0.0640 hn        1 BFE      0.310500
     20 H11        -3.3080   -0.7700   -0.8870 h1        1 BFE      0.078700
     21 H11A       -3.3490    0.7110   -1.5730 h1        1 BFE      0.078700
     22 HS12       -5.1470   -0.6840   -2.9620 hs        1 BFE      0.205800
     23 H1          3.2300    0.2720    3.7250 ha        1 BFE      0.084500
@<TRIPOS>BOND
     1    1    4 1   
     2    1    7 3   
     3    2    3 3   
     4    2   13 1   
     5    3   14 1   
     6    4    8 1   
     7    4   11 2   
     8    5    8 1   
     9    5    9 1   
    10    5   15 1   
    11    5   16 1   
    12    6   12 3   
    13    6   17 1   
    14    7   18 1   
    15    8   19 1   
    16    9   10 1   
    17    9   20 1   
    18    9   21 1   
    19   10   22 1   
    20   12   23 1   
@<TRIPOS>SUBSTRUCTURE
     1 BFE         1 TEMP              0 ****  ****    0 ROOT
