@<TRIPOS>MOLECULE
BFE
   23    23     1     0     0
SMALL
bcc


@<TRIPOS>ATOM
      1 C4         -1.6010    0.0350    0.1550 ca        1 BFE     -0.141600
      2 C5         -2.5910    1.0100    0.3350 ca        1 BFE     -0.092000
      3 C6         -3.9370    0.6580    0.2460 ca        1 BFE     -0.137000
      4 C7         -0.1750    0.4540    0.2700 c         1 BFE      0.668700
      5 C10         2.1310    0.1720   -0.5670 c3        1 BFE      0.088000
      6 C2         -3.3130   -1.6370   -0.1780 ca        1 BFE     -0.137000
      7 C3         -1.9650   -1.2910   -0.0970 ca        1 BFE     -0.092000
      8 N9          0.7230   -0.0930   -0.6300 n         1 BFE     -0.567900
      9 C11         2.9480   -0.8910    0.1620 c3        1 BFE     -0.032300
     10 S12         4.6730   -0.5350    0.0980 sh        1 BFE     -0.362900
     11 O8          0.1920    1.3030    1.1080 o         1 BFE     -0.603100
     12 C1         -4.2980   -0.6640   -0.0120 ca        1 BFE     -0.108000
     13 H5         -2.2920    2.0470    0.5570 ha        1 BFE      0.143500
     14 H6         -4.7130    1.4260    0.3860 ha        1 BFE      0.138000
     15 H10         2.5170    0.2610   -1.6240 h1        1 BFE      0.071200
     16 H10A        2.2840    1.1650   -0.0490 h1        1 BFE      0.071200
     17 H2         -3.5990   -2.6820   -0.3720 ha        1 BFE      0.138000
     18 H3         -1.1990   -2.0730   -0.2130 ha        1 BFE      0.143500
     19 HN9         0.4200   -0.8260   -1.2250 hn        1 BFE      0.310500
     20 H11         2.6010   -0.9930    1.2180 h1        1 BFE      0.078700
     21 H11A        2.8430   -1.8880   -0.3360 h1        1 BFE      0.078700
     22 HS12        4.7020    0.5570    0.8440 hs        1 BFE      0.205800
     23 H1         -5.3610   -0.9400   -0.0810 ha        1 BFE      0.136000
@<TRIPOS>BOND
     1    1    2 ar  
     2    1    4 1   
     3    1    7 ar  
     4    2    3 ar  
     5    2   13 1   
     6    3   12 ar  
     7    3   14 1   
     8    4    8 1   
     9    4   11 2   
    10    5    8 1   
    11    5    9 1   
    12    5   15 1   
    13    5   16 1   
    14    6    7 ar  
    15    6   12 ar  
    16    6   17 1   
    17    7   18 1   
    18    8   19 1   
    19    9   10 1   
    20    9   20 1   
    21    9   21 1   
    22   10   22 1   
    23   12   23 1   
@<TRIPOS>SUBSTRUCTURE
     1 BFE         1 TEMP              0 ****  ****    0 ROOT
