@<TRIPOS>MOLECULE
BFF
   56    56     1     0     0
SMALL
bcc


@<TRIPOS>ATOM
      1 NAA        -2.4130    4.1470   -1.3590 n         1 BFF     -0.414000
      2 OAB        -0.4450    4.4730   -2.4710 o         1 BFF     -0.441000
      3 OAC         1.0190   -0.1640    1.1600 o         1 BFF     -0.381000
      4 FAD         2.6580    7.9920   -0.9340 f         1 BFF     -0.087000
      5 FAE        -0.5580    8.9520    2.4810 f         1 BFF     -0.086000
      6 BRAF        0.9080   12.9010   -0.4250 br        1 BFF      0.084000
      7 CAG         1.8280   10.1820   -0.6030 c1        1 BFF     -0.166000
      8 CAH         0.0900   10.5520    1.0160 c1        1 BFF     -0.166000
      9 CAI        -0.4010   -3.8750   -0.4210 c3        1 BFF     -0.193000
     10 CAJ         0.1520   -5.2030    0.1400 c3        1 BFF     -0.157000
     11 CAK         0.0980   -9.9120   -0.3860 c3        1 BFF     -0.171000
     12 CAL        -1.1150   -9.7240    0.5270 c3        1 BFF     -0.171000
     13 CAM         0.3060   -2.6940    0.2590 c3        1 BFF     -0.039000
     14 CAN        -0.5680   -6.3980   -0.5520 c3        1 BFF     -0.065000
     15 CAO         0.3280   -8.7020   -0.9140 c3        1 BFF     -0.076500
     16 CAP        -1.3170   -8.1630    0.6460 c3        1 BFF     -0.076500
     17 CAQ         1.1060    6.8820    1.2190 c3        1 BFF      0.032000
     18 NAR         1.3110    3.9460    1.5820 n2        1 BFF     -0.442000
     19 NAS        -0.1480   -1.4460   -0.3450 n         1 BFF     -0.336000
     20 NAT        -0.1330    1.0400   -0.4330 n         1 BFF     -0.288000
     21 OAU         0.5320    6.0060    0.2190 os        1 BFF     -0.201000
     22 SAV         1.2010    2.4790    1.3340 ss        1 BFF      0.654000
     23 CAW        -0.9950    4.0730   -1.4700 c2        1 BFF      0.397000
     24 CAX         0.3120   -0.1920    0.1700 c2        1 BFF      0.379000
     25 CAY         0.9380   11.0380    0.0320 c1        1 BFF     -0.110000
     26 CAZ         1.8690    8.8370   -0.2520 c2        1 BFF      0.141000
     27 CBA         0.1310    9.2090    1.3660 c1        1 BFF      0.144000
     28 CBB         0.4960    4.6230    0.6070 c2        1 BFF      0.145000
     29 CBC         1.0210    8.3520    0.7310 c2        1 BFF     -0.161000
     30 CBD         0.2520    2.2770    0.1250 c2        1 BFF     -0.130000
     31 CBE        -0.1700    3.5470   -0.3090 c2        1 BFF     -0.303000
     32 NBF        -0.2320   -7.6370    0.1410 n3        1 BFF     -0.252000
     33 HNAA       -2.8070    4.1080   -0.5350 hn        1 BFF      0.233500
     34 HNAB       -2.9320    4.1520   -2.1140 hn        1 BFF      0.233500
     35 HAG         2.4640   10.5340   -1.2540 ha        1 BFF      0.171000
     36 HAH        -0.5330   11.1590    1.4700 ha        1 BFF      0.171000
     37 HAI        -1.3640   -3.8240   -0.2470 hc        1 BFF      0.086000
     38 HAIA       -0.2430   -3.8380   -1.3850 hc        1 BFF      0.086000
     39 HAJ        -0.0080   -5.2410    1.1140 hc        1 BFF      0.092000
     40 HAJA        1.1140   -5.2560   -0.0360 hc        1 BFF      0.092000
     41 HAK         0.8760  -10.2090    0.1380 hc        1 BFF      0.086250
     42 HAKA       -0.1070  -10.5650   -1.0990 hc        1 BFF      0.086250
     43 HAL        -1.9100  -10.1410    0.1250 hc        1 BFF      0.086250
     44 HALA       -0.9400  -10.1070    1.3980 hc        1 BFF      0.086250
     45 HAM         1.2770   -2.7810    0.1400 h1        1 BFF      0.114000
     46 HAMA        0.0930   -2.6920    1.2120 h1        1 BFF      0.114000
     47 HAN        -1.5430   -6.2560   -0.5180 h1        1 BFF      0.069500
     48 HANA       -0.2790   -6.4560   -1.4850 h1        1 BFF      0.069500
     49 HAO        -0.1430   -8.6130   -1.7630 h1        1 BFF      0.080500
     50 HAOA        1.2830   -8.5710   -1.0450 h1        1 BFF      0.080500
     51 HAP        -2.1050   -7.8810    0.1310 h1        1 BFF      0.080500
     52 HAPA       -1.4150   -7.9030    1.5880 h1        1 BFF      0.080500
     53 HAQ         0.6110    6.7880    2.0580 h1        1 BFF      0.119500
     54 HAQA        2.0430    6.6400    1.3660 h1        1 BFF      0.119500
     55 HNAS       -0.7760   -1.4620   -1.0030 hn        1 BFF      0.218000
     56 HNAT       -0.7190    1.0190   -1.1360 hn        1 BFF      0.283000
@<TRIPOS>BOND
     1    1   23 1   
     2    1   33 1   
     3    1   34 1   
     4    2   23 1   
     5    3   24 1   
     6    4   26 1   
     7    5   27 1   
     8    6   25 1   
     9    7   26 1   
    10    7   35 1   
    11    8   25 1   
    12    8   36 1   
    13    9   10 1   
    14    9   13 1   
    15    9   37 1   
    16    9   38 1   
    17   10   14 1   
    18   10   39 1   
    19   10   40 1   
    20   11   12 1   
    21   11   15 1   
    22   11   41 1   
    23   11   42 1   
    24   12   16 1   
    25   12   43 1   
    26   12   44 1   
    27   13   19 1   
    28   13   45 1   
    29   13   46 1   
    30   14   32 1   
    31   14   47 1   
    32   14   48 1   
    33   15   32 1   
    34   15   49 1   
    35   15   50 1   
    36   16   32 1   
    37   16   51 1   
    38   16   52 1   
    39   17   21 1   
    40   17   29 1   
    41   17   53 1   
    42   17   54 1   
    43   18   22 1   
    44   18   28 1   
    45   19   24 1   
    46   19   55 1   
    47   20   24 1   
    48   20   30 1   
    49   20   56 1   
    50   21   28 1   
    51   22   30 1   
    52   23   31 1   
    53   26   29 1   
    54   27   29 1   
    55   28   31 1   
    56   30   31 1   
@<TRIPOS>SUBSTRUCTURE
     1 BFF         1 TEMP              0 ****  ****    0 ROOT
