@<TRIPOS>MOLECULE
BFF
   59    56     1     0     0
SMALL
bcc


@<TRIPOS>ATOM
      1 NAA       -37.1050  886.2880  -95.6490 n4        1 BFF     -0.124000
      2 OAB       -35.4820  887.5820  -96.6400 o         1 BFF     -0.272000
      3 OAC       150.2470   50.3720  813.0200 o         1 BFF     -0.150000
      4 CAG       -39.3160  881.3610  -92.7640 c2        1 BFF     -0.042000
      5 CAH       -40.3540  883.2910  -93.8020 c1        1 BFF      0.004000
      6 CAI       151.8270   53.3470  814.0630 c3        1 BFF     -0.230500
      7 CAJ       151.3800   54.5480  813.2830 c3        1 BFF     -0.230500
      8 CAK       -85.9470-1907.5970 -726.3980 c3        1 BFF     -0.472000
      9 CAL       -85.3290-1906.7980 -727.3930 c1        1 BFF      0.553000
     10 CAM       151.2640   50.5620  810.8700 c2        1 BFF      0.053000
     11 CAN       -89.1590-1906.1250 -726.6900 c1        1 BFF      0.253000
     12 CAO       -87.0530-1907.0140 -725.4910 c3        1 BFF      0.041000
     13 CAP       -85.9790-1904.3910 -727.8760 c3        1 BFF     -0.124000
     14 CAQ       -37.2610  882.2390  -95.9000 c3        1 BFF      0.036000
     15 NAR       -35.1360  882.9320  -97.5830 n2        1 BFF     -0.368000
     16 SAV       -33.9550  883.6250  -98.4830 ss        1 BFF      0.605000
     17 CAW       -35.8800  886.4200  -96.5210 c2        1 BFF      0.356000
     18 CAX       150.4190   49.8570  811.9280 c2        1 BFF      0.179000
     19 CAY       -40.3640  882.2280  -92.8530 c2        1 BFF     -0.243000
     20 CAZ       -38.2480  881.3990  -93.7630 c2        1 BFF      0.122000
     21 CBA       -39.5180  883.1160  -95.0140 c3        1 BFF      0.050000
     22 CBB       -35.7940  883.8540  -96.8990 c2        1 BFF      0.174000
     23 CBC       -38.3040  882.2390  -94.8390 c2        1 BFF     -0.211000
     24 CBD       -34.2450  885.2460  -98.0130 c2        1 BFF     -0.063000
     25 CBE       -35.3540  885.2350  -97.0940 c2        1 BFF     -0.407000
     26 NBF       -88.1550-1906.5250 -726.1960 n2        1 BFF     -0.425000
     27 HNAA      -37.8880  885.9210  -96.2080 hn        1 BFF      0.269000
     28 HNAB      -36.9320  885.6100  -94.8980 hn        1 BFF      0.269000
     29 HAG       -39.2060  880.6220  -91.9490 ha        1 BFF      0.190000
     30 HAH       -40.2200  882.5760  -95.7480 h1        1 BFF      0.174000
     31 HAI       152.3730   52.1730  810.3400 hn        1 BFF      0.302000
     32 HAIA      151.3920   50.0240  809.8980 h4        1 BFF      0.219000
     33 HAJ       151.3160   54.3260  812.1890 hc        1 BFF      0.078167
     34 HAJA      151.9020   53.6000  815.1510 hc        1 BFF      0.078167
     35 HAL       -85.5910-1904.4890 -728.9120 hc        1 BFF      0.097750
     36 HALA      -85.8580-1905.4640 -727.3560 hc        1 BFF      0.097750
     37 HAM       151.0980   52.5030  813.9670 hc        1 BFF      0.078167
     38 HAMA      152.8350   53.0000  813.7290 hc        1 BFF      0.078167
     39 HAN       152.0950   55.3960  813.4200 hc        1 BFF      0.078167
     40 HANA      150.3710   54.8890  813.6250 hc        1 BFF      0.078167
     41 HAO       -86.3480-1908.5330 -726.9310 hc        1 BFF      0.251500
     42 HAOA      -86.6020-1906.1870 -724.8660 h1        1 BFF      0.139500
     43 HAP       -87.0680-1904.1720 -727.8400 hc        1 BFF      0.097750
     44 HAPA      -85.3740-1903.6960 -727.2570 hc        1 BFF      0.097750
     45 HAQ       -36.3810  881.6000  -95.6180 h1        1 BFF      0.134500
     46 HAQA      -37.6850  881.9100  -96.8860 h1        1 BFF      0.134500
     47 OAU       -36.8250  883.6200  -96.0310 os        1 BFF     -0.232000
     48 FAE       -39.1920  884.3380  -95.5920 f         1 BFF     -0.173000
     49 BRAF      -41.7880  882.1780  -91.6560 br        1 BFF      0.156000
     50 NAS       151.8180   51.7190  811.0510 n3        1 BFF     -0.112000
     51 HAK       -87.3870-1907.8400 -724.7900 h1        1 BFF      0.139500
     52 HNAS      150.0110   48.8800  811.5910 h4        1 BFF      0.198000
     53 HAA3      -37.3560  887.1990  -95.2530 hn        1 BFF      0.269000
     54 HAS2      151.7160   52.2300  811.9280 hn        1 BFF      0.302000
     55 NAT       -33.5740  886.3260  -98.4200 nh        1 BFF     -0.279000
     56 FAD       -37.2170  880.5470  -93.5720 f         1 BFF     -0.071000
     57 HAKA      -85.1210-1908.0060 -725.7150 hc        1 BFF      0.251500
     58 HNAT      -32.8200  886.2420  -99.0640 hn        1 BFF      0.269500
     59 HAT2      -33.8150  887.2340  -98.0810 hn        1 BFF      0.269500
@<TRIPOS>BOND
     1    1   17 1   
     2    1   27 1   
     3    1   28 1   
     4    1   53 1   
     5    2   17 1   
     6    3   18 1   
     7    4   19 1   
     8    4   20 1   
     9    4   29 1   
    10    5   19 1   
    11    5   21 1   
    12    6    7 1   
    13    6   34 1   
    14    6   37 1   
    15    6   38 1   
    16    7   33 1   
    17    7   39 1   
    18    7   40 1   
    19    8    9 1   
    20    8   12 1   
    21    8   41 1   
    22    8   57 1   
    23   10   18 1   
    24   10   32 1   
    25   10   50 1   
    26   11   26 1   
    27   12   26 1   
    28   12   42 1   
    29   12   51 1   
    30   13   35 1   
    31   13   36 1   
    32   13   43 1   
    33   13   44 1   
    34   14   23 1   
    35   14   45 1   
    36   14   46 1   
    37   14   47 1   
    38   15   16 1   
    39   15   22 1   
    40   16   24 1   
    41   17   25 1   
    42   18   52 1   
    43   19   49 1   
    44   20   23 1   
    45   20   56 1   
    46   21   23 1   
    47   21   30 1   
    48   21   48 1   
    49   22   25 1   
    50   22   47 1   
    51   24   25 1   
    52   24   55 1   
    53   31   50 1   
    54   50   54 1   
    55   55   58 1   
    56   55   59 1   
@<TRIPOS>SUBSTRUCTURE
     1 BFF         1 TEMP              0 ****  ****    0 ROOT
