@<TRIPOS>MOLECULE
BFF
   58    55     1     0     0
SMALL
bcc


@<TRIPOS>ATOM
      1 NAA       -53.8690  152.0390   20.0130 nz        1 BFF     -0.127000
      2 OAB       -56.0050  152.7050   19.4900 o         1 BFF     -0.266000
      3 OAC       -58.8530  149.5560   16.4880 o         1 BFF     -0.278000
      4 CAG       -49.3000  149.9960   20.8650 c2        1 BFF     -0.038000
      5 CAH       -49.1050  147.5660   21.0180 c1        1 BFF      0.034000
      6 CAI        76.7620 -204.8890  -23.6200 c3        1 BFF     -0.198000
      7 CAJ        77.7160 -204.4870  -22.5200 c3        1 BFF     -0.221000
      8 CAK        72.7040 -209.3650  -24.1110 c2        1 BFF     -0.072000
      9 CAL        73.8450 -208.7830  -23.9170 c1        1 BFF     -0.146000
     10 CAM        78.3730 -208.7840  -23.0030 c1        1 BFF      0.011000
     11 CAN        76.4660 -206.3470  -23.5500 c2        1 BFF      0.094000
     12 CAO        75.0340 -208.2680  -23.7070 c2        1 BFF     -0.095000
     13 CAP        74.6940 -202.2300  -22.0780 c3        1 BFF     -0.271000
     14 CAQ       -52.3090  148.4030   19.0140 c3        1 BFF      0.023000
     15 NAR       -54.7890  148.4410   17.7750 n2        1 BFF     -0.411000
     16 SAV       -56.3020  148.6880   17.2110 ss        1 BFF      0.771000
     17 CAW       -55.1980  151.7850   19.3400 c2        1 BFF      0.356000
     18 CAX       -58.7970  150.6300   17.0890 c2        1 BFF      0.267000
     19 CAY       -48.5990  148.8880   21.2300 c2        1 BFF     -0.247000
     20 CAZ       -50.5630  149.8610   20.1480 c2        1 BFF      0.065000
     21 CBA       -50.2450  147.4050   20.0840 c3        1 BFF      0.039000
     22 CBB       -54.3830  149.4690   18.5050 c2        1 BFF      0.170000
     23 CBC       -51.0590  148.6480   19.7780 c2        1 BFF     -0.157000
     24 CBD       -56.5350  150.2160   17.9090 c2        1 BFF     -0.136000
     25 CBE       -55.3430  150.5630   18.6350 c2        1 BFF     -0.383000
     26 NBF        75.2810 -206.8670  -23.7590 n7        1 BFF     -0.066000
     27 HNAA      -53.6470  151.2670   20.6530 hn        1 BFF      0.267333
     28 HNAB      -53.1230  152.0650   19.3050 hn        1 BFF      0.267333
     29 HAG       -48.9660  151.0240   21.0920 ha        1 BFF      0.176000
     30 HAH       -49.6990  147.1300   19.1070 h1        1 BFF      0.173000
     31 HAI        77.3230 -207.0470  -23.3090 h4        1 BFF      0.251000
     32 HAIA      -56.6220  146.6040   16.3970 ha        1 BFF      0.023500
     33 HAJ        77.9680 -203.4030  -22.6310 hc        1 BFF      0.106333
     34 HAJA       75.8340 -204.2530  -23.5660 hc        1 BFF      0.143000
     35 HAL        73.9880 -202.5350  -21.2750 hc        1 BFF      0.068250
     36 HALA       74.2910 -202.5410  -23.0660 hc        1 BFF      0.068250
     37 HAM       -56.3640  146.8990   15.8340 ha        1 BFF      0.023500
     38 HAMA       77.2400 -204.6990  -24.6260 hc        1 BFF      0.143000
     39 HAN        78.6640 -205.0760  -22.5720 hc        1 BFF      0.106333
     40 HANA       77.2530 -204.6370  -21.5150 hc        1 BFF      0.106333
     41 HAO        72.3760 -209.7010  -25.1110 ha        1 BFF      0.177000
     42 HAOA       75.9330 -208.8810  -23.4740 h4        1 BFF      0.209000
     43 HAP        74.8150 -201.1240  -22.0610 hc        1 BFF      0.068250
     44 HAPA       75.6840 -202.7110  -21.9070 hc        1 BFF      0.068250
     45 HAQ       -52.0740  148.2300   17.9280 h1        1 BFF      0.144500
     46 HAQA      -52.8590  147.5150   19.4370 h1        1 BFF      0.144500
     47 OAU       -53.1620  149.5740   19.1230 os        1 BFF     -0.240000
     48 FAE       -51.0610  146.3380   20.4240 f         1 BFF     -0.114000
     49 BrAF      -46.9690  149.0200   22.1210 br        1 BFF      0.152000
     50 NAS        79.1950 -209.5920  -22.7890 n2        1 BFF     -0.298000
     51 HAK        74.4890 -206.2780  -23.9700 hn        1 BFF      0.263000
     52 HNAS      -59.6040  151.3970   17.1290 h5        1 BFF      0.189000
     53 HAA3      -53.8970  152.9260   20.5260 hn        1 BFF      0.267333
     54 HAS2       79.8770 -210.2620  -22.6120 hn        1 BFF      0.307000
     55 NAT       -57.6450  150.9970   17.8140 ns        1 BFF     -0.290000
     56 FAD       -51.2150  151.0220   19.8730 f         1 BFF     -0.137000
     57 HAKA       71.9960 -209.5660  -23.2880 ha        1 BFF      0.177000
     58 HNAT      -57.6440  151.8800   18.2910 hn        1 BFF      0.272000
@<TRIPOS>BOND
     1    1   17 1   
     2    1   27 1   
     3    1   28 1   
     4    1   53 1   
     5    2   17 1   
     6    3   18 1   
     7    4   19 1   
     8    4   20 1   
     9    4   29 1   
    10    5   19 1   
    11    5   21 1   
    12    6    7 1   
    13    6   11 1   
    14    6   34 1   
    15    6   38 1   
    16    7   33 1   
    17    7   39 1   
    18    7   40 1   
    19    8    9 1   
    20    8   41 1   
    21    8   57 1   
    22    9   12 1   
    23   10   50 1   
    24   11   26 1   
    25   11   31 1   
    26   12   26 1   
    27   12   42 1   
    28   13   35 1   
    29   13   36 1   
    30   13   43 1   
    31   13   44 1   
    32   14   23 1   
    33   14   45 1   
    34   14   46 1   
    35   14   47 1   
    36   15   16 1   
    37   15   22 1   
    38   16   24 1   
    39   17   25 1   
    40   18   52 1   
    41   18   55 1   
    42   19   49 1   
    43   20   23 1   
    44   20   56 1   
    45   21   23 1   
    46   21   30 1   
    47   21   48 1   
    48   22   25 1   
    49   22   47 1   
    50   24   25 1   
    51   24   55 1   
    52   26   51 1   
    53   32   37 1   
    54   50   54 1   
    55   55   58 1   
@<TRIPOS>SUBSTRUCTURE
     1 BFF         1 TEMP              0 ****  ****    0 ROOT
