@<TRIPOS>MOLECULE
BFF
   58    56     1     0     0
SMALL
bcc


@<TRIPOS>ATOM
      1 NAA        -5.5290  145.7990   15.9050 n4        1 BFF     -0.128000
      2 OAB        -6.4470  147.8740   15.5380 o         1 BFF     -0.276000
      3 OAC        -5.6700  150.0040   10.8410 o         1 BFF     -0.390000
      4 CAG        -3.1530  141.3010   16.1320 c2        1 BFF     -0.035000
      5 CAH        -2.9190  139.9770   14.0940 c1        1 BFF      0.031000
      6 CAI        13.1940 -246.4580  -22.4710 c3        1 BFF     -0.207500
      7 CAJ        12.8000 -246.0950  -21.0800 c3        1 BFF     -0.207500
      8 CAK        14.2940 -251.0740  -19.3200 c3        1 BFF     -0.359000
      9 CAL        12.9120 -250.8420  -18.8590 c1        1 BFF      0.313000
     10 CAM        -4.8190  151.6190   12.8950 c1        1 BFF     -0.252000
     11 CAN        13.5570 -249.0780  -22.1580 c1        1 BFF      0.481000
     12 CAO        13.2790 -250.6130  -20.3410 c3        1 BFF     -0.292000
     13 CAP        12.6390 -248.1830  -17.8320 c3        1 BFF     -0.292000
     14 CAQ        -3.4990  143.6680   13.0820 c3        1 BFF      0.022000
     15 NAR        -4.0880  146.0660   11.8290 n2        1 BFF     -0.409000
     16 SAV        -4.6170  147.5180   11.3000 ss        1 BFF      0.738000
     17 CAW        -5.7850  146.9830   14.9980 c2        1 BFF      0.356000
     18 CAX        -6.2190  150.1510   11.9470 c2        1 BFF      0.349000
     19 CAY        -2.8870  140.1170   15.5170 c2        1 BFF     -0.249000
     20 CAZ        -3.3890  142.5020   15.3390 c2        1 BFF      0.061000
     21 CBA        -2.9140  141.2160   13.2780 c3        1 BFF      0.039000
     22 CBB        -4.4680  145.8460   13.0760 c2        1 BFF      0.163000
     23 CBC        -3.3100  142.5000   13.9800 c2        1 BFF     -0.152000
     24 CBD        -5.4130  147.9810   12.7310 c2        1 BFF     -0.097000
     25 CBE        -5.2450  146.9190   13.6930 c2        1 BFF     -0.400000
     26 NBF        13.2850 -249.2870  -20.9130 n3        1 BFF     -0.251000
     27 HNAA       -5.8430  144.9350   15.4490 hn        1 BFF      0.264000
     28 HNAB       -4.5180  145.7020   16.0650 hn        1 BFF      0.264000
     29 HAG        -3.2110  141.4120   17.2290 ha        1 BFF      0.175000
     30 HAH        -1.7920  141.3180   13.0330 h1        1 BFF      0.173000
     31 HAI        -3.4200  152.8860   12.1090 hn        1 BFF      0.223500
     32 HAIA       -4.7480  151.9650   13.9380 ha        1 BFF      0.106000
     33 HAJ        12.5750 -244.9950  -21.0380 hc        1 BFF      0.100667
     34 HAJA       13.4590 -247.5980  -22.5500 hc        1 BFF      0.100667
     35 HAL        12.5400 -247.3250  -18.5350 hc        1 BFF      0.077250
     36 HALA       11.7930 -248.8940  -17.9710 hc        1 BFF      0.077250
     37 HAM        12.3700 -246.2990  -23.2090 hc        1 BFF      0.100667
     38 HAMA       14.1190 -245.9290  -22.8090 hc        1 BFF      0.100667
     39 HAN        11.8760 -246.6330  -20.7530 hc        1 BFF      0.100667
     40 HANA       13.6220 -246.2930  -20.3480 hc        1 BFF      0.100667
     41 HAO        15.1040 -250.4100  -18.9460 hc        1 BFF      0.201500
     42 HAOA       12.9300 -251.3750  -21.0820 h1        1 BFF      0.200000
     43 HAP        13.6110 -248.7020  -17.9990 hc        1 BFF      0.077250
     44 HAPA       12.6160 -247.7990  -16.7870 hc        1 BFF      0.077250
     45 HAQ        -4.1220  143.3760   12.1900 h1        1 BFF      0.143500
     46 HAQA       -2.5010  144.0590   12.7400 h1        1 BFF      0.143500
     47 OAU        -4.1860  144.7180   13.8090 os        1 BFF     -0.242000
     48 FAE        -3.5930  141.0640   12.0800 f         1 BFF     -0.114000
     49 BRAF       -2.5560  138.5680   16.4970 br        1 BFF      0.148000
     50 NAS        -4.0860  152.1500   11.9790 n3        1 BFF     -0.173000
     51 HAK        13.0240 -248.5550  -20.2500 hn        1 BFF      0.297000
     52 HNAS       -7.0000  150.8990   12.2010 h5        1 BFF      0.169000
     53 HAA3       -6.0140  145.9270   16.7970 hn        1 BFF      0.264000
     54 HAS2       -4.1750  151.8160   11.0350 hn        1 BFF      0.223500
     55 NAT        -6.1140  149.1170   12.9280 n         1 BFF     -0.270000
     56 FAD        -3.6950  143.6250   16.0440 f         1 BFF     -0.136000
     57 HAKA       14.6980 -252.1050  -19.4470 hc        1 BFF      0.201500
     58 HNAT       -6.4840  149.2990   13.8420 hn        1 BFF      0.266000
@<TRIPOS>BOND
     1    1   17 1   
     2    1   27 1   
     3    1   28 1   
     4    1   53 1   
     5    2   17 1   
     6    3   18 1   
     7    4   19 1   
     8    4   20 1   
     9    4   29 1   
    10    5   19 1   
    11    5   21 1   
    12    6    7 1   
    13    6   34 1   
    14    6   37 1   
    15    6   38 1   
    16    7   33 1   
    17    7   39 1   
    18    7   40 1   
    19    8    9 1   
    20    8   12 1   
    21    8   41 1   
    22    8   57 1   
    23    9   12 1   
    24   10   32 1   
    25   10   50 1   
    26   11   26 1   
    27   12   26 1   
    28   12   42 1   
    29   13   35 1   
    30   13   36 1   
    31   13   43 1   
    32   13   44 1   
    33   14   23 1   
    34   14   45 1   
    35   14   46 1   
    36   14   47 1   
    37   15   16 1   
    38   15   22 1   
    39   16   24 1   
    40   17   25 1   
    41   18   52 1   
    42   18   55 1   
    43   19   49 1   
    44   20   23 1   
    45   20   56 1   
    46   21   23 1   
    47   21   30 1   
    48   21   48 1   
    49   22   25 1   
    50   22   47 1   
    51   24   25 1   
    52   24   55 1   
    53   26   51 1   
    54   31   50 1   
    55   50   54 1   
    56   55   58 1   
@<TRIPOS>SUBSTRUCTURE
     1 BFF         1 TEMP              0 ****  ****    0 ROOT
