@<TRIPOS>MOLECULE
BFF
   56    58     1     0     0
SMALL
bcc


@<TRIPOS>ATOM
      1 NAA         1.4930   -2.2650    0.6740 n         1 BFF     -0.654000
      2 OAB        -0.5130   -2.4560    1.6830 o         1 BFF     -0.679100
      3 OAC        -3.9160    1.2580    0.9520 o         1 BFF     -0.622100
      4 CAG         6.0300   -0.2360   -2.2060 ca        1 BFF     -0.165500
      5 CAH         6.5210    0.5830    0.0210 ca        1 BFF     -0.165500
      6 CAI        -6.9250   -0.7950    0.8560 c3        1 BFF     -0.114400
      7 CAJ        -8.3500   -0.2900    0.9180 c3        1 BFF     -0.078400
      8 CAK       -12.2960   -0.3600   -1.9150 c3        1 BFF     -0.092400
      9 CAL       -11.9140    1.0520   -1.4920 c3        1 BFF     -0.092400
     10 CAM        -6.1010   -0.1570    1.9760 c3        1 BFF      0.078000
     11 CAN        -9.1730   -0.9170   -0.2080 c3        1 BFF      0.171800
     12 CAO       -11.4130   -1.3080   -1.0890 c3        1 BFF      0.159800
     13 CAP       -10.8060    0.8980   -0.4390 c3        1 BFF      0.159800
     14 CAQ         2.8820    1.4150   -0.8000 c3        1 BFF      0.189700
     15 NAR         0.1780    1.7780   -0.3220 nc        1 BFF     -0.663100
     16 SAV        -1.3970    1.7370    0.0800 ss        1 BFF      0.340200
     17 CAW         0.2770   -1.7380    1.0140 c         1 BFF      0.722700
     18 CAX        -3.7400    0.0900    1.3760 c         1 BFF      0.752100
     19 CAY         6.9230   -0.0590   -1.1500 ca        1 BFF      0.030100
     20 CAZ         4.7100    0.2350   -2.0850 ca        1 BFF      0.177400
     21 CBA         5.2000    1.0530    0.1370 ca        1 BFF      0.177400
     22 CBB         0.7670    0.6220   -0.0180 cd        1 BFF      0.643600
     23 CBC         4.2740    0.8890   -0.9140 ca        1 BFF     -0.168300
     24 CBD        -1.3990    0.1460    0.7000 cc        1 BFF      0.133500
     25 CBE        -0.0920   -0.3860    0.5800 cd        1 BFF     -0.387900
     26 NBF       -10.5710   -0.5240   -0.1820 n3        1 BFF     -0.726600
     27 HNAA        1.7310   -3.1650    1.0120 hn        1 BFF      0.320500
     28 HNAB        2.1750   -1.7390    0.1910 hn        1 BFF      0.320500
     29 HAG         6.3350   -0.7400   -3.1360 ha        1 BFF      0.171000
     30 HAH         7.2170    0.7310    0.8620 ha        1 BFF      0.171000
     31 HAI        -6.9160   -1.9130    0.9550 hc        1 BFF      0.046700
     32 HAIA       -6.4750   -0.5420   -0.1400 hc        1 BFF      0.046700
     33 HAJ        -8.8040   -0.5490    1.9110 hc        1 BFF      0.052200
     34 HAJA       -8.3600    0.8280    0.8270 hc        1 BFF      0.052200
     35 HAKA      -12.1200   -0.5150   -3.0070 hc        1 BFF      0.046950
     36 HAL       -11.5460    1.6470   -2.3630 hc        1 BFF      0.046950
     37 HALA      -12.7910    1.5910   -1.0580 hc        1 BFF      0.046950
     38 HAM        -6.1030    0.9630    1.8420 h1        1 BFF      0.074200
     39 HAMA       -6.5830   -0.3970    2.9680 h1        1 BFF      0.074200
     40 HAN        -8.6770   -0.6640   -1.1930 h1        1 BFF      0.030200
     41 HANA       -9.1380   -2.0380   -0.0920 h1        1 BFF      0.030200
     42 HAO       -12.0480   -1.9770   -0.4470 h1        1 BFF      0.041700
     43 HAOA      -10.8090   -1.9640   -1.7740 h1        1 BFF      0.041700
     44 HAP        -9.8750    1.4290   -0.7810 h1        1 BFF      0.041700
     45 HAPA      -11.1240    1.3610    0.5350 h1        1 BFF      0.041700
     46 HAQ         2.4650    1.6730   -1.8100 h1        1 BFF      0.080200
     47 HAQA        2.8430    2.3080   -0.1210 h1        1 BFF      0.080200
     48 NAT        -2.4770   -0.5290    1.2080 n         1 BFF     -0.434100
     49 OAU         2.0970    0.3460   -0.2230 os        1 BFF     -0.443100
     50 FAD         3.8560    0.0590   -3.1200 f         1 BFF     -0.121400
     51 FAE         4.8260    1.6780    1.2770 f         1 BFF     -0.121400
     52 BRAF        8.6790   -0.6890   -1.3050 br        1 BFF     -0.056100
     53 NAS        -4.7360   -0.6120    2.0680 n         1 BFF     -0.525900
     54 HAK       -13.3760   -0.5610   -1.7120 hc        1 BFF      0.046950
     55 HNAS       -4.6210   -1.5960    2.1760 hn        1 BFF      0.304500
     56 HNAT       -2.2950   -1.4350    1.6070 hn        1 BFF      0.369500
@<TRIPOS>BOND
     1    1   17 1   
     2    1   27 1   
     3    1   28 1   
     4    2   17 2   
     5    3   18 2   
     6    4   19 ar  
     7    4   20 ar  
     8    4   29 1   
     9    5   19 ar  
    10    5   21 ar  
    11    5   30 1   
    12    6    7 1   
    13    6   10 1   
    14    6   31 1   
    15    6   32 1   
    16    7   11 1   
    17    7   33 1   
    18    7   34 1   
    19    8    9 1   
    20    8   12 1   
    21    8   35 1   
    22    8   54 1   
    23    9   13 1   
    24    9   36 1   
    25    9   37 1   
    26   10   38 1   
    27   10   39 1   
    28   10   53 1   
    29   11   26 1   
    30   11   40 1   
    31   11   41 1   
    32   12   26 1   
    33   12   42 1   
    34   12   43 1   
    35   13   26 1   
    36   13   44 1   
    37   13   45 1   
    38   14   23 1   
    39   14   46 1   
    40   14   47 1   
    41   14   49 1   
    42   15   16 1   
    43   15   22 2   
    44   16   24 1   
    45   17   25 1   
    46   18   48 1   
    47   18   53 1   
    48   19   52 1   
    49   20   23 ar  
    50   20   50 1   
    51   21   23 ar  
    52   21   51 1   
    53   22   25 1   
    54   22   49 1   
    55   24   25 2   
    56   24   48 1   
    57   48   56 1   
    58   53   55 1   
@<TRIPOS>SUBSTRUCTURE
     1 BFF         1 TEMP              0 ****  ****    0 ROOT
