@<TRIPOS>MOLECULE
BFG
   39    40     1     0     0
SMALL
bcc


@<TRIPOS>ATOM
      1 C4         -1.2150   -1.1540   -0.1190 ca        1 BFG     -0.078300
      2 C5         -1.6640   -1.6300    1.1180 ca        1 BFG     -0.123000
      3 C6         -1.7230   -2.9990    1.3670 ca        1 BFG     -0.129000
      4 C7         -1.1380    0.3180   -0.4030 c3        1 BFG      0.027900
      5 C8         -2.4490    0.9950   -0.1350 ca        1 BFG     -0.078300
      6 C10        -4.0010    2.1370    1.3370 ca        1 BFG     -0.129000
      7 C13        -3.3740    1.1190   -1.1810 ca        1 BFG     -0.123000
      8 C15         1.3330    0.7480   -0.2910 c         1 BFG      0.660100
      9 C2         -0.8880   -3.4400   -0.8530 ca        1 BFG     -0.129000
     10 C3         -0.8280   -2.0700   -1.1050 ca        1 BFG     -0.123000
     11 C14        -0.0060    0.9670    0.3930 c3        1 BFG     -0.142400
     12 N17         2.3870    0.3150    0.4890 n         1 BFG     -0.570900
     13 C18         3.7140    0.1370   -0.0250 c3        1 BFG      0.101000
     14 C19         4.6730    1.2800    0.3020 c3        1 BFG     -0.024300
     15 S20         6.2980    0.6900   -0.0790 sh        1 BFG     -0.369900
     16 O16         1.4800    0.9570   -1.5120 o         1 BFG     -0.611100
     17 C12        -4.6010    1.7440   -0.9660 ca        1 BFG     -0.129000
     18 C11        -4.9180    2.2550    0.2920 ca        1 BFG     -0.128500
     19 C9         -2.7740    1.5100    1.1250 ca        1 BFG     -0.123000
     20 C1         -1.3350   -3.9070    0.3820 ca        1 BFG     -0.128500
     21 H5         -1.9830   -0.9150    1.8920 ha        1 BFG      0.134000
     22 H6         -2.0800   -3.3640    2.3420 ha        1 BFG      0.131750
     23 H7         -0.8960    0.4590   -1.5010 hc        1 BFG      0.091700
     24 H10        -4.2460    2.5390    2.3310 ha        1 BFG      0.131750
     25 H13        -3.1300    0.7200   -2.1770 ha        1 BFG      0.134000
     26 H2         -0.5810   -4.1520   -1.6330 ha        1 BFG      0.131750
     27 H3         -0.4700   -1.7070   -2.0810 ha        1 BFG      0.134000
     28 H14        -0.1680    2.0780    0.4310 hc        1 BFG      0.068200
     29 H14A       -0.0120    0.5780    1.4440 hc        1 BFG      0.068200
     30 HN17        2.2590    0.2160    1.4670 hn        1 BFG      0.308500
     31 H18         4.1330   -0.8190    0.4080 h1        1 BFG      0.076700
     32 H18A        3.6550    0.0230   -1.1470 h1        1 BFG      0.076700
     33 H19         4.4200    2.1840   -0.3020 h1        1 BFG      0.065700
     34 H19A        4.6180    1.5600    1.3820 h1        1 BFG      0.065700
     35 HS20        6.9230    1.8500   -0.1720 hs        1 BFG      0.204800
     36 H12        -5.3210    1.8350   -1.7940 ha        1 BFG      0.131750
     37 H11        -5.8860    2.7490    0.4600 ha        1 BFG      0.131500
     38 H9         -2.0600    1.4240    1.9570 ha        1 BFG      0.134000
     39 H1         -1.3820   -4.9880    0.5790 ha        1 BFG      0.131500
@<TRIPOS>BOND
     1    1    2 ar  
     2    1    4 1   
     3    1   10 ar  
     4    2    3 ar  
     5    2   21 1   
     6    3   20 ar  
     7    3   22 1   
     8    4    5 1   
     9    4   11 1   
    10    4   23 1   
    11    5    7 ar  
    12    5   19 ar  
    13    6   18 ar  
    14    6   19 ar  
    15    6   24 1   
    16    7   17 ar  
    17    7   25 1   
    18    8   11 1   
    19    8   12 1   
    20    8   16 2   
    21    9   10 ar  
    22    9   20 ar  
    23    9   26 1   
    24   10   27 1   
    25   11   28 1   
    26   11   29 1   
    27   12   13 1   
    28   12   30 1   
    29   13   14 1   
    30   13   31 1   
    31   13   32 1   
    32   14   15 1   
    33   14   33 1   
    34   14   34 1   
    35   15   35 1   
    36   17   18 ar  
    37   17   36 1   
    38   18   37 1   
    39   19   38 1   
    40   20   39 1   
@<TRIPOS>SUBSTRUCTURE
     1 BFG         1 TEMP              0 ****  ****    0 ROOT
