@<TRIPOS>MOLECULE
BFG
   40    41     1     0     0
SMALL
bcc


@<TRIPOS>ATOM
      1 C4          0.2640   -0.4250   -0.5880 ca        1 BFG     -0.127800
      2 C5          1.6480   -0.2440   -0.7060 ca        1 BFG     -0.133250
      3 C6          2.4880   -0.5100    0.3730 ca        1 BFG     -0.117250
      4 C7         -0.6610   -0.1010   -1.7230 c3        1 BFG      0.037900
      5 C8         -0.5750    1.3450   -2.1110 ca        1 BFG     -0.127800
      6 C10         0.4310    3.1640   -3.3540 ca        1 BFG     -0.117250
      7 C13        -1.4800    2.2500   -1.5400 ca        1 BFG     -0.133250
      8 C15        -0.9150   -2.3830   -2.7520 c         1 BFG      0.547100
      9 C2          0.5760   -1.1310    1.7110 ca        1 BFG     -0.117250
     10 C3         -0.2670   -0.8670    0.6320 ca        1 BFG     -0.133250
     11 C14        -0.3920   -0.9890   -2.9410 c3        1 BFG     -0.157400
     12 N17        -0.1800   -3.2130   -1.7160 n4        1 BFG     -0.689800
     13 C18        -0.7670   -4.5710   -1.5060 c3        1 BFG      0.101800
     14 C19         0.0260   -5.4150   -0.5240 c3        1 BFG     -0.061300
     15 S20        -0.9100   -6.8390   -0.1090 sh        1 BFG     -0.253900
     16 O16        -1.8450   -2.9210   -3.3280 o         1 BFG     -0.400100
     17 C12        -1.4250    3.6020   -1.8750 ca        1 BFG     -0.117250
     18 C11        -0.4710    4.0620   -2.7820 ca        1 BFG     -0.107000
     19 C9          0.3810    1.8120   -3.0200 ca        1 BFG     -0.133250
     20 C1          1.9540   -0.9570    1.5830 ca        1 BFG     -0.107000
     21 H5          2.0690    0.1540   -1.6440 ha        1 BFG      0.136000
     22 H6          3.5730   -0.3470    0.2770 ha        1 BFG      0.152750
     23 H7         -1.7240   -0.2970   -1.3870 hc        1 BFG      0.072700
     24 H10         1.1850    3.5230   -4.0710 ha        1 BFG      0.152750
     25 H13        -2.2360    1.8970   -0.8220 ha        1 BFG      0.136000
     26 H2          0.1490   -1.4550    2.6740 ha        1 BFG      0.152750
     27 H3         -1.3570   -0.9570    0.7610 ha        1 BFG      0.136000
     28 H14        -0.9220   -0.5550   -3.8380 hc        1 BFG      0.116700
     29 H14A        0.7070   -1.0220   -3.1700 hc        1 BFG      0.116700
     30 HN17        0.7970   -3.3040   -2.0100 hn        1 BFG      0.463800
     31 H18        -1.8250   -4.4330   -1.1340 hx        1 BFG      0.120200
     32 H18A       -0.8200   -5.0810   -2.5120 hx        1 BFG      0.120200
     33 H19         0.1820   -4.8710    0.4450 h1        1 BFG      0.096700
     34 H19A        1.0320   -5.6720   -0.9370 h1        1 BFG      0.096700
     35 HS20       -0.5410   -7.6510   -1.0860 hs        1 BFG      0.211800
     36 H12        -2.1390    4.3070   -1.4200 ha        1 BFG      0.152750
     37 H11        -0.4290    5.1300   -3.0460 ha        1 BFG      0.155500
     38 H9          1.1020    1.1200   -3.4790 ha        1 BFG      0.136000
     39 H1          2.6180   -1.1500    2.4420 ha        1 BFG      0.155500
     40 H172       -0.1890   -2.6900   -0.8220 hn        1 BFG      0.463800
@<TRIPOS>BOND
     1    1    2 ar  
     2    1    4 1   
     3    1   10 ar  
     4    2    3 ar  
     5    2   21 1   
     6    3   20 ar  
     7    3   22 1   
     8    4    5 1   
     9    4   11 1   
    10    4   23 1   
    11    5    7 ar  
    12    5   19 ar  
    13    6   18 ar  
    14    6   19 ar  
    15    6   24 1   
    16    7   17 ar  
    17    7   25 1   
    18    8   11 1   
    19    8   12 1   
    20    8   16 2   
    21    9   10 ar  
    22    9   20 ar  
    23    9   26 1   
    24   10   27 1   
    25   11   28 1   
    26   11   29 1   
    27   12   13 1   
    28   12   30 1   
    29   12   40 1   
    30   13   14 1   
    31   13   31 1   
    32   13   32 1   
    33   14   15 1   
    34   14   33 1   
    35   14   34 1   
    36   15   35 1   
    37   17   18 ar  
    38   17   36 1   
    39   18   37 1   
    40   19   38 1   
    41   20   39 1   
@<TRIPOS>SUBSTRUCTURE
     1 BFG         1 TEMP              0 ****  ****    0 ROOT
