@<TRIPOS>MOLECULE
BFG
   40    41     1     0     0
SMALL
bcc


@<TRIPOS>ATOM
      1 C4          0.2590   -0.4300   -0.5820 ca        1 BFG     -0.127800
      2 C5          1.6420   -0.2450   -0.6910 ca        1 BFG     -0.133250
      3 C6          2.4770   -0.5190    0.3920 ca        1 BFG     -0.117250
      4 C7         -0.6610   -0.0990   -1.7190 c3        1 BFG      0.037900
      5 C8         -0.5770    1.3510   -2.0940 ca        1 BFG     -0.127800
      6 C10         0.4310    3.1840   -3.3140 ca        1 BFG     -0.117250
      7 C13        -1.4880    2.2470   -1.5210 ca        1 BFG     -0.133250
      8 C15        -0.9010   -2.3730   -2.7710 c         1 BFG      0.547100
      9 C2          0.5580   -1.1550    1.7130 ca        1 BFG     -0.117250
     10 C3         -0.2790   -0.8840    0.6320 ca        1 BFG     -0.133250
     11 C14        -0.3820   -0.9750   -2.9440 c3        1 BFG     -0.157400
     12 N17        -0.1720   -3.2090   -1.7360 n4        1 BFG     -0.689800
     13 C18        -0.7540   -4.5710   -1.5450 c3        1 BFG      0.101800
     14 C19         0.0340   -5.4200   -0.5620 c3        1 BFG     -0.061300
     15 S20        -0.9000   -6.8530   -0.1700 sh        1 BFG     -0.253900
     16 O16        -1.8250   -2.9090   -3.3600 o         1 BFG     -0.400100
     17 C12        -1.4370    3.6030   -1.8430 ca        1 BFG     -0.117250
     18 C11        -0.4780    4.0740   -2.7400 ca        1 BFG     -0.107000
     19 C9          0.3830    1.8290   -2.9920 ca        1 BFG     -0.133250
     20 C1          1.9370   -0.9760    1.5950 ca        1 BFG     -0.107000
     21 H5          2.0680    0.1620   -1.6220 ha        1 BFG      0.136000
     22 H6          3.5620   -0.3510    0.3030 ha        1 BFG      0.152750
     23 H7         -1.7260   -0.3020   -1.3920 hc        1 BFG      0.072700
     24 H10         1.1890    3.5530   -4.0220 ha        1 BFG      0.152750
     25 H13        -2.2480    1.8860   -0.8110 ha        1 BFG      0.136000
     26 H2          0.1260   -1.4880    2.6710 ha        1 BFG      0.152750
     27 H3         -1.3700   -0.9770    0.7530 ha        1 BFG      0.136000
     28 H14         0.7190   -1.0020   -3.1660 hc        1 BFG      0.116700
     29 H14A       -0.9070   -0.5350   -3.8400 hc        1 BFG      0.116700
     30 HN17        0.8090   -3.2920   -2.0220 hn        1 BFG      0.463800
     31 H18        -1.8170   -4.4420   -1.1820 hx        1 BFG      0.120200
     32 H18A       -0.7950   -5.0730   -2.5550 hx        1 BFG      0.120200
     33 H19         1.0440   -5.6690   -0.9670 h1        1 BFG      0.096700
     34 H19A        0.1770   -4.8850    0.4130 h1        1 BFG      0.096700
     35 HS20       -0.5160   -7.6540   -1.1510 hs        1 BFG      0.211800
     36 H12        -2.1550    4.3010   -1.3860 ha        1 BFG      0.152750
     37 H11        -0.4380    5.1440   -2.9940 ha        1 BFG      0.155500
     38 H9          1.1100    1.1430   -3.4530 ha        1 BFG      0.136000
     39 H1          2.5960   -1.1750    2.4560 ha        1 BFG      0.155500
     40 H172       -0.1910   -2.6950   -0.8380 hn        1 BFG      0.463800
@<TRIPOS>BOND
     1    1    2 ar  
     2    1    4 1   
     3    1   10 ar  
     4    2    3 ar  
     5    2   21 1   
     6    3   20 ar  
     7    3   22 1   
     8    4    5 1   
     9    4   11 1   
    10    4   23 1   
    11    5    7 ar  
    12    5   19 ar  
    13    6   18 ar  
    14    6   19 ar  
    15    6   24 1   
    16    7   17 ar  
    17    7   25 1   
    18    8   11 1   
    19    8   12 1   
    20    8   16 2   
    21    9   10 ar  
    22    9   20 ar  
    23    9   26 1   
    24   10   27 1   
    25   11   28 1   
    26   11   29 1   
    27   12   13 1   
    28   12   30 1   
    29   12   40 1   
    30   13   14 1   
    31   13   31 1   
    32   13   32 1   
    33   14   15 1   
    34   14   33 1   
    35   14   34 1   
    36   15   35 1   
    37   17   18 ar  
    38   17   36 1   
    39   18   37 1   
    40   19   38 1   
    41   20   39 1   
@<TRIPOS>SUBSTRUCTURE
     1 BFG         1 TEMP              0 ****  ****    0 ROOT
