@<TRIPOS>MOLECULE
BFG
   39    34     1     0     0
SMALL
bcc


@<TRIPOS>ATOM
      1 C4          0.6560    0.3910    2.0970 c1        1 BFG     -0.066000
      2 C5         -0.0440    0.4110    3.2860 c1        1 BFG     -0.117000
      3 C6          0.6410    0.4820    4.4970 c1        1 BFG     -0.128250
      4 C7         -0.1220    0.3730    0.7350 c2        1 BFG     -0.027000
      5 C8          0.0660    1.7400    0.0090 c2        1 BFG     -0.076000
      6 C10         1.3210    3.1340   -1.4860 c1        1 BFG     -0.128250
      7 C13        -0.8920    2.7900    0.1920 c2        1 BFG     -0.122000
      8 C15        -0.7000   -1.7910   -0.4950 c1        1 BFG      0.298000
      9 C2          2.7440    0.5150    3.3320 c1        1 BFG     -0.128000
     10 C3          2.0620    0.4430    2.1110 c2        1 BFG     -0.131000
     11 C14         0.4360   -0.7830   -0.1810 c2        1 BFG     -0.172000
     12 N17        -0.6710   -2.5240   -1.6750 n3        1 BFG     -0.369000
     13 C18        -1.8770   -3.1500   -2.1640 c3        1 BFG     -0.021000
     14 C19        -1.6820   -3.5660   -3.6110 c3        1 BFG     -0.288000
     15 S20        -3.2100   -4.2810   -4.2350 sh        1 BFG     -0.016000
     16 O16        -1.6600   -1.9320    0.3110 o         1 BFG     -0.367000
     17 C12        -0.7290    3.9860   -0.4620 c1        1 BFG     -0.132000
     18 C11         0.3700    4.1780   -1.3050 c1        1 BFG     -0.128250
     19 C9          1.1610    1.9350   -0.8320 c1        1 BFG     -0.124000
     20 C1          2.0380    0.5330    4.5140 c1        1 BFG     -0.128250
     21 H5         -1.0160    0.3760    3.2790 ha        1 BFG      0.136000
     22 H6          0.1560    0.4940    5.3170 ha        1 BFG      0.132250
     23 H7         -1.0990    0.2180    0.9120 ha        1 BFG      0.129000
     24 H10         2.0690    3.2660   -2.0600 ha        1 BFG      0.132250
     25 H13        -1.6910    2.6500    0.8060 ha        1 BFG      0.139000
     26 H2          3.6690    0.5500    3.3470 ha        1 BFG      0.131000
     27 H3          2.5940    0.4290    1.2200 ha        1 BFG      0.126000
     28 H14         1.1910   -1.2620    0.2970 ha        1 BFG      0.109500
     29 H14A        0.7660   -0.4070   -1.0020 ha        1 BFG      0.109500
     30 HN17        0.1240   -2.6120   -2.1490 hn        1 BFG      0.218000
     31 H18        -2.6290   -2.5100   -2.1050 h1        1 BFG      0.117000
     32 H18A       -2.0790   -3.9430   -1.6200 h1        1 BFG      0.117000
     33 H19        -0.9520   -4.2400   -3.6670 h1        1 BFG      0.106000
     34 H19A       -1.4430   -2.7720   -4.1560 h1        1 BFG      0.106000
     35 HS20       -3.0520   -4.6420   -5.3650 hs        1 BFG      0.033000
     36 H12        -1.3880    4.7080   -0.3380 ha        1 BFG      0.132000
     37 H11         0.4880    5.0500   -1.7820 ha        1 BFG      0.132250
     38 H9          1.8530    1.1770   -0.9680 ha        1 BFG      0.133000
     39 H1          2.5290    0.5850    5.3950 ha        1 BFG      0.132250
@<TRIPOS>BOND
     1    1    2 1   
     2    1   10 1   
     3    2   21 1   
     4    3   20 1   
     5    3   22 1   
     6    4    5 1   
     7    4   11 1   
     8    4   23 1   
     9    5    7 1   
    10    5   19 1   
    11    6   18 1   
    12    6   24 1   
    13    7   17 1   
    14    7   25 1   
    15    8   12 1   
    16    8   16 1   
    17    9   10 1   
    18    9   26 1   
    19   10   27 1   
    20   11   28 1   
    21   11   29 1   
    22   12   13 1   
    23   12   30 1   
    24   13   14 1   
    25   13   31 1   
    26   13   32 1   
    27   14   15 1   
    28   14   33 1   
    29   14   34 1   
    30   15   35 1   
    31   17   36 1   
    32   18   37 1   
    33   19   38 1   
    34   20   39 1   
@<TRIPOS>SUBSTRUCTURE
     1 BFG         1 TEMP              0 ****  ****    0 ROOT
