@<TRIPOS>MOLECULE
BFG
   40    41     1     0     0
SMALL
bcc


@<TRIPOS>ATOM
      1 C4          0.2770   -0.4250   -0.5940 ca        1 BFG     -0.127800
      2 C5          1.6580   -0.2430   -0.7360 ca        1 BFG     -0.133250
      3 C6          2.5170   -0.5090    0.3290 ca        1 BFG     -0.117250
      4 C7         -0.6690   -0.1020   -1.7120 c3        1 BFG      0.037900
      5 C8         -0.5910    1.3450   -2.1000 ca        1 BFG     -0.127800
      6 C10         0.3910    3.1660   -3.3590 ca        1 BFG     -0.117250
      7 C13        -1.4870    2.2480   -1.5130 ca        1 BFG     -0.133250
      8 C15        -0.9380   -2.3830   -2.7390 c         1 BFG      0.547100
      9 C2          0.6290   -1.1320    1.7000 ca        1 BFG     -0.117250
     10 C3         -0.2330   -0.8680    0.6360 ca        1 BFG     -0.133250
     11 C14        -0.4200   -0.9880   -2.9350 c3        1 BFG     -0.157400
     12 N17        -0.1860   -3.2130   -1.7140 ny        1 BFG     -0.689800
     13 C18        -0.7690   -4.5710   -1.4960 c3        1 BFG      0.101800
     14 C19         0.0410   -5.4150   -0.5260 c3        1 BFG     -0.061300
     15 S20        -0.8880   -6.8390   -0.0970 sh        1 BFG     -0.253900
     16 O16        -1.8770   -2.9220   -3.3000 o         1 BFG     -0.400100
     17 C12        -1.4400    3.6000   -1.8470 ca        1 BFG     -0.117250
     18 C11        -0.5020    4.0620   -2.7710 ca        1 BFG     -0.107000
     19 C9          0.3480    1.8130   -3.0250 ca        1 BFG     -0.133250
     20 C1          2.0050   -0.9560    1.5480 ca        1 BFG     -0.107000
     21 H5          2.0620    0.1560   -1.6800 ha        1 BFG      0.136000
     22 H6          3.6000   -0.3440    0.2140 ha        1 BFG      0.152750
     23 H7         -1.7260   -0.2990   -1.3570 hc        1 BFG      0.072700
     24 H10         1.1320    3.5270   -4.0890 ha        1 BFG      0.152750
     25 H13        -2.2300    1.8940   -0.7820 ha        1 BFG      0.136000
     26 H2          0.2190   -1.4570    2.6700 ha        1 BFG      0.152750
     27 H3         -1.3210   -0.9580    0.7840 ha        1 BFG      0.136000
     28 H14         0.6750   -1.0200   -3.1820 hc        1 BFG      0.116700
     29 H14A       -0.9650   -0.5550   -3.8220 hc        1 BFG      0.116700
     30 HN17        0.7860   -3.3030   -2.0240 hn        1 BFG      0.463800
     31 H18        -1.8210   -4.4340   -1.1070 hx        1 BFG      0.120200
     32 H18A       -0.8370   -5.0820   -2.5000 hx        1 BFG      0.120200
     33 H19         1.0400   -5.6710   -0.9550 h1        1 BFG      0.096700
     34 H19A        0.2110   -4.8710    0.4410 h1        1 BFG      0.096700
     35 HS20       -0.5330   -7.6510   -1.0790 hs        1 BFG      0.211800
     36 H12        -2.1470    4.3040   -1.3800 ha        1 BFG      0.152750
     37 H11        -0.4670    5.1300   -3.0350 ha        1 BFG      0.155500
     38 H9          1.0620    1.1230   -3.4970 ha        1 BFG      0.136000
     39 H1          2.6830   -1.1500    2.3940 ha        1 BFG      0.155500
     40 H172       -0.1810   -2.6910   -0.8210 hn        1 BFG      0.463800
@<TRIPOS>BOND
     1    1    2 ar  
     2    1    4 1   
     3    1   10 ar  
     4    2    3 ar  
     5    2   21 1   
     6    3   20 ar  
     7    3   22 1   
     8    4    5 1   
     9    4   11 1   
    10    4   23 1   
    11    5    7 ar  
    12    5   19 ar  
    13    6   18 ar  
    14    6   19 ar  
    15    6   24 1   
    16    7   17 ar  
    17    7   25 1   
    18    8   11 1   
    19    8   12 1   
    20    8   16 2   
    21    9   10 ar  
    22    9   20 ar  
    23    9   26 1   
    24   10   27 1   
    25   11   28 1   
    26   11   29 1   
    27   12   13 1   
    28   12   30 1   
    29   12   40 1   
    30   13   14 1   
    31   13   31 1   
    32   13   32 1   
    33   14   15 1   
    34   14   33 1   
    35   14   34 1   
    36   15   35 1   
    37   17   18 ar  
    38   17   36 1   
    39   18   37 1   
    40   19   38 1   
    41   20   39 1   
@<TRIPOS>SUBSTRUCTURE
     1 BFG         1 TEMP              0 ****  ****    0 ROOT
