@<TRIPOS>MOLECULE
BFH
   29    31     1     0     0
SMALL
bcc


@<TRIPOS>ATOM
      1 O1          0.1290    0.9220   -0.2970 o         1 BFH     -0.842300
      2 C2          1.1530    0.2490    0.0400 c         1 BFH      0.903600
      3 O3          1.3930   -0.1210    1.2160 o         1 BFH     -0.842300
      4 C4          2.0880   -0.1530   -1.1360 c3        1 BFH     -0.118700
      5 N5          3.5110   -0.0700   -0.9430 na        1 BFH      0.042600
      6 C6          4.3730   -1.1750   -1.0060 cc        1 BFH     -0.081300
      7 C7          5.6920   -0.7560   -0.7610 cd        1 BFH     -0.221200
      8 C8          5.6620    0.6580   -0.5700 ca        1 BFH     -0.135800
      9 C9          6.6780    1.5970   -0.3380 ca        1 BFH     -0.066000
     10 C10         6.3670    2.9280   -0.2630 ca        1 BFH     -0.212000
     11 C11         5.0220    3.3810   -0.4120 ca        1 BFH     -0.036000
     12 C12         4.7460    4.7710   -0.3600 ca        1 BFH     -0.153000
     13 C13         3.4640    5.2470   -0.5030 ca        1 BFH     -0.160000
     14 C14         2.4020    4.3410   -0.6950 ca        1 BFH     -0.172000
     15 C15         2.6380    2.9840   -0.7470 ca        1 BFH     -0.093000
     16 C16         3.9500    2.4620   -0.6190 ca        1 BFH      0.004000
     17 C17         4.2770    1.0720   -0.6990 ca        1 BFH     -0.058200
     18 C18         4.0230   -2.5990   -1.4050 c         1 BFH      0.934800
     19 O19         4.7590   -3.5170   -0.9450 o         1 BFH     -0.833300
     20 O20         3.0830   -2.8000   -2.2240 o         1 BFH     -0.833300
     21 H4          1.8410   -1.2280   -1.3850 h1        1 BFH      0.071200
     22 H4A         1.8240    0.4850   -2.0280 h1        1 BFH      0.071200
     23 H7          6.5560   -1.4100   -0.7230 ha        1 BFH      0.143000
     24 H9          7.7140    1.2460   -0.2250 ha        1 BFH      0.099000
     25 H10         7.1490    3.6790   -0.0860 ha        1 BFH      0.091000
     26 H12         5.5840    5.4650   -0.2000 ha        1 BFH      0.094000
     27 H13         3.2580    6.3250   -0.4620 ha        1 BFH      0.091000
     28 H14         1.3760    4.7230   -0.7910 ha        1 BFH      0.113000
     29 H15         1.7790    2.2960   -0.8650 ha        1 BFH      0.197000
@<TRIPOS>BOND
     1    1    2 1   
     2    2    3 1   
     3    2    4 1   
     4    4    5 1   
     5    4   21 1   
     6    4   22 1   
     7    5    6 1   
     8    5   17 1   
     9    6    7 2   
    10    6   18 1   
    11    7    8 1   
    12    7   23 1   
    13    8    9 ar  
    14    8   17 ar  
    15    9   10 ar  
    16    9   24 1   
    17   10   11 ar  
    18   10   25 1   
    19   11   12 ar  
    20   11   16 ar  
    21   12   13 ar  
    22   12   26 1   
    23   13   14 ar  
    24   13   27 1   
    25   14   15 ar  
    26   14   28 1   
    27   15   16 ar  
    28   15   29 1   
    29   16   17 ar  
    30   18   19 1   
    31   18   20 1   
@<TRIPOS>SUBSTRUCTURE
     1 BFH         1 TEMP              0 ****  ****    0 ROOT
