@<TRIPOS>MOLECULE
BFH
   29    31     1     0     0
SMALL
bcc


@<TRIPOS>ATOM
      1 O1         -0.5200   -3.5220   -0.0230 o         1 BFH     -0.842300
      2 C2         -0.9670   -2.4330   -0.5010 c         1 BFH      0.903600
      3 O3         -1.1940   -2.2440   -1.7230 o         1 BFH     -0.842300
      4 C4         -1.2820   -1.3350    0.5540 c3        1 BFH     -0.118700
      5 N5         -0.9270    0.0270    0.2580 na        1 BFH      0.042600
      6 C6         -1.8570    1.0710    0.1490 cc        1 BFH     -0.081300
      7 C7         -1.1880    2.2670   -0.1600 cd        1 BFH     -0.221200
      8 C8          0.2070    1.9720   -0.2140 ca        1 BFH     -0.135800
      9 C9          1.3310    2.7820   -0.4370 ca        1 BFH     -0.066000
     10 C10         2.5850    2.2380   -0.3630 ca        1 BFH     -0.212000
     11 C11         2.7720    0.8560   -0.0660 ca        1 BFH     -0.036000
     12 C12         4.0890    0.3370    0.0340 ca        1 BFH     -0.153000
     13 C13         4.3110   -0.9890    0.3210 ca        1 BFH     -0.160000
     14 C14         3.2150   -1.8530    0.5110 ca        1 BFH     -0.172000
     15 C15         1.9240   -1.3800    0.4180 ca        1 BFH     -0.093000
     16 C16         1.6610   -0.0150    0.1380 ca        1 BFH      0.004000
     17 C17         0.3520    0.5550    0.0610 ca        1 BFH     -0.058200
     18 C18        -3.3480    1.0140    0.4400 c         1 BFH      0.934800
     19 O19        -4.0780    1.8520   -0.1610 o         1 BFH     -0.833300
     20 O20        -3.7800    0.2050    1.3090 o         1 BFH     -0.833300
     21 H4         -2.4000   -1.3660    0.7210 h1        1 BFH      0.071200
     22 H4A        -0.7740   -1.6210    1.5190 h1        1 BFH      0.071200
     23 H7         -1.6690    3.2240   -0.3260 ha        1 BFH      0.143000
     24 H9          1.1850    3.8480   -0.6640 ha        1 BFH      0.099000
     25 H10         3.4770    2.8570   -0.5300 ha        1 BFH      0.091000
     26 H12         4.9340    1.0220   -0.1270 ha        1 BFH      0.094000
     27 H13         5.3330   -1.3830    0.3970 ha        1 BFH      0.091000
     28 H14         3.3940   -2.9170    0.7230 ha        1 BFH      0.113000
     29 H15         1.0840   -2.0910    0.5380 ha        1 BFH      0.197000
@<TRIPOS>BOND
     1    1    2 1   
     2    2    3 1   
     3    2    4 1   
     4    4    5 1   
     5    4   21 1   
     6    4   22 1   
     7    5    6 1   
     8    5   17 1   
     9    6    7 2   
    10    6   18 1   
    11    7    8 1   
    12    7   23 1   
    13    8    9 ar  
    14    8   17 ar  
    15    9   10 ar  
    16    9   24 1   
    17   10   11 ar  
    18   10   25 1   
    19   11   12 ar  
    20   11   16 ar  
    21   12   13 ar  
    22   12   26 1   
    23   13   14 ar  
    24   13   27 1   
    25   14   15 ar  
    26   14   28 1   
    27   15   16 ar  
    28   15   29 1   
    29   16   17 ar  
    30   18   19 1   
    31   18   20 1   
@<TRIPOS>SUBSTRUCTURE
     1 BFH         1 TEMP              0 ****  ****    0 ROOT
