@<TRIPOS>MOLECULE
BFH
   29    25     1     0     0
SMALL
bcc


@<TRIPOS>ATOM
      1 O1         -4.1260   -1.6810    0.5460 o         1 BFH     -0.577000
      2 C2         -2.8850   -1.4750    0.5820 c2        1 BFH      0.323000
      3 O3         -2.2610   -1.5790    1.6700 o         1 BFH     -0.577000
      4 C4         -2.1410   -1.1090   -0.6840 c3        1 BFH     -0.128000
      5 N5         -0.7420   -1.0900   -0.4240 n3        1 BFH     -0.049000
      6 C6         -0.2660   -2.3710   -0.3740 c1        1 BFH     -0.035000
      7 C7          1.0690   -2.3180   -0.0250 c1        1 BFH     -0.233000
      8 C8          1.4130   -0.9950    0.1410 c1        1 BFH     -0.124000
      9 C9          2.6280   -0.3710    0.4950 c1        1 BFH     -0.135750
     10 C10         2.6950    1.0140    0.5960 c1        1 BFH     -0.135750
     11 C11         1.5500    1.7950    0.3440 c1        1 BFH     -0.036000
     12 C12         1.6170    3.1970    0.4450 c2        1 BFH     -0.153000
     13 C13         0.4880    3.9670    0.1970 c1        1 BFH     -0.160000
     14 C14        -0.7110    3.3520   -0.1530 c1        1 BFH     -0.135750
     15 C15        -0.7780    1.9680   -0.2540 c1        1 BFH     -0.135750
     16 C16         0.3650    1.1880   -0.0020 c1        1 BFH      0.004000
     17 C17         0.2960   -0.2340   -0.1050 c2        1 BFH     -0.013000
     18 C18        -0.5740   -3.8190   -0.6890 c1        1 BFH      0.385000
     19 O19        -0.5310   -4.2270   -1.8800 o         1 BFH     -0.568000
     20 O20        -0.8670   -4.6170    0.2400 o         1 BFH     -0.568000
     21 H4         -2.4290   -0.2240   -0.9880 h1        1 BFH      0.110500
     22 H4A        -2.3350   -1.7720   -1.3790 h1        1 BFH      0.110500
     23 H7          1.6650   -3.0840    0.0860 DU        1 BFH      0.143000
     24 H9          3.4090   -0.9060    0.7340 ha        1 BFH      0.125000
     25 H10         3.5820    1.3930    0.7490 ha        1 BFH      0.125000
     26 H12         2.4580    3.6290    0.6900 ha        1 BFH      0.094000
     27 H13         0.5350    4.9390    0.2680 ha        1 BFH      0.091000
     28 H14        -1.5040    3.8930   -0.3280 ha        1 BFH      0.125000
     29 H15        -1.6190    1.5380   -0.4990 ha        1 BFH      0.125000
@<TRIPOS>BOND
     1    1    2 1   
     2    2    3 1   
     3    2    4 1   
     4    4    5 1   
     5    4   21 1   
     6    4   22 1   
     7    5    6 1   
     8    5   17 1   
     9    6    7 1   
    10    7    8 1   
    11    8   17 1   
    12    9   10 1   
    13    9   24 1   
    14   10   25 1   
    15   11   12 1   
    16   11   16 1   
    17   12   13 1   
    18   12   26 1   
    19   13   27 1   
    20   14   15 1   
    21   14   28 1   
    22   15   29 1   
    23   16   17 1   
    24   18   19 1   
    25   18   20 1   
@<TRIPOS>SUBSTRUCTURE
     1 BFH         1 TEMP              0 ****  ****    0 ROOT
