@<TRIPOS>MOLECULE
BFI
   39    42     1     0     0
SMALL
bcc


@<TRIPOS>ATOM
      1 C2          1.0470   -0.9850   -3.9810 ca        1 BFI     -0.175000
      2 C3          3.0270    0.3650   -2.5340 ca        1 BFI     -0.039000
      3 C4          0.6880   -0.2010   -2.8810 ca        1 BFI     -0.014300
      4 C5          2.4000   -1.0950   -4.3500 ca        1 BFI      0.168900
      5 C6          3.3960   -0.4150   -3.6220 ca        1 BFI     -0.168000
      6 C7          1.6800    0.4730   -2.1590 ca        1 BFI     -0.150600
      7 C8         -0.7500   -0.0720   -2.5040 c3        1 BFI     -0.153700
      8 F9          2.7420   -1.8560   -5.4130 f         1 BFI     -0.123900
      9 C11         1.3500    1.3190   -0.9890 c         1 BFI      0.729100
     10 N14        -2.4460   -0.1480   -4.2110 n         1 BFI     -0.600500
     11 O16         2.2180    1.9860   -0.3970 o         1 BFI     -0.604500
     12 N17         0.0170    1.3490   -0.5390 n         1 BFI     -0.481400
     13 C18        -1.4620   -1.4480   -2.4610 c3        1 BFI     -0.153400
     14 C21        -2.4850   -1.4100   -3.5890 c         1 BFI      0.705500
     15 C22        -1.0150    0.6660   -1.1900 c         1 BFI      0.720500
     16 C23        -0.3050    2.1310    0.6490 c3        1 BFI      0.130300
     17 C25        -0.1470    1.3930    1.9460 ca        1 BFI     -0.140300
     18 C27         0.1840    0.0710    4.4060 ca        1 BFI      0.005100
     19 C28         1.1290    1.0890    2.4300 ca        1 BFI     -0.092000
     20 C29        -1.2680    1.0320    2.7220 ca        1 BFI      0.149900
     21 C30        -1.0990    0.3690    3.9540 ca        1 BFI     -0.150000
     22 C31         1.3000    0.4330    3.6460 ca        1 BFI     -0.126000
     23 F33        -2.5220    1.3240    2.3060 f         1 BFI     -0.123900
     24 BR36        0.4110   -0.8160    6.0400 br        1 BFI     -0.074100
     25 C39        -1.5040    0.7050   -3.6270 c         1 BFI      0.717500
     26 H2          0.2820   -1.5140   -4.5710 ha        1 BFI      0.161000
     27 H3          3.7910    0.9120   -1.9540 ha        1 BFI      0.173000
     28 H6          4.4510   -0.5050   -3.9230 ha        1 BFI      0.164000
     29 H14        -3.0720    0.1370   -4.9240 hn        1 BFI      0.356500
     30 H181       -0.7500   -2.2950   -2.6140 hc        1 BFI      0.112200
     31 H182       -2.0020   -1.6020   -1.4900 hc        1 BFI      0.112200
     32 H231       -1.3720    2.4910    0.5500 h1        1 BFI      0.094200
     33 H232        0.3810    3.0300    0.6620 h1        1 BFI      0.094200
     34 H28         2.0110    1.3840    1.8340 ha        1 BFI      0.165000
     35 H30        -1.9920    0.0970    4.5390 ha        1 BFI      0.165000
     36 H31         2.3170    0.2070    4.0020 ha        1 BFI      0.153000
     37 O13        -2.1650    0.6700   -0.7200 o         1 BFI     -0.582500
     38 O15        -3.2370   -2.3230   -3.9360 o         1 BFI     -0.566500
     39 O37        -1.3060    1.8730   -3.9630 o         1 BFI     -0.555500
@<TRIPOS>BOND
     1    1    3 ar  
     2    1    4 ar  
     3    1   26 1   
     4    2    5 ar  
     5    2    6 ar  
     6    2   27 1   
     7    3    6 ar  
     8    3    7 1   
     9    4    5 ar  
    10    4    8 1   
    11    5   28 1   
    12    6    9 1   
    13    7   13 1   
    14    7   15 1   
    15    7   25 1   
    16    9   11 2   
    17    9   12 1   
    18   10   14 1   
    19   10   25 1   
    20   10   29 1   
    21   12   15 1   
    22   12   16 1   
    23   13   14 1   
    24   13   30 1   
    25   13   31 1   
    26   14   38 2   
    27   15   37 2   
    28   16   17 1   
    29   16   32 1   
    30   16   33 1   
    31   17   19 ar  
    32   17   20 ar  
    33   18   21 ar  
    34   18   22 ar  
    35   18   24 1   
    36   19   22 ar  
    37   19   34 1   
    38   20   21 ar  
    39   20   23 1   
    40   21   35 1   
    41   22   36 1   
    42   25   39 2   
@<TRIPOS>SUBSTRUCTURE
     1 BFI         1 TEMP              0 ****  ****    0 ROOT
