@<TRIPOS>MOLECULE
BFI
   39    41     1     0     0
SMALL
bcc


@<TRIPOS>ATOM
      1 C2          0.0400   -1.0660   -0.0750 c2        1 BFI     -0.150000
      2 C3          0.7760    0.0270    2.4690 c1        1 BFI     -0.019000
      3 C4          1.1650   -0.3200   -0.0190 c2        1 BFI     -0.074000
      4 C5         -0.7710   -1.2800    1.1210 c2        1 BFI      0.213000
      5 C6         -0.3980   -0.7390    2.3340 c2        1 BFI     -0.266000
      6 C7          1.5750    0.3260    1.2680 c3        1 BFI     -0.174000
      7 C8          2.0390   -0.0830   -1.2120 c3        1 BFI     -0.086000
      8 F9         -1.8760   -2.0280    0.9760 f         1 BFI     -0.066000
      9 C11         3.0540    0.0820    1.5230 c2        1 BFI      0.209000
     10 N14         1.3220   -0.3110   -3.4960 n         1 BFI     -0.380000
     11 O16         3.5620   -0.4350    2.4990 o         1 BFI     -0.128000
     12 N17         3.9330    0.5720    0.3590 n4        1 BFI      0.098000
     13 C18         1.8120    1.3230   -1.8220 c3        1 BFI     -0.201000
     14 C21         1.3540    1.0750   -3.2550 c2        1 BFI      0.314000
     15 C22         3.5070   -0.2610   -0.8310 c2        1 BFI      0.244000
     16 C23         5.3110    0.5690    0.5650 c2        1 BFI     -0.652000
     17 C25         6.0320    1.8350    0.8120 c3        1 BFI     -0.119000
     18 C27         8.2520    3.9700   -0.0720 c2        1 BFI     -0.480000
     19 C28         7.2830    1.4860    1.4650 c1        1 BFI      0.083000
     20 C29         6.1020    2.6800   -0.5120 c3        1 BFI     -0.006000
     21 C30         6.9090    3.9000   -0.4390 c1        1 BFI     -0.070000
     22 C31         9.0830    3.0070    0.3530 c1        1 BFI      0.288000
     23 F33         4.7980    2.9890   -0.9100 f         1 BFI     -0.185000
     24 BR36        9.1020    5.6630   -0.2160 br        1 BFI      0.088000
     25 C39         1.7010   -1.0570   -2.3780 c2        1 BFI      0.320000
     26 H2         -0.3020   -1.5630   -1.0000 ha        1 BFI      0.176000
     27 H3          1.4210    1.4540    1.1610 hc        1 BFI      0.188000
     28 H6         -1.0050   -0.9180    3.2380 ha        1 BFI      0.183000
     29 H14         1.1020   -0.7160   -4.3750 hn        1 BFI      0.277000
     30 H181        2.7490    1.9410   -1.8470 hc        1 BFI      0.151500
     31 H182        1.0240    1.8920   -1.2710 hc        1 BFI      0.151500
     32 H231        5.7880   -0.4000    0.7140 hx        1 BFI      0.184000
     33 H232        3.6260    1.5390    0.1670 hn        1 BFI      0.234000
     34 H28         5.4840    2.4890    1.5680 hc        1 BFI      0.143000
     35 H30         6.5380    2.0130   -1.3230 h1        1 BFI      0.131000
     36 H31         8.2440    1.7190    0.8990 ha        1 BFI      0.055000
     37 O13         4.2950   -0.9840   -1.4170 o         1 BFI     -0.142000
     38 O15         1.0460    1.9290   -4.0860 o         1 BFI     -0.269000
     39 O37         1.7380   -2.2860   -2.3280 o         1 BFI     -0.264000
@<TRIPOS>BOND
     1    1    3 1   
     2    1    4 1   
     3    1   26 1   
     4    2    5 1   
     5    2    6 1   
     6    3    6 1   
     7    3    7 1   
     8    4    5 1   
     9    4    8 1   
    10    5   28 1   
    11    6    9 1   
    12    6   27 1   
    13    7   13 1   
    14    7   15 1   
    15    7   25 1   
    16    9   11 1   
    17    9   12 1   
    18   10   14 1   
    19   10   25 1   
    20   10   29 1   
    21   12   15 1   
    22   12   16 1   
    23   12   33 1   
    24   13   14 1   
    25   13   30 1   
    26   13   31 1   
    27   14   38 1   
    28   15   37 1   
    29   16   17 1   
    30   16   32 1   
    31   17   19 1   
    32   17   20 1   
    33   17   34 1   
    34   18   21 1   
    35   18   22 1   
    36   18   24 1   
    37   19   36 1   
    38   20   21 1   
    39   20   23 1   
    40   20   35 1   
    41   25   39 1   
@<TRIPOS>SUBSTRUCTURE
     1 BFI         1 TEMP              0 ****  ****    0 ROOT
