@<TRIPOS>MOLECULE
BFI
   39    39     1     0     0
SMALL
bcc


@<TRIPOS>ATOM
      1 C2          0.4800   -0.0350    0.4560 c2        1 BFI     -0.175000
      2 C3          2.3670    0.7270    2.4690 c1        1 BFI     -0.046000
      3 C4          1.7650    0.1480    0.0780 c2        1 BFI     -0.047000
      4 C5          0.0870    0.1540    1.8470 c2        1 BFI      0.223000
      5 C6          1.0150    0.5290    2.7980 c2        1 BFI     -0.276000
      6 C7          2.7990    0.5700    1.0690 c3        1 BFI     -0.166000
      7 C8          2.2290   -0.0240   -1.3290 c3        1 BFI     -0.076000
      8 F9         -1.2060   -0.0500    2.1480 f         1 BFI     -0.070000
      9 C11         4.0540   -0.2870    0.9740 c2        1 BFI      0.355000
     10 N14         0.7990   -0.0070   -3.2630 ns        1 BFI     -0.378000
     11 O16         4.8350   -0.4790    1.9140 o         1 BFI     -0.283000
     12 N17         4.3580   -0.8490   -0.2720 ns        1 BFI     -0.378000
     13 C18         2.3570    1.3430   -2.0510 c3        1 BFI     -0.184000
     14 C21         1.4350    1.2480   -3.2610 c2        1 BFI      0.316000
     15 C22         3.5670   -0.7610   -1.4100 c2        1 BFI      0.328000
     16 C23         7.6490   -2.7440   -0.3100 c1        1 BFI     -0.227500
     17 C25         7.2090   -2.2130    0.6670 c1        1 BFI     -0.227500
     18 C27         4.7980    4.6840    0.5550 c2        1 BFI      0.051000
     19 C28         4.1730    3.1340    2.5510 c1        1 BFI     -0.109000
     20 C29         5.9260    3.8070   -1.6370 c2        1 BFI      0.091000
     21 C30         5.3380    4.2460   -0.5490 c1        1 BFI     -0.232000
     22 C31         4.4650    3.8540    1.6370 c1        1 BFI     -0.205000
     23 F33         5.2540    3.3410   -2.7120 f         1 BFI     -0.106000
     24 Br36        4.4020    6.5190    0.7670 br        1 BFI      0.071000
     25 C39         1.2020   -0.8100   -2.1920 c2        1 BFI      0.327000
     26 H2         -0.3080   -0.3530   -0.2490 ha        1 BFI      0.173000
     27 H3          3.1310    1.6370    0.8010 hc        1 BFI      0.203000
     28 H6          0.7120    0.6640    3.8490 ha        1 BFI      0.176000
     29 H14         0.2070   -0.3260   -3.9910 hn        1 BFI      0.271000
     30 H181        3.4040    1.5400   -2.3990 hc        1 BFI      0.148500
     31 H182        2.0320    2.1900   -1.3980 hc        1 BFI      0.148500
     32 H231        8.0410   -3.2170   -1.1760 ha        1 BFI      0.230000
     33 H232        5.2060   -1.3860   -0.3400 hn        1 BFI      0.273000
     34 H28         6.8170   -1.7420    1.5380 ha        1 BFI      0.230000
     35 H30         7.0270    3.7820   -1.7540 h4        1 BFI      0.171000
     36 H31         3.8970    2.4530    3.3280 ha        1 BFI      0.267000
     37 O13         3.9620   -1.2550   -2.4770 o         1 BFI     -0.302000
     38 O15         1.2430    2.1180   -4.1120 o         1 BFI     -0.283000
     39 O37         0.7840   -1.9470   -1.9700 o         1 BFI     -0.282000
@<TRIPOS>BOND
     1    1    3 1   
     2    1    4 1   
     3    1   26 1   
     4    2    5 1   
     5    2    6 1   
     6    3    6 1   
     7    3    7 1   
     8    4    5 1   
     9    4    8 1   
    10    5   28 1   
    11    6    9 1   
    12    6   27 1   
    13    7   13 1   
    14    7   15 1   
    15    7   25 1   
    16    9   11 1   
    17    9   12 1   
    18   10   14 1   
    19   10   25 1   
    20   10   29 1   
    21   12   15 1   
    22   12   33 1   
    23   13   14 1   
    24   13   30 1   
    25   13   31 1   
    26   14   38 1   
    27   15   37 1   
    28   16   17 1   
    29   16   32 1   
    30   17   34 1   
    31   18   21 1   
    32   18   22 1   
    33   18   24 1   
    34   19   22 1   
    35   19   36 1   
    36   20   21 1   
    37   20   23 1   
    38   20   35 1   
    39   25   39 1   
@<TRIPOS>SUBSTRUCTURE
     1 BFI         1 TEMP              0 ****  ****    0 ROOT
