@<TRIPOS>MOLECULE
BFI
   39    42     1     0     0
SMALL
bcc


@<TRIPOS>ATOM
      1 C2          0.2660   -1.4070    0.0490 c2        1 BFI     -0.163000
      2 C3          0.8250    0.0050    2.4810 c1        1 BFI     -0.022000
      3 C4          1.1840   -0.4170   -0.0070 c2        1 BFI     -0.055000
      4 C5         -0.4220   -1.7140    1.2990 c2        1 BFI      0.225000
      5 C6         -0.1500   -1.0060    2.4530 c2        1 BFI     -0.276000
      6 C7          1.4860    0.3920    1.2180 c3        1 BFI     -0.168000
      7 C8          1.9090   -0.0510   -1.2610 c3        1 BFI     -0.101000
      8 F9         -1.3180   -2.7140    1.2670 f         1 BFI     -0.065000
      9 C11         2.9920    0.4690    1.4130 c2        1 BFI      0.309000
     10 N14         1.2060   -0.6310   -3.4880 n         1 BFI     -0.380000
     11 O16         3.6320    0.0060    2.3390 o         1 BFI     -0.135000
     12 N17         3.6720    1.1610    0.2620 n4        1 BFI      0.108000
     13 C18         1.2770    1.1890   -1.9430 c3        1 BFI     -0.190000
     14 C21         0.8810    0.7260   -3.3410 c2        1 BFI      0.313000
     15 C22         3.3830    0.2360   -0.9730 c2        1 BFI      0.103000
     16 C23         4.9990    1.4880    0.4990 c2        1 BFI     -0.558000
     17 C25         5.6420    2.5690   -0.2270 cx        1 BFI     -0.023000
     18 C27         8.2400    2.8510    0.3850 c2        1 BFI     -0.001000
     19 C28         8.3920    3.4320    2.9150 c1        1 BFI     -0.161000
     20 C29         6.4280    2.2660   -1.5230 cx        1 BFI      0.017000
     21 C30         7.1120    2.6300   -0.2630 cu        1 BFI     -0.131000
     22 C31         8.3180    3.1650    1.7500 c1        1 BFI     -0.133000
     23 F33         6.3760    3.1420   -2.5670 f         1 BFI     -0.140000
     24 BR36        9.9000    2.7600   -0.5100 br        1 BFI      0.056000
     25 C39         1.7970   -1.1660   -2.3360 c2        1 BFI      0.321000
     26 H2          0.0140   -2.0330   -0.8250 ha        1 BFI      0.177000
     27 H3          1.0750    1.4460    1.0530 hc        1 BFI      0.185000
     28 H6         -0.6720   -1.2480    3.3940 ha        1 BFI      0.183000
     29 H14         1.0960   -1.1400   -4.3330 hn        1 BFI      0.274000
     30 H181        2.0010    2.0370   -2.0350 hc        1 BFI      0.137500
     31 H182        0.3690    1.5470   -1.3970 hc        1 BFI      0.137500
     32 H231        5.6060    0.7480    1.0310 hx        1 BFI      0.177000
     33 H232        3.1430    2.0070    0.0280 hn        1 BFI      0.217000
     34 H28         5.1110    3.5470   -0.1940 hc        1 BFI      0.113000
     35 H30         6.4870    1.2100   -1.8730 h1        1 BFI      0.155000
     36 H31         8.4600    3.6660    3.9470 ha        1 BFI      0.227000
     37 O13         4.3010   -0.1890   -1.6590 o         1 BFI     -0.184000
     38 O15         0.3490    1.4140   -4.2140 o         1 BFI     -0.281000
     39 O37         2.1470   -2.3400   -2.2120 o         1 BFI     -0.270000
@<TRIPOS>BOND
     1    1    3 1   
     2    1    4 1   
     3    1   26 1   
     4    2    5 1   
     5    2    6 1   
     6    3    6 1   
     7    3    7 1   
     8    4    5 1   
     9    4    8 1   
    10    5   28 1   
    11    6    9 1   
    12    6   27 1   
    13    7   13 1   
    14    7   15 1   
    15    7   25 1   
    16    9   11 1   
    17    9   12 1   
    18   10   14 1   
    19   10   25 1   
    20   10   29 1   
    21   12   15 1   
    22   12   16 1   
    23   12   33 1   
    24   13   14 1   
    25   13   30 1   
    26   13   31 1   
    27   14   38 1   
    28   15   37 1   
    29   16   17 1   
    30   16   32 1   
    31   17   20 1   
    32   17   21 1   
    33   17   34 1   
    34   18   21 1   
    35   18   22 1   
    36   18   24 1   
    37   19   22 1   
    38   19   36 1   
    39   20   21 1   
    40   20   23 1   
    41   20   35 1   
    42   25   39 1   
@<TRIPOS>SUBSTRUCTURE
     1 BFI         1 TEMP              0 ****  ****    0 ROOT
