@<TRIPOS>MOLECULE
BFI
   39    37     1     0     0
SMALL
bcc


@<TRIPOS>ATOM
      1 C2         -3.5330   -0.3770    0.1090 c1        1 BFI     -0.175000
      2 C3         -2.1660   -0.6350    2.5230 c1        1 BFI     -0.104000
      3 C4         -2.1260   -0.4640    0.1150 c1        1 BFI     -0.007000
      4 C5         -4.2390   -0.4210    1.3090 c1        1 BFI      0.134000
      5 C6         -3.5560   -0.5500    2.5150 c1        1 BFI     -0.104000
      6 C7         -1.4500   -0.5910    1.3100 c1        1 BFI     -0.130000
      7 C8         -1.3460   -0.4640   -1.2110 c3        1 BFI     -0.062000
      8 F9         -5.5800   -0.3410    1.3020 f         1 BFI     -0.089000
      9 C11         0.1020   -0.5870    1.3260 c2        1 BFI      0.366000
     10 O13         0.7940   -0.5530   -2.2120 o         1 BFI     -0.307000
     11 N14        -2.8410    0.4060   -2.7680 n         1 BFI     -0.381000
     12 O15        -3.2630   -1.5140   -4.0380 o         1 BFI     -0.292000
     13 O16         0.6970   -0.5430    2.3830 o         1 BFI     -0.328000
     14 N17         0.8390   -0.6980    0.0870 n         1 BFI     -0.311000
     15 C18        -1.8470   -1.6230   -2.0360 c3        1 BFI     -0.184000
     16 C21        -2.7030   -0.9510   -3.1140 c2        1 BFI      0.313000
     17 C22         0.1580   -0.5470   -1.1730 c2        1 BFI      0.329000
     18 C23         2.2530   -1.0140    0.1110 c3        1 BFI      0.007000
     19 C25         3.0460    0.2340    0.4460 c2        1 BFI     -0.131000
     20 C27         4.7100    2.3810    1.0000 c1        1 BFI     -0.134000
     21 C28         3.5230    0.4260    1.7300 c2        1 BFI     -0.087000
     22 C29         3.4010    1.1180   -0.5650 c1        1 BFI      0.113000
     23 C30         4.2310    2.1890   -0.2880 c1        1 BFI     -0.149000
     24 C31         4.3560    1.5000    2.0080 c1        1 BFI     -0.122000
     25 F33         2.9200    0.9480   -1.8040 f         1 BFI     -0.093000
     26 BR36        5.7150    3.9520    1.4160 br        1 BFI      0.064000
     27 O37        -1.2390    1.8340   -1.7140 o         1 BFI     -0.278000
     28 C39        -1.6940    0.7240   -1.9160 c2        1 BFI      0.323000
     29 H2         -4.0120   -0.2870   -0.7370 ha        1 BFI      0.161000
     30 H3         -1.6880   -0.7250    3.3700 ha        1 BFI      0.169000
     31 H6         -4.0550   -0.5800    3.3600 ha        1 BFI      0.169000
     32 H14        -3.2580    1.0180   -3.3060 hn        1 BFI      0.270000
     33 H181       -1.2060   -2.2370   -2.4560 hc        1 BFI      0.152000
     34 H182       -2.3430   -2.2290   -1.4500 hc        1 BFI      0.152000
     35 H231        2.5280   -1.3480   -0.7690 h1        1 BFI      0.132000
     36 H232        2.4230   -1.6990    0.7860 h1        1 BFI      0.132000
     37 H28         3.2750   -0.1940    2.4390 ha        1 BFI      0.163000
     38 H30         4.4800    2.8100   -0.9990 ha        1 BFI      0.164000
     39 H31         4.6920    1.6350    2.9120 ha        1 BFI      0.154000
@<TRIPOS>BOND
     1    1    4 1   
     2    1   29 1   
     3    2    5 1   
     4    2   30 1   
     5    3    6 1   
     6    3    7 1   
     7    4    8 1   
     8    5   31 1   
     9    6    9 1   
    10    7   15 1   
    11    7   17 1   
    12    7   28 1   
    13    9   13 1   
    14    9   14 1   
    15   10   17 1   
    16   11   16 1   
    17   11   28 1   
    18   11   32 1   
    19   12   16 1   
    20   14   17 1   
    21   14   18 1   
    22   15   16 1   
    23   15   33 1   
    24   15   34 1   
    25   18   19 1   
    26   18   35 1   
    27   18   36 1   
    28   19   21 1   
    29   19   22 1   
    30   20   23 1   
    31   20   26 1   
    32   21   24 1   
    33   21   37 1   
    34   22   25 1   
    35   23   38 1   
    36   24   39 1   
    37   27   28 1   
@<TRIPOS>SUBSTRUCTURE
     1 BFI         1 TEMP              0 ****  ****    0 ROOT
