@<TRIPOS>MOLECULE
BFL
   30    31     1     0     0
SMALL
bcc


@<TRIPOS>ATOM
      1 C1         -0.0390   -0.1500   -0.0020 ca        1 BFL     -0.124000
      2 C2         -4.9960    0.0130    1.3020 ca        1 BFL     -0.152000
      3 C3         -4.3120    0.6480    0.2670 ca        1 BFL     -0.135000
      4 C4         -2.9190    0.6380    0.2360 ca        1 BFL     -0.130500
      5 C5          3.5800    0.0150    1.1180 c3        1 BFL     -0.171400
      6 C6          4.1640   -1.1520    0.2600 c         1 BFL      0.923600
      7 C7          4.0820    1.3290    0.5580 c3        1 BFL     -0.061100
      8 C8          1.3500   -0.1510   -0.0320 ca        1 BFL     -0.139000
      9 C9          2.0920   -0.0130    1.1520 ca        1 BFL      0.000700
     10 C10         1.4020    0.1040    2.3660 ca        1 BFL     -0.139000
     11 C11         0.0100    0.1000    2.3980 ca        1 BFL     -0.124000
     12 C12        -0.7290   -0.0180    1.2140 cp        1 BFL     -0.094000
     13 C13        -2.1880   -0.0090    1.2440 cp        1 BFL      0.005000
     14 C14        -2.8870   -0.6480    2.2800 ca        1 BFL     -0.130500
     15 C15        -4.2790   -0.6350    2.3080 ca        1 BFL     -0.135000
     16 O1          4.8310   -2.0290    0.8710 o         1 BFL     -0.834300
     17 O2          3.9620   -1.1400   -0.9870 o         1 BFL     -0.834300
     18 H1         -0.6040   -0.2700   -0.9380 ha        1 BFL      0.114000
     19 H4         -2.3830    1.1450   -0.5810 ha        1 BFL      0.136000
     20 H5          3.9760   -0.1150    2.1630 hc        1 BFL      0.045700
     21 H71         5.1960    1.3600    0.6190 hc        1 BFL      0.021367
     22 H72         3.7840    1.4190   -0.5150 hc        1 BFL      0.021367
     23 H73         3.6680    2.1960    1.1270 hc        1 BFL      0.021367
     24 H8          1.9070   -0.2950   -0.9780 ha        1 BFL      0.156000
     25 H10         1.9670    0.1940    3.3050 ha        1 BFL      0.156000
     26 H11        -0.5140    0.2000    3.3600 ha        1 BFL      0.114000
     27 H14        -2.3250   -1.1690    3.0700 ha        1 BFL      0.136000
     28 H15        -4.8140   -1.1420    3.1230 ha        1 BFL      0.119000
     29 H2         -6.0950    0.0210    1.3250 ha        1 BFL      0.117000
     30 H3         -4.8720    1.1600   -0.5290 ha        1 BFL      0.119000
@<TRIPOS>BOND
     1    1    8 ar  
     2    1   12 ar  
     3    1   18 1   
     4    2    3 ar  
     5    2   15 ar  
     6    2   29 1   
     7    3    4 ar  
     8    3   30 1   
     9    4   13 ar  
    10    4   19 1   
    11    5    6 1   
    12    5    7 1   
    13    5    9 1   
    14    5   20 1   
    15    6   16 1   
    16    6   17 1   
    17    7   21 1   
    18    7   22 1   
    19    7   23 1   
    20    8    9 ar  
    21    8   24 1   
    22    9   10 ar  
    23   10   11 ar  
    24   10   25 1   
    25   11   12 ar  
    26   11   26 1   
    27   12   13 1   
    28   13   14 ar  
    29   14   15 ar  
    30   14   27 1   
    31   15   28 1   
@<TRIPOS>SUBSTRUCTURE
     1 BFL         1 TEMP              0 ****  ****    0 ROOT
