@<TRIPOS>MOLECULE
BFL
   30    31     1     0     0
SMALL
bcc


@<TRIPOS>ATOM
      1 C1         -0.0360   -0.1450   -0.0030 ca        1 BFL     -0.124000
      2 C2         -4.9970    0.0390    1.2840 ca        1 BFL     -0.152000
      3 C3         -4.3060    0.6750    0.2540 ca        1 BFL     -0.135000
      4 C4         -2.9130    0.6580    0.2270 ca        1 BFL     -0.130500
      5 C5          3.5790   -0.0040    1.1300 c3        1 BFL     -0.171400
      6 C6          4.1600   -1.1710    0.2690 c         1 BFL      0.923600
      7 C7          4.0900    1.3090    0.5780 c3        1 BFL     -0.061100
      8 C8          1.3530   -0.1540   -0.0290 ca        1 BFL     -0.139000
      9 C9          2.0910   -0.0250    1.1590 ca        1 BFL      0.000700
     10 C10         1.3970    0.0910    2.3710 ca        1 BFL     -0.139000
     11 C11         0.0050    0.0950    2.3980 ca        1 BFL     -0.124000
     12 C12        -0.7300   -0.0150    1.2110 cp        1 BFL     -0.094000
     13 C13        -2.1890    0.0020    1.2360 cp        1 BFL      0.005000
     14 C14        -2.8950   -0.6370    2.2670 ca        1 BFL     -0.130500
     15 C15        -4.2880   -0.6170    2.2890 ca        1 BFL     -0.135000
     16 O1          4.8210   -2.0540    0.8790 o         1 BFL     -0.834300
     17 O2          3.9620   -1.1530   -0.9780 o         1 BFL     -0.834300
     18 H1         -0.5990   -0.2590   -0.9410 ha        1 BFL      0.114000
     19 H4         -2.3710    1.1640   -0.5850 ha        1 BFL      0.136000
     20 H5          3.9700   -0.1410    2.1760 hc        1 BFL      0.045700
     21 H71         5.2040    1.3340    0.6420 hc        1 BFL      0.021367
     22 H72         3.6780    2.1760    1.1490 hc        1 BFL      0.021367
     23 H73         3.7970    1.4060   -0.4960 hc        1 BFL      0.021367
     24 H8          1.9120   -0.2970   -0.9730 ha        1 BFL      0.156000
     25 H10         1.9600    0.1740    3.3130 ha        1 BFL      0.156000
     26 H11        -0.5210    0.1940    3.3580 ha        1 BFL      0.114000
     27 H14        -2.3390   -1.1650    3.0570 ha        1 BFL      0.136000
     28 H15        -4.8280   -1.1240    3.1010 ha        1 BFL      0.119000
     29 H2         -6.0960    0.0530    1.3020 ha        1 BFL      0.117000
     30 H3         -4.8610    1.1930   -0.5420 ha        1 BFL      0.119000
@<TRIPOS>BOND
     1    1    8 ar  
     2    1   12 ar  
     3    1   18 1   
     4    2    3 ar  
     5    2   15 ar  
     6    2   29 1   
     7    3    4 ar  
     8    3   30 1   
     9    4   13 ar  
    10    4   19 1   
    11    5    6 1   
    12    5    7 1   
    13    5    9 1   
    14    5   20 1   
    15    6   16 1   
    16    6   17 1   
    17    7   21 1   
    18    7   22 1   
    19    7   23 1   
    20    8    9 ar  
    21    8   24 1   
    22    9   10 ar  
    23   10   11 ar  
    24   10   25 1   
    25   11   12 ar  
    26   11   26 1   
    27   12   13 1   
    28   13   14 ar  
    29   14   15 ar  
    30   14   27 1   
    31   15   28 1   
@<TRIPOS>SUBSTRUCTURE
     1 BFL         1 TEMP              0 ****  ****    0 ROOT
