@<TRIPOS>MOLECULE
BFL
   30    24     1     0     0
SMALL
bcc


@<TRIPOS>ATOM
      1 C1         -0.1150   -0.0320   -1.0160 c1        1 BFL     -0.132833
      2 C2         -4.9630   -0.0290    0.1290 c1        1 BFL     -0.132833
      3 C3         -4.2700    1.1700    0.1860 c1        1 BFL     -0.132833
      4 C4         -2.8850    1.1690    0.2150 c1        1 BFL     -0.129000
      5 C5          3.4780   -0.0430    0.1790 c3        1 BFL     -0.168000
      6 C6          3.9410   -1.2960   -0.5310 c2        1 BFL      0.343000
      7 C7          4.0210    1.1730   -0.5390 c3        1 BFL     -0.179000
      8 C8          1.2710   -0.0130   -1.0180 c1        1 BFL     -0.132833
      9 C9          1.9660    0.0060    0.1810 c1        1 BFL      0.008000
     10 C10         1.2740    0.0070    1.3820 c1        1 BFL     -0.154000
     11 C11        -0.1120   -0.0120    1.3840 c1        1 BFL     -0.129000
     12 C12        -0.8060   -0.0310    0.1850 c1        1 BFL     -0.044500
     13 C13        -2.1920   -0.0310    0.1860 c1        1 BFL     -0.044500
     14 C14        -2.8850   -1.2300    0.1290 c1        1 BFL     -0.132833
     15 C15        -4.2700   -1.2290    0.1010 c1        1 BFL     -0.132833
     16 O1          4.3590   -1.2300   -1.7160 o         1 BFL     -0.569000
     17 O2          3.9030   -2.4060    0.0630 o         1 BFL     -0.569000
     18 H1         -0.6040   -0.0390   -1.8610 ha        1 BFL      0.133333
     19 H2         -5.9390   -0.0280    0.1090 ha        1 BFL      0.133333
     20 H3         -4.7580    2.0150    0.2060 ha        1 BFL      0.133333
     21 H4         -2.3970    2.0130    0.2760 ha        1 BFL      0.122000
     22 H5          3.8040   -0.0500    1.0990 hc        1 BFL      0.085000
     23 H71         4.9720    1.2790   -0.3290 hc        1 BFL      0.060667
     24 H72         3.9100    1.0580   -1.5060 hc        1 BFL      0.060667
     25 H73         3.5320    1.9710   -0.2470 hc        1 BFL      0.060667
     26 H8          1.7580   -0.0140   -1.8650 ha        1 BFL      0.133333
     27 H10         1.7630    0.0150    2.2270 ha        1 BFL      0.123000
     28 H11        -0.5990   -0.0110    2.2300 ha        1 BFL      0.122000
     29 H14        -2.3970   -2.0750    0.1010 ha        1 BFL      0.133333
     30 H15        -4.7580   -2.0740    0.0600 ha        1 BFL      0.133333
@<TRIPOS>BOND
     1    1    8 1   
     2    1   18 1   
     3    2    3 1   
     4    2   19 1   
     5    3   20 1   
     6    4   13 1   
     7    4   21 1   
     8    5    6 1   
     9    5    7 1   
    10    5    9 1   
    11    5   22 1   
    12    6   16 1   
    13    6   17 1   
    14    7   23 1   
    15    7   24 1   
    16    7   25 1   
    17    8   26 1   
    18    9   10 1   
    19   10   27 1   
    20   11   12 1   
    21   11   28 1   
    22   14   15 1   
    23   14   29 1   
    24   15   30 1   
@<TRIPOS>SUBSTRUCTURE
     1 BFL         1 TEMP              0 ****  ****    0 ROOT
