@<TRIPOS>MOLECULE
BFL
   30    31     1     0     0
SMALL
bcc


@<TRIPOS>ATOM
      1 C1         -0.2880    0.8330   -0.5780 ca        1 BFL     -0.124000
      2 C2         -5.3420    0.0080   -0.2810 ca        1 BFL     -0.152000
      3 C3         -4.6200    1.2000   -0.3110 ca        1 BFL     -0.135000
      4 C4         -3.2350    1.1870   -0.1660 ca        1 BFL     -0.130500
      5 C5          3.1840   -0.0440    0.6680 c3        1 BFL     -0.171400
      6 C6          3.9410   -0.0790   -0.6970 c         1 BFL      0.923600
      7 C7          3.6230    1.1840    1.4370 c3        1 BFL     -0.061100
      8 C8          1.0930    0.8240   -0.4250 ca        1 BFL     -0.139000
      9 C9          1.7070   -0.0540    0.4830 ca        1 BFL      0.000700
     10 C10         0.8990   -0.9340    1.2160 ca        1 BFL     -0.139000
     11 C11        -0.4840   -0.9300    1.0600 ca        1 BFL     -0.124000
     12 C12        -1.0970   -0.0400    0.1680 cp        1 BFL     -0.094000
     13 C13        -2.5480   -0.0250    0.0130 cp        1 BFL      0.005000
     14 C14        -3.2840   -1.2200    0.0400 ca        1 BFL     -0.130500
     15 C15        -4.6690   -1.2010   -0.1050 ca        1 BFL     -0.135000
     16 O1          4.6210   -1.1110   -0.9450 o         1 BFL     -0.834300
     17 O2          3.8560    0.9260   -1.4570 o         1 BFL     -0.834300
     18 H1         -0.7520    1.5180   -1.3010 ha        1 BFL      0.114000
     19 H4         -2.6690    2.1300   -0.1860 ha        1 BFL      0.136000
     20 H5          3.4900   -0.9650    1.2380 hc        1 BFL      0.045700
     21 H71         4.7200    1.1280    1.6350 hc        1 BFL      0.021367
     22 H72         3.4200    2.1000    0.8310 hc        1 BFL      0.021367
     23 H73         3.0860    1.2640    2.4130 hc        1 BFL      0.021367
     24 H8          1.7450    1.4770   -1.0360 ha        1 BFL      0.156000
     25 H10         1.3650   -1.6410    1.9180 ha        1 BFL      0.156000
     26 H11        -1.1020   -1.6230    1.6490 ha        1 BFL      0.114000
     27 H14        -2.7560   -2.1770    0.1680 ha        1 BFL      0.136000
     28 H15        -5.2330   -2.1450   -0.0850 ha        1 BFL      0.119000
     29 H2         -6.4340    0.0210   -0.3960 ha        1 BFL      0.117000
     30 H3         -5.1450    2.1560   -0.4500 ha        1 BFL      0.119000
@<TRIPOS>BOND
     1    1    8 ar  
     2    1   12 ar  
     3    1   18 1   
     4    2    3 ar  
     5    2   15 ar  
     6    2   29 1   
     7    3    4 ar  
     8    3   30 1   
     9    4   13 ar  
    10    4   19 1   
    11    5    6 1   
    12    5    7 1   
    13    5    9 1   
    14    5   20 1   
    15    6   16 1   
    16    6   17 1   
    17    7   21 1   
    18    7   22 1   
    19    7   23 1   
    20    8    9 ar  
    21    8   24 1   
    22    9   10 ar  
    23   10   11 ar  
    24   10   25 1   
    25   11   12 ar  
    26   11   26 1   
    27   12   13 1   
    28   13   14 ar  
    29   14   15 ar  
    30   14   27 1   
    31   15   28 1   
@<TRIPOS>SUBSTRUCTURE
     1 BFL         1 TEMP              0 ****  ****    0 ROOT
