@<TRIPOS>MOLECULE
BFM
   14    13     1     0     0
SMALL
bcc


@<TRIPOS>ATOM
      1 O01        -1.6750   -0.0370    0.0610 oh        1 BFM     -0.597800
      2 C02        -0.2680   -0.0370    0.0610 c3        1 BFM     -0.049200
      3 C03         0.2360   -0.0370    1.4870 c         1 BFM      0.926600
      4 O04        -0.2930   -0.7950    2.3420 o         1 BFM     -0.766800
      5 O05         1.1850    0.7200    1.8190 o         1 BFM     -0.766800
      6 C06         0.2360    1.1980   -0.6520 c3        1 BFM      0.633900
      7 F07        -0.3690    1.3050   -1.8420 f         1 BFM     -0.244967
      8 F08         1.5600    1.1000   -0.8330 f         1 BFM     -0.244967
      9 F09        -0.0350    2.2820    0.0860 f         1 BFM     -0.244967
     10 C10         0.2360   -1.2730   -0.6520 c3        1 BFM      0.633900
     11 F11        -0.3850   -2.3540   -0.1660 f         1 BFM     -0.244967
     12 F12         1.5560   -1.3920   -0.4590 f         1 BFM     -0.244967
     13 F13        -0.0150   -1.1650   -1.9630 f         1 BFM     -0.244967
     14 H1         -1.9710    0.4870    0.7130 ho        1 BFM      0.456000
@<TRIPOS>BOND
     1    1    2 1   
     2    1   14 1   
     3    2    3 1   
     4    2    6 1   
     5    2   10 1   
     6    3    4 1   
     7    3    5 1   
     8    6    7 1   
     9    6    8 1   
    10    6    9 1   
    11   10   11 1   
    12   10   12 1   
    13   10   13 1   
@<TRIPOS>SUBSTRUCTURE
     1 BFM         1 TEMP              0 ****  ****    0 ROOT
