@<TRIPOS>MOLECULE
BFM
   14    13     1     0     0
SMALL
bcc


@<TRIPOS>ATOM
      1 O01         0.1190    0.0710    1.8200 oh        1 BFM     -0.597800
      2 C02         0.0370    0.1960    0.4270 c3        1 BFM     -0.049200
      3 C03         0.4230    1.6660   -0.0540 c         1 BFM      0.926600
      4 O04         0.7270    2.4340    0.8930 o         1 BFM     -0.766800
      5 O05         0.3880    1.9060   -1.2750 o         1 BFM     -0.766800
      6 C06         1.0200   -0.8690   -0.1760 c3        1 BFM      0.633900
      7 F07         0.8470   -2.1450    0.3100 f         1 BFM     -0.244967
      8 F08         0.9600   -1.0310   -1.5350 f         1 BFM     -0.244967
      9 F09         2.3410   -0.6040    0.0840 f         1 BFM     -0.244967
     10 C10        -1.4420   -0.1540    0.0340 c3        1 BFM      0.633900
     11 F11        -1.9020   -1.3460    0.5450 f         1 BFM     -0.244967
     12 F12        -2.3600    0.7620    0.4840 f         1 BFM     -0.244967
     13 F13        -1.6900   -0.2620   -1.3090 f         1 BFM     -0.244967
     14 H1          0.4010    0.9380    2.1750 ho        1 BFM      0.456000
@<TRIPOS>BOND
     1    1    2 1   
     2    1   14 1   
     3    2    3 1   
     4    2    6 1   
     5    2   10 1   
     6    3    4 1   
     7    3    5 1   
     8    6    7 1   
     9    6    8 1   
    10    6    9 1   
    11   10   11 1   
    12   10   12 1   
    13   10   13 1   
@<TRIPOS>SUBSTRUCTURE
     1 BFM         1 TEMP              0 ****  ****    0 ROOT
