@<TRIPOS>MOLECULE
BFM
   14    13     1     0     0
SMALL
bcc


@<TRIPOS>ATOM
      1 O01         0.0400    0.0250   -0.0900 oh        1 BFM     -0.597800
      2 C02         1.4360    0.0370    0.0240 c3        1 BFM     -0.049200
      3 C03         1.9000    0.0500    1.5490 c         1 BFM      0.926600
      4 O04         0.9400    0.0480    2.3600 o         1 BFM     -0.766800
      5 O05         3.1220    0.0610    1.7840 o         1 BFM     -0.766800
      6 C06         1.9550   -1.2510   -0.7100 c3        1 BFM      0.633900
      7 F07         1.4720   -1.4130   -1.9880 f         1 BFM     -0.244967
      8 F08         3.3130   -1.3390   -0.8650 f         1 BFM     -0.244967
      9 F09         1.6000   -2.4190   -0.0830 f         1 BFM     -0.244967
     10 C10         1.9350    1.3220   -0.7270 c3        1 BFM      0.633900
     11 F11         1.4490    1.4600   -2.0070 f         1 BFM     -0.244967
     12 F12         1.5620    2.4930   -0.1160 f         1 BFM     -0.244967
     13 F13         3.2910    1.4290   -0.8830 f         1 BFM     -0.244967
     14 H1         -0.3270    0.0280    0.8170 ho        1 BFM      0.456000
@<TRIPOS>BOND
     1    1    2 1   
     2    1   14 1   
     3    2    3 1   
     4    2    6 1   
     5    2   10 1   
     6    3    4 1   
     7    3    5 1   
     8    6    7 1   
     9    6    8 1   
    10    6    9 1   
    11   10   11 1   
    12   10   12 1   
    13   10   13 1   
@<TRIPOS>SUBSTRUCTURE
     1 BFM         1 TEMP              0 ****  ****    0 ROOT
