@<TRIPOS>MOLECULE
BFM
   14    13     1     0     0
SMALL
bcc


@<TRIPOS>ATOM
      1 O01         0.0410   -0.0360   -0.0930 oh        1 BFM     -0.597800
      2 C02         1.4360    0.0260    0.0230 c3        1 BFM     -0.049200
      3 C03         1.8960    0.0430    1.5490 c         1 BFM      0.926600
      4 O04         0.9360   -0.0040    2.3580 o         1 BFM     -0.766800
      5 O05         3.1170    0.0980    1.7870 o         1 BFM     -0.766800
      6 C06         2.0030   -1.2340   -0.7210 c3        1 BFM      0.633900
      7 F07         1.5300   -1.4010   -2.0030 f         1 BFM     -0.244967
      8 F08         3.3640   -1.2710   -0.8740 f         1 BFM     -0.244967
      9 F09         1.6900   -2.4200   -0.1080 f         1 BFM     -0.244967
     10 C10         1.8880    1.3370   -0.7140 c3        1 BFM      0.633900
     11 F11         1.3980    1.4690   -1.9930 f         1 BFM     -0.244967
     12 F12         1.4720    2.4860   -0.0920 f         1 BFM     -0.244967
     13 F13         3.2400    1.4950   -0.8680 f         1 BFM     -0.244967
     14 H1         -0.3270   -0.0560    0.8130 ho        1 BFM      0.456000
@<TRIPOS>BOND
     1    1    2 1   
     2    1   14 1   
     3    2    3 1   
     4    2    6 1   
     5    2   10 1   
     6    3    4 1   
     7    3    5 1   
     8    6    7 1   
     9    6    8 1   
    10    6    9 1   
    11   10   11 1   
    12   10   12 1   
    13   10   13 1   
@<TRIPOS>SUBSTRUCTURE
     1 BFM         1 TEMP              0 ****  ****    0 ROOT
