@<TRIPOS>MOLECULE
BFN
   52    50     1     0     0
SMALL
bcc


@<TRIPOS>ATOM
      1 O2          1.6920    3.0140    2.0350 oh        1 BFN     -0.385000
      2 C1         -0.0370    3.0250    3.5120 c1        1 BFN      0.352000
      3 F1         -1.6690    4.3050    1.6640 f         1 BFN     -0.154000
      4 C2          0.2790    3.0160    2.0180 c3        1 BFN      0.083000
      5 C3         -0.2420    4.2090    1.3660 c3        1 BFN      0.032000
      6 C4         -0.0830    4.2390   -0.0300 c3        1 BFN     -0.026000
      7 O4         -0.8090    5.4520   -0.5680 oh        1 BFN     -0.336000
      8 C5         -0.6030    3.0380   -0.7190 c3        1 BFN     -0.050000
      9 N5         -0.2890    3.1510   -2.1370 n         1 BFN     -0.349000
     10 C6         -0.0350    1.6850   -0.1950 c3        1 BFN      0.009000
     11 O6         -0.2650    1.7710    1.3480 os        1 BFN     -0.284000
     12 C7         -0.7300    0.6110   -0.7410 c3        1 BFN      0.015000
     13 O7         -1.9140    0.3500    0.0530 oh        1 BFN     -0.347000
     14 C8          0.1890   -0.6590   -0.7420 c3        1 BFN     -0.027000
     15 O8          0.2350   -1.1910   -2.0150 oh        1 BFN     -0.346000
     16 C9         -0.3680   -1.6880    0.2140 c3        1 BFN     -0.071000
     17 N9          0.1600   -3.0100   -0.1300 n         1 BFN     -0.332000
     18 C10        -1.1800    3.8790   -3.0190 c2        1 BFN      0.301000
     19 O10        -2.1890    4.3950   -2.5740 o         1 BFN     -0.372000
     20 C11        -0.8150    4.0620   -4.4870 c3        1 BFN     -0.243000
     21 C12         1.0670   -3.6980    0.7890 c2        1 BFN      0.330000
     22 O12         1.8860   -3.0630    1.4230 o         1 BFN     -0.367000
     23 C13         0.9570   -5.2440    0.9830 c2        1 BFN     -0.112000
     24 C14         0.2270   -5.7590    2.0470 c2        1 BFN     -0.098000
     25 C15         0.1950   -7.1370    2.2710 c1        1 BFN     -0.143000
     26 C16         0.8940   -7.9940    1.4290 c1        1 BFN     -0.133000
     27 C17         1.6270   -7.4780    0.3630 c1        1 BFN     -0.133000
     28 C18         1.6580   -6.1020    0.1400 c1        1 BFN     -0.084000
     29 O1A        -0.7940    3.9140    3.9910 os        1 BFN     -0.492000
     30 O1B         0.4040    2.1180    4.2490 o         1 BFN     -0.553000
     31 HO2         1.9830    3.5660    2.6760 ho        1 BFN      0.250000
     32 H3          0.2080    4.9920    1.7460 h1        1 BFN      0.113000
     33 H4          0.8690    4.3290   -0.2340 h1        1 BFN      0.132000
     34 HO4        -0.2910    6.1710   -0.4810 ho        1 BFN      0.220000
     35 H5         -1.5740    3.0230   -0.6180 h1        1 BFN      0.150000
     36 HN5         0.5040    2.8220   -2.4570 hn        1 BFN      0.207000
     37 H6          0.9170    1.6140   -0.3950 h1        1 BFN      0.099000
     38 H7         -0.9920    0.8250   -1.6590 h1        1 BFN      0.117000
     39 HO7        -2.6310    0.3450   -0.4750 ho        1 BFN      0.244000
     40 H8          1.0860   -0.4090   -0.4630 h1        1 BFN      0.112000
     41 HO8        -0.3980   -0.8160   -2.5180 ho        1 BFN      0.215000
     42 H9         -0.1040   -1.4600    1.1300 h1        1 BFN      0.132500
     43 H9A        -1.3480   -1.7000    0.1490 h1        1 BFN      0.132500
     44 HN9        -0.0380   -3.3820   -0.9380 hn        1 BFN      0.214000
     45 H11        -0.0180    4.6240   -4.5580 hc        1 BFN      0.098667
     46 H11A       -1.5640    4.4940   -4.9600 hc        1 BFN      0.098667
     47 H11B       -0.6350    3.1880   -4.8900 hc        1 BFN      0.098667
     48 H14        -0.2600   -5.1620    2.6340 ha        1 BFN      0.148000
     49 H15        -0.3540   -7.5000    2.9860 ha        1 BFN      0.130000
     50 H16         0.8720   -8.9560    1.5860 ha        1 BFN      0.126500
     51 H17         2.1170   -8.0770   -0.2270 ha        1 BFN      0.126500
     52 H18         2.2030   -5.7410   -0.5700 ha        1 BFN      0.151000
@<TRIPOS>BOND
     1    1    4 1   
     2    1   31 1   
     3    2    4 1   
     4    2   30 1   
     5    3    5 1   
     6    4    5 1   
     7    4   11 1   
     8    5    6 1   
     9    5   32 1   
    10    6    7 1   
    11    6    8 1   
    12    6   33 1   
    13    7   34 1   
    14    8    9 1   
    15    8   10 1   
    16    8   35 1   
    17    9   18 1   
    18    9   36 1   
    19   10   11 1   
    20   10   12 1   
    21   10   37 1   
    22   12   13 1   
    23   12   14 1   
    24   12   38 1   
    25   13   39 1   
    26   14   15 1   
    27   14   16 1   
    28   14   40 1   
    29   15   41 1   
    30   16   17 1   
    31   16   42 1   
    32   16   43 1   
    33   17   21 1   
    34   17   44 1   
    35   18   19 1   
    36   18   20 1   
    37   20   45 1   
    38   20   46 1   
    39   20   47 1   
    40   21   22 1   
    41   21   23 1   
    42   23   24 1   
    43   23   28 1   
    44   24   25 1   
    45   24   48 1   
    46   25   49 1   
    47   26   27 1   
    48   26   50 1   
    49   27   51 1   
    50   28   52 1   
@<TRIPOS>SUBSTRUCTURE
     1 BFN         1 TEMP              0 ****  ****    0 ROOT
