@<TRIPOS>MOLECULE
BFN
   54    55     1     0     0
SMALL
bcc


@<TRIPOS>ATOM
      1 O2          1.5800   -0.4560   -0.4300 oh        1 BFN     -0.637800
      2 C1          0.9690   -2.5090    0.8480 c         1 BFN      0.958600
      3 F1         -1.5770   -2.1880   -0.7500 f         1 BFN     -0.232300
      4 C2          0.7500   -1.5770   -0.4160 c3        1 BFN      0.159600
      5 C3         -0.7150   -1.1120   -0.6210 c3        1 BFN      0.127600
      6 C4         -0.7410   -0.2460   -1.9000 c3        1 BFN      0.092100
      7 O4         -2.0250    0.2490   -2.2120 oh        1 BFN     -0.616800
      8 C5         -0.2200   -1.0710   -3.1100 c3        1 BFN      0.069500
      9 N5         -0.1700   -0.2000   -4.3330 n4        1 BFN     -0.675800
     10 C6          1.1670   -1.7000   -2.7960 c3        1 BFN      0.146100
     11 O6          1.1360   -2.3580   -1.5420 os        1 BFN     -0.436600
     12 C7          1.6250   -2.7940   -3.7940 c3        1 BFN      0.101100
     13 O7          0.7940   -2.7330   -4.9450 oh        1 BFN     -0.647800
     14 C8          1.6290   -4.2200   -3.1970 c3        1 BFN      0.109100
     15 O8          2.3170   -5.0920   -4.0690 oh        1 BFN     -0.568800
     16 C9          0.2130   -4.7630   -2.9210 c3        1 BFN      0.091800
     17 N9         -0.0730   -5.0250   -1.4900 n4        1 BFN     -0.679800
     18 C10        -1.5620    0.2250   -4.7850 c         1 BFN      0.580100
     19 O10        -2.3200   -0.6820   -5.0850 o         1 BFN     -0.418100
     20 C11        -1.8130    1.6930   -4.8050 c3        1 BFN     -0.185100
     21 C12        -1.3710   -5.7710   -1.3050 c         1 BFN      0.591700
     22 O12        -2.2520   -5.5180   -2.1230 o         1 BFN     -0.474100
     23 C13        -1.4270   -6.7330   -0.2040 ca        1 BFN     -0.209600
     24 C14        -2.2840   -7.8370   -0.3680 ca        1 BFN     -0.066000
     25 C15        -2.3930   -8.7820    0.6460 ca        1 BFN     -0.135500
     26 C16        -1.6660   -8.6270    1.8290 ca        1 BFN     -0.060000
     27 C17        -0.8310   -7.5220    1.9980 ca        1 BFN     -0.135500
     28 C18        -0.7060   -6.5690    0.9880 ca        1 BFN     -0.066000
     29 O1A         0.5130   -3.6810    0.7600 o         1 BFN     -0.766300
     30 O1B         1.5930   -1.9750    1.7790 o         1 BFN     -0.766300
     31 HO2         2.1620   -0.5050    0.3530 ho        1 BFN      0.479000
     32 H3         -1.0340   -0.4870    0.2610 h1        1 BFN      0.124700
     33 H4         -0.0900    0.6590   -1.7200 h1        1 BFN      0.121700
     34 HO4        -2.6880   -0.3790   -1.8860 ho        1 BFN      0.446000
     35 H5         -0.9600   -1.8990   -3.3320 hx        1 BFN      0.127700
     36 HN5         0.3940    0.6280   -4.1310 hn        1 BFN      0.460800
     37 H6          1.9420   -0.8820   -2.7580 h1        1 BFN      0.084700
     38 H7          2.6920   -2.5650   -4.0860 h1        1 BFN      0.087700
     39 HO7         1.2390   -3.2260   -5.6480 ho        1 BFN      0.441000
     40 H8          2.2740   -4.2040   -2.2660 h1        1 BFN      0.138700
     41 HO8         1.7900   -5.2050   -4.8720 ho        1 BFN      0.405000
     42 H9         -0.5600   -4.0330   -3.2960 hx        1 BFN      0.100200
     43 H9A         0.0760   -5.7350   -3.4810 hx        1 BFN      0.100200
     44 HN9         0.6930   -5.5540   -1.0560 hn        1 BFN      0.495800
     45 H11        -1.9800    2.0440   -3.7490 hc        1 BFN      0.115700
     46 H11A       -2.7460    1.8870   -5.3970 hc        1 BFN      0.115700
     47 H11B       -0.9670    2.2640   -5.2600 hc        1 BFN      0.115700
     48 H14        -2.8690   -7.9440   -1.2960 ha        1 BFN      0.176000
     49 H15        -3.0600   -9.6490    0.5170 ha        1 BFN      0.161500
     50 H16        -1.7580   -9.3770    2.6330 ha        1 BFN      0.157000
     51 H17        -0.2710   -7.3900    2.9380 ha        1 BFN      0.161500
     52 H18        -0.0680   -5.6830    1.1710 ha        1 BFN      0.176000
     53 H52         0.2730   -0.7400   -5.0910 hn        1 BFN      0.460800
     54 H92        -0.1240   -4.1130   -0.9470 hn        1 BFN      0.495800
@<TRIPOS>BOND
     1    1    4 1   
     2    1   31 1   
     3    2    4 1   
     4    2   29 1   
     5    2   30 1   
     6    3    5 1   
     7    4    5 1   
     8    4   11 1   
     9    5    6 1   
    10    5   32 1   
    11    6    7 1   
    12    6    8 1   
    13    6   33 1   
    14    7   34 1   
    15    8    9 1   
    16    8   10 1   
    17    8   35 1   
    18    9   18 1   
    19    9   36 1   
    20    9   53 1   
    21   10   11 1   
    22   10   12 1   
    23   10   37 1   
    24   12   13 1   
    25   12   14 1   
    26   12   38 1   
    27   13   39 1   
    28   14   15 1   
    29   14   16 1   
    30   14   40 1   
    31   15   41 1   
    32   16   17 1   
    33   16   42 1   
    34   16   43 1   
    35   17   21 1   
    36   17   44 1   
    37   17   54 1   
    38   18   19 2   
    39   18   20 1   
    40   20   45 1   
    41   20   46 1   
    42   20   47 1   
    43   21   22 2   
    44   21   23 1   
    45   23   24 ar  
    46   23   28 ar  
    47   24   25 ar  
    48   24   48 1   
    49   25   26 ar  
    50   25   49 1   
    51   26   27 ar  
    52   26   50 1   
    53   27   28 ar  
    54   27   51 1   
    55   28   52 1   
@<TRIPOS>SUBSTRUCTURE
     1 BFN         1 TEMP              0 ****  ****    0 ROOT
