@<TRIPOS>MOLECULE
BFN
   52    53     1     0     0
SMALL
bcc


@<TRIPOS>ATOM
      1 O2          2.2140   -2.0670   -1.5650 oh        1 BFN     -0.658800
      2 C1          2.2680   -3.3160    0.5770 c         1 BFN      0.932600
      3 F1          4.3450   -1.2120    1.2320 f         1 BFN     -0.224300
      4 C2          2.4950   -1.9490   -0.1910 c3        1 BFN      0.177600
      5 C3          3.9260   -1.3630   -0.0760 c3        1 BFN      0.145600
      6 C4          3.9470   -0.0020   -0.8140 c3        1 BFN      0.086100
      7 O4          5.2340    0.5790   -0.7750 oh        1 BFN     -0.608800
      8 C5          2.8770    0.9360   -0.1940 c3        1 BFN      0.030700
      9 N5          2.8720    2.2540   -0.7880 n         1 BFN     -0.540900
     10 C6          1.4960    0.2440   -0.3180 c3        1 BFN      0.115100
     11 O6          1.5220   -1.0400    0.2990 os        1 BFN     -0.427600
     12 C7          0.3990    1.0070    0.4510 c3        1 BFN      0.135100
     13 O7          0.6210    0.9780    1.8460 oh        1 BFN     -0.611800
     14 C8         -0.9760    0.4000    0.0930 c3        1 BFN      0.075100
     15 O8         -1.4260    0.9220   -1.1450 oh        1 BFN     -0.604800
     16 C9         -1.9850    0.6690    1.2250 c3        1 BFN      0.049000
     17 N9         -3.3170    0.1910    0.9710 n         1 BFN     -0.533900
     18 C10         3.8000    3.2120   -0.4170 c         1 BFN      0.659100
     19 O10         4.5410    3.0690    0.5770 o         1 BFN     -0.615100
     20 C11         3.8360    4.4830   -1.2360 c3        1 BFN     -0.175100
     21 C12        -4.2090    0.9320    0.2150 c         1 BFN      0.664700
     22 O12        -3.9920    2.1320   -0.0630 o         1 BFN     -0.621100
     23 C13        -5.4880    0.2680   -0.1770 ca        1 BFN     -0.132600
     24 C14        -6.6830    0.9810   -0.0320 ca        1 BFN     -0.091500
     25 C15        -7.8920    0.3930   -0.3990 ca        1 BFN     -0.141000
     26 C16        -7.9100   -0.9020   -0.9200 ca        1 BFN     -0.118000
     27 C17        -6.7170   -1.6070   -1.0780 ca        1 BFN     -0.141000
     28 C18        -5.5040   -1.0260   -0.7060 ca        1 BFN     -0.091500
     29 O1A         1.8190   -4.2360   -0.1610 o         1 BFN     -0.790800
     30 O1B         2.5400   -3.3790    1.7920 o         1 BFN     -0.790800
     31 HO2         1.7210   -2.8970   -1.6880 ho        1 BFN      0.448000
     32 H3          4.6350   -2.0680   -0.5950 h1        1 BFN      0.071700
     33 H4          3.7390   -0.1880   -1.9040 h1        1 BFN      0.091700
     34 HO4         5.4060    0.8300    0.1450 ho        1 BFN      0.422000
     35 H5          3.1130    1.0530    0.9080 h1        1 BFN      0.107700
     36 HN5         2.4820    2.3180   -1.6990 hn        1 BFN      0.296500
     37 H6          1.2040    0.1360   -1.3980 h1        1 BFN      0.066700
     38 H7          0.4080    2.0970    0.1750 h1        1 BFN      0.068700
     39 HO7         0.9290    0.0880    2.0790 ho        1 BFN      0.439000
     40 H8         -0.8610   -0.7070   -0.0900 h1        1 BFN      0.104700
     41 HO8        -1.7620    1.8140   -0.9800 ho        1 BFN      0.408000
     42 H9         -1.6060    0.1660    2.1600 h1        1 BFN      0.078700
     43 H9A        -2.0290    1.7800    1.4110 h1        1 BFN      0.078700
     44 HN9        -3.4370   -0.7970    0.9840 hn        1 BFN      0.306500
     45 H11         2.8280    4.9630   -1.2640 hc        1 BFN      0.058700
     46 H11A        4.5630    5.1900   -0.7690 hc        1 BFN      0.058700
     47 H11B        4.1640    4.2590   -2.2790 hc        1 BFN      0.058700
     48 H14        -6.6540    2.0080    0.3640 ha        1 BFN      0.147500
     49 H15        -8.8310    0.9520   -0.2810 ha        1 BFN      0.132500
     50 H16        -8.8640   -1.3650   -1.2110 ha        1 BFN      0.127000
     51 H17        -6.7280   -2.6230   -1.4970 ha        1 BFN      0.132500
     52 H18        -4.5660   -1.5850   -0.8510 ha        1 BFN      0.147500
@<TRIPOS>BOND
     1    1    4 1   
     2    1   31 1   
     3    2    4 1   
     4    2   29 1   
     5    2   30 1   
     6    3    5 1   
     7    4    5 1   
     8    4   11 1   
     9    5    6 1   
    10    5   32 1   
    11    6    7 1   
    12    6    8 1   
    13    6   33 1   
    14    7   34 1   
    15    8    9 1   
    16    8   10 1   
    17    8   35 1   
    18    9   18 1   
    19    9   36 1   
    20   10   11 1   
    21   10   12 1   
    22   10   37 1   
    23   12   13 1   
    24   12   14 1   
    25   12   38 1   
    26   13   39 1   
    27   14   15 1   
    28   14   16 1   
    29   14   40 1   
    30   15   41 1   
    31   16   17 1   
    32   16   42 1   
    33   16   43 1   
    34   17   21 1   
    35   17   44 1   
    36   18   19 2   
    37   18   20 1   
    38   20   45 1   
    39   20   46 1   
    40   20   47 1   
    41   21   22 2   
    42   21   23 1   
    43   23   24 ar  
    44   23   28 ar  
    45   24   25 ar  
    46   24   48 1   
    47   25   26 ar  
    48   25   49 1   
    49   26   27 ar  
    50   26   50 1   
    51   27   28 ar  
    52   27   51 1   
    53   28   52 1   
@<TRIPOS>SUBSTRUCTURE
     1 BFN         1 TEMP              0 ****  ****    0 ROOT
