@<TRIPOS>MOLECULE
BFN
   54    55     1     0     0
SMALL
bcc


@<TRIPOS>ATOM
      1 O2          1.6710   -0.0900   -0.1740 oh        1 BFN     -0.612800
      2 C1          1.1330   -2.4650    0.3360 c         1 BFN      0.935600
      3 F1         -1.4000   -1.7890   -0.9160 f         1 BFN     -0.228300
      4 C2          0.9690   -1.2140   -0.6280 c3        1 BFN      0.180600
      5 C3         -0.4980   -0.7500   -0.7760 c3        1 BFN      0.132600
      6 C4         -0.5600    0.1960   -1.9960 c3        1 BFN      0.093100
      7 O4         -1.8130    0.8220   -2.1620 oh        1 BFN     -0.612800
      8 C5         -0.2490   -0.6680   -3.2360 c3        1 BFN      0.062500
      9 N5         -0.3900    0.1000   -4.5180 ny        1 BFN     -0.671800
     10 C6          1.1500   -1.3170   -3.1390 c3        1 BFN      0.162100
     11 O6          1.6800   -1.4940   -1.8430 os        1 BFN     -0.433600
     12 C7          1.1370   -2.7290   -3.8230 c3        1 BFN      0.099100
     13 O7          0.1500   -2.7040   -4.8390 oh        1 BFN     -0.646800
     14 C8          0.8660   -3.7580   -2.7210 c3        1 BFN      0.076100
     15 O8          2.1210   -4.1760   -2.2110 oh        1 BFN     -0.609800
     16 C9          0.0970   -5.0550   -3.0160 c3        1 BFN      0.127800
     17 N9         -0.1350   -5.6980   -1.6830 ny        1 BFN     -0.673800
     18 C10        -1.8010    0.6380   -4.7120 c         1 BFN      0.582100
     19 O10        -2.6880   -0.1990   -4.7460 o         1 BFN     -0.423100
     20 C11        -1.9140    2.1180   -4.8380 c3        1 BFN     -0.185100
     21 C12        -0.8900   -6.9920   -1.7040 c         1 BFN      0.577700
     22 O12        -1.2700   -7.3820   -2.8040 o         1 BFN     -0.462100
     23 C13        -1.0800   -7.6400   -0.4060 ca        1 BFN     -0.211600
     24 C14        -1.6530   -8.9260   -0.4200 ca        1 BFN     -0.064000
     25 C15        -1.8630   -9.6060    0.7760 ca        1 BFN     -0.132000
     26 C16        -1.5080   -9.0140    1.9890 ca        1 BFN     -0.054000
     27 C17        -0.9440   -7.7350    2.0050 ca        1 BFN     -0.132000
     28 C18        -0.7270   -7.0430    0.8170 ca        1 BFN     -0.064000
     29 O1A         0.5800   -3.5560    0.0060 o         1 BFN     -0.792800
     30 O1B         1.8270   -2.2540    1.3460 o         1 BFN     -0.792800
     31 HO2         2.3460   -0.3950    0.4610 ho        1 BFN      0.471000
     32 H3         -0.7660   -0.1650    0.1550 h1        1 BFN      0.126700
     33 H4          0.1940    1.0230   -1.8550 h1        1 BFN      0.131700
     34 HO4        -2.4980    0.2450   -1.7930 ho        1 BFN      0.442000
     35 H5         -1.0350   -1.4890   -3.2880 hx        1 BFN      0.136700
     36 HN5        -0.1690   -0.5540   -5.2850 hn        1 BFN      0.461800
     37 H6          1.9190   -0.6800   -3.6690 h1        1 BFN      0.071700
     38 H7          2.1550   -2.9170   -4.2680 h1        1 BFN      0.092700
     39 HO7         0.2620   -3.5060   -5.3650 ho        1 BFN      0.439000
     40 H8          0.2460   -3.2110   -1.9390 h1        1 BFN      0.108700
     41 HO8         2.3240   -3.6170   -1.4400 ho        1 BFN      0.465000
     42 H9          0.6930   -5.7630   -3.6540 hx        1 BFN      0.104200
     43 H9A        -0.8900   -4.8430   -3.5060 hx        1 BFN      0.104200
     44 HN9        -0.6240   -5.0190   -1.0650 hn        1 BFN      0.494300
     45 H11        -1.8340    2.5720   -3.8130 hc        1 BFN      0.115367
     46 H11A       -1.1290    2.5530   -5.5030 hc        1 BFN      0.115367
     47 H11B       -2.9260    2.3630   -5.2580 hc        1 BFN      0.115367
     48 H14        -1.9330   -9.3890   -1.3820 ha        1 BFN      0.166000
     49 H15        -2.3100  -10.6130    0.7610 ha        1 BFN      0.165000
     50 H16        -1.6740   -9.5540    2.9360 ha        1 BFN      0.161000
     51 H17        -0.6660   -7.2670    2.9640 ha        1 BFN      0.165000
     52 H18        -0.2840   -6.0330    0.8820 ha        1 BFN      0.166000
     53 H52         0.2790    0.8750   -4.5250 hn        1 BFN      0.461800
     54 H92         0.7920   -5.8380   -1.2400 hn        1 BFN      0.494300
@<TRIPOS>BOND
     1    1    4 1   
     2    1   31 1   
     3    2    4 1   
     4    2   29 1   
     5    2   30 1   
     6    3    5 1   
     7    4    5 1   
     8    4   11 1   
     9    5    6 1   
    10    5   32 1   
    11    6    7 1   
    12    6    8 1   
    13    6   33 1   
    14    7   34 1   
    15    8    9 1   
    16    8   10 1   
    17    8   35 1   
    18    9   18 1   
    19    9   36 1   
    20    9   53 1   
    21   10   11 1   
    22   10   12 1   
    23   10   37 1   
    24   12   13 1   
    25   12   14 1   
    26   12   38 1   
    27   13   39 1   
    28   14   15 1   
    29   14   16 1   
    30   14   40 1   
    31   15   41 1   
    32   16   17 1   
    33   16   42 1   
    34   16   43 1   
    35   17   21 1   
    36   17   44 1   
    37   17   54 1   
    38   18   19 2   
    39   18   20 1   
    40   20   45 1   
    41   20   46 1   
    42   20   47 1   
    43   21   22 2   
    44   21   23 1   
    45   23   24 ar  
    46   23   28 ar  
    47   24   25 ar  
    48   24   48 1   
    49   25   26 ar  
    50   25   49 1   
    51   26   27 ar  
    52   26   50 1   
    53   27   28 ar  
    54   27   51 1   
    55   28   52 1   
@<TRIPOS>SUBSTRUCTURE
     1 BFN         1 TEMP              0 ****  ****    0 ROOT
