@<TRIPOS>MOLECULE
BFN
   54    55     1     0     0
SMALL
bcc


@<TRIPOS>ATOM
      1 O2          1.7650   -0.3760   -0.6580 oh        1 BFN     -0.638800
      2 C1          0.0760   -0.9020    1.0930 c         1 BFN      0.960600
      3 F1         -1.5350    1.0940   -0.6590 f         1 BFN     -0.211300
      4 C2          0.3880   -0.3740   -0.3960 c3        1 BFN      0.140600
      5 C3         -0.1820    0.9700   -0.9030 c3        1 BFN      0.160600
      6 C4          0.0750    1.0740   -2.4390 c3        1 BFN      0.093100
      7 O4         -0.5130    2.2200   -3.0130 oh        1 BFN     -0.628800
      8 C5         -0.4910   -0.1860   -3.1580 c3        1 BFN      0.060500
      9 N5         -0.3430   -0.1220   -4.6470 n4        1 BFN     -0.673800
     10 C6          0.2160   -1.4230   -2.5540 c3        1 BFN      0.093100
     11 O6         -0.1470   -1.4310   -1.1890 os        1 BFN     -0.434600
     12 C7         -0.2230   -2.8040   -3.0930 c3        1 BFN      0.113100
     13 O7         -1.4310   -2.7200   -3.8220 oh        1 BFN     -0.621800
     14 C8         -0.3320   -3.7860   -1.9020 c3        1 BFN      0.128100
     15 O8          0.8710   -3.8010   -1.1640 oh        1 BFN     -0.651800
     16 C9         -0.5430   -5.2290   -2.4020 c3        1 BFN      0.101800
     17 N9         -0.4560   -6.1810   -1.2570 n4        1 BFN     -0.671800
     18 C10        -1.2320    0.9440   -5.2690 c         1 BFN      0.579100
     19 O10        -2.4320    0.7740   -5.1330 o         1 BFN     -0.421100
     20 C11        -0.5240    2.0520   -5.9680 c3        1 BFN     -0.186100
     21 C12        -0.4860   -7.6410   -1.6560 c         1 BFN      0.576700
     22 O12        -0.5470   -7.8630   -2.8590 o         1 BFN     -0.440100
     23 C13        -0.4540   -8.6100   -0.5620 ca        1 BFN     -0.211600
     24 C14        -0.6790   -9.9550   -0.9120 ca        1 BFN     -0.063500
     25 C15        -0.6610  -10.9410    0.0720 ca        1 BFN     -0.125500
     26 C16        -0.4150  -10.5990    1.4020 ca        1 BFN     -0.048000
     27 C17        -0.1850   -9.2640    1.7500 ca        1 BFN     -0.125500
     28 C18        -0.2020   -8.2700    0.7780 ca        1 BFN     -0.063500
     29 O1A         0.4950   -2.0810    1.2400 o         1 BFN     -0.754300
     30 O1B        -0.4870   -0.1260    1.8720 o         1 BFN     -0.754300
     31 HO2         2.1810   -0.9450    0.0100 ho        1 BFN      0.455000
     32 H3          0.3620    1.8120   -0.3870 h1        1 BFN      0.117700
     33 H4          1.1850    1.1580   -2.6090 h1        1 BFN      0.106700
     34 HO4        -1.2370    2.5180   -2.4390 ho        1 BFN      0.450000
     35 H5         -1.6010   -0.2440   -2.9420 hx        1 BFN      0.130700
     36 HN5        -0.6170   -1.0450   -5.0170 hn        1 BFN      0.458300
     37 H6          1.3330   -1.3240   -2.6630 h1        1 BFN      0.092700
     38 H7          0.5340   -3.1760   -3.8390 h1        1 BFN      0.089700
     39 HO7        -2.1430   -2.5140   -3.2000 ho        1 BFN      0.431000
     40 H8         -1.2010   -3.4710   -1.2560 h1        1 BFN      0.085700
     41 HO8         0.8230   -3.1140   -0.4560 ho        1 BFN      0.510000
     42 H9          0.2580   -5.5080   -3.1450 hx        1 BFN      0.114200
     43 H9A        -1.5480   -5.3270   -2.8970 hx        1 BFN      0.114200
     44 HN9         0.4300   -5.9820   -0.7590 hn        1 BFN      0.473800
     45 H11        -0.0600    2.7320   -5.2020 hc        1 BFN      0.115367
     46 H11A       -1.2760    2.6390   -6.5580 hc        1 BFN      0.115367
     47 H11B        0.2680    1.6740   -6.6600 hc        1 BFN      0.115367
     48 H14        -0.8680  -10.2230   -1.9660 ha        1 BFN      0.153000
     49 H15        -0.8400  -11.9930   -0.2060 ha        1 BFN      0.169000
     50 H16        -0.4000  -11.3800    2.1810 ha        1 BFN      0.167000
     51 H17         0.0150   -8.9960    2.8020 ha        1 BFN      0.169000
     52 H18        -0.0040   -7.2340    1.0950 ha        1 BFN      0.153000
     53 H52         0.6340    0.0680   -4.8800 hn        1 BFN      0.458300
     54 H92        -1.2250   -6.0010   -0.6020 hn        1 BFN      0.473800
@<TRIPOS>BOND
     1    1    4 1   
     2    1   31 1   
     3    2    4 1   
     4    2   29 1   
     5    2   30 1   
     6    3    5 1   
     7    4    5 1   
     8    4   11 1   
     9    5    6 1   
    10    5   32 1   
    11    6    7 1   
    12    6    8 1   
    13    6   33 1   
    14    7   34 1   
    15    8    9 1   
    16    8   10 1   
    17    8   35 1   
    18    9   18 1   
    19    9   36 1   
    20    9   53 1   
    21   10   11 1   
    22   10   12 1   
    23   10   37 1   
    24   12   13 1   
    25   12   14 1   
    26   12   38 1   
    27   13   39 1   
    28   14   15 1   
    29   14   16 1   
    30   14   40 1   
    31   15   41 1   
    32   16   17 1   
    33   16   42 1   
    34   16   43 1   
    35   17   21 1   
    36   17   44 1   
    37   17   54 1   
    38   18   19 2   
    39   18   20 1   
    40   20   45 1   
    41   20   46 1   
    42   20   47 1   
    43   21   22 2   
    44   21   23 1   
    45   23   24 ar  
    46   23   28 ar  
    47   24   25 ar  
    48   24   48 1   
    49   25   26 ar  
    50   25   49 1   
    51   26   27 ar  
    52   26   50 1   
    53   27   28 ar  
    54   27   51 1   
    55   28   52 1   
@<TRIPOS>SUBSTRUCTURE
     1 BFN         1 TEMP              0 ****  ****    0 ROOT
