@<TRIPOS>MOLECULE
BFO
   92    94     1     0     0
SMALL
bcc


@<TRIPOS>ATOM
      1 C1          1.6410   -0.2280   -1.8490 ca        1 BFO     -0.094000
      2 C2          2.5140    0.1740   -0.8760 ca        1 BFO     -0.120000
      3 C3          2.0750    0.3160    0.4740 ca        1 BFO     -0.199300
      4 C4          3.0320    0.6790    1.5090 c3        1 BFO      0.262700
      5 O5          2.9040    2.2270    1.5840 os        1 BFO     -0.398900
      6 C6          3.9250    2.9320    1.9750 c         1 BFO      0.660100
      7 O7          5.0550    2.5880    2.3330 o         1 BFO     -0.565000
      8 N8          3.6130    4.4280    1.9540 n4        1 BFO     -0.675800
      9 C9          4.8600    5.2640    1.9100 c3        1 BFO      0.091500
     10 C10         4.5420    6.7540    1.8090 c3        1 BFO     -0.143100
     11 C11         5.6830    5.0390    3.1910 c         1 BFO      0.534100
     12 O12         5.3040    5.3140    4.3180 o         1 BFO     -0.376100
     13 N13         7.0510    4.4270    3.0610 n4        1 BFO     -0.657800
     14 C14         8.1710    5.4450    3.0740 c3        1 BFO      0.067500
     15 C15         8.2790    6.1060    1.6900 c         1 BFO      0.627100
     16 O16         7.4520    5.9250    0.7870 o         1 BFO     -0.575000
     17 O17         9.3250    6.9170    1.5720 os        1 BFO     -0.398900
     18 C18         9.4900    7.6310    0.2830 c3        1 BFO      0.214700
     19 C19        10.8270    8.2610    0.3460 ca        1 BFO     -0.163300
     20 C20        11.9240    7.6380   -0.2630 ca        1 BFO     -0.094500
     21 C21        13.1660    8.2700   -0.2740 ca        1 BFO     -0.126500
     22 C22        13.3210    9.5200    0.3280 ca        1 BFO     -0.076000
     23 C23        12.2310   10.1390    0.9440 ca        1 BFO     -0.126500
     24 C24        10.9870    9.5130    0.9550 ca        1 BFO     -0.094500
     25 C25         9.5170    4.8320    3.4790 c3        1 BFO     -0.112400
     26 C26         9.6910    4.7210    4.9820 c3        1 BFO     -0.112400
     27 C27        11.1690    4.4760    5.2950 c3        1 BFO      0.110800
     28 N28        11.4660    4.4410    6.7510 n4        1 BFO     -0.668800
     29 C29        12.9630    4.3830    7.0150 c         1 BFO      0.550100
     30 O30        13.5210    5.4600    7.1150 o         1 BFO     -0.391100
     31 C31        13.6140    3.0070    7.1400 c3        1 BFO      0.111100
     32 O32        12.7320    2.0590    6.5640 oh        1 BFO     -0.635800
     33 C33        13.9710    2.7220    8.6050 c3        1 BFO     -0.236700
     34 C34        14.7630    1.4130    8.7640 c3        1 BFO     -0.063700
     35 C35        15.7420    1.1890    7.6300 c3        1 BFO     -0.114100
     36 C36        15.5150    1.4230   10.0950 c3        1 BFO     -0.082400
     37 C37        15.7900    0.0270   10.5950 c3        1 BFO     -0.103100
     38 C38        12.7620    2.6970    9.5100 c         1 BFO      0.605900
     39 O39        11.6750    3.1700    9.1590 o         1 BFO     -0.606100
     40 C40         0.7460    0.0660    0.7960 ca        1 BFO     -0.001000
     41 C41        -0.1700   -0.3530   -0.1950 ca        1 BFO     -0.073000
     42 C42        -1.5290   -0.6360    0.1210 ca        1 BFO     -0.103000
     43 C43        -2.3970   -1.0510   -0.8610 ca        1 BFO     -0.105000
     44 C44        -1.9500   -1.1990   -2.1960 ca        1 BFO     -0.063000
     45 C45        -0.6410   -0.9300   -2.5300 ca        1 BFO     -0.131000
     46 C46         0.2770   -0.5030   -1.5380 ca        1 BFO      0.012000
     47 H1          1.9770   -0.3560   -2.8920 ha        1 BFO      0.161000
     48 H2          3.5700    0.3690   -1.1180 ha        1 BFO      0.129000
     49 H4          2.7540    0.3720    2.5470 h1        1 BFO      0.091200
     50 H4A         4.1020    0.4770    1.2620 h1        1 BFO      0.091200
     51 HN8         3.0490    4.6610    2.7840 hn        1 BFO      0.492300
     52 H9          5.4460    4.9490    0.9860 hx        1 BFO      0.171700
     53 H10         3.8640    6.9590    0.9400 hc        1 BFO      0.109033
     54 H10A        4.0680    7.1440    2.7440 hc        1 BFO      0.109033
     55 H10B        5.4990    7.3060    1.6180 hc        1 BFO      0.109033
     56 HN13        7.0870    3.8860    2.1800 hn        1 BFO      0.485300
     57 H14         7.8840    6.2530    3.8180 hx        1 BFO      0.144700
     58 H18         9.3960    6.8730   -0.5360 h1        1 BFO      0.081700
     59 H18A        8.6550    8.3770    0.2330 h1        1 BFO      0.081700
     60 H20        11.8020    6.6620   -0.7570 ha        1 BFO      0.134500
     61 H21        14.0230    7.7890   -0.7730 ha        1 BFO      0.159500
     62 H22        14.3010   10.0250    0.3050 ha        1 BFO      0.164000
     63 H23        12.3520   11.1320    1.4080 ha        1 BFO      0.159500
     64 H24        10.1260   10.0110    1.4250 ha        1 BFO      0.134500
     65 H25         9.6710    3.8320    2.9920 hc        1 BFO      0.116200
     66 H25A       10.3140    5.5200    3.0640 hc        1 BFO      0.116200
     67 H26         9.0690    3.8800    5.3890 hc        1 BFO      0.070200
     68 H26A        9.3500    5.6710    5.4780 hc        1 BFO      0.070200
     69 H27        11.7930    5.3010    4.8390 hx        1 BFO      0.121200
     70 H27A       11.5020    3.4870    4.8610 hx        1 BFO      0.121200
     71 HN28       11.0500    3.5970    7.1870 hn        1 BFO      0.477800
     72 H31        14.5610    3.0650    6.5170 h1        1 BFO      0.131700
     73 HO32       13.0370    1.1760    6.8310 ho        1 BFO      0.472000
     74 H33        14.6350    3.5690    8.9590 hc        1 BFO      0.129700
     75 H34        14.0260    0.5590    8.7750 hc        1 BFO      0.057700
     76 H35        15.2140    0.9680    6.6710 hc        1 BFO      0.055367
     77 H35A       16.3950    0.3110    7.8690 hc        1 BFO      0.055367
     78 H35B       16.4040    2.0780    7.4890 hc        1 BFO      0.055367
     79 H36        14.9250    1.9770   10.8720 hc        1 BFO      0.053700
     80 H36A       16.4840    1.9760    9.9660 hc        1 BFO      0.053700
     81 H37        14.8380   -0.5310   10.7690 hc        1 BFO      0.053700
     82 H37A       16.4070   -0.5490    9.8640 hc        1 BFO      0.053700
     83 H37B       16.3500    0.0750   11.5620 hc        1 BFO      0.053700
     84 H38        12.9080    2.2410   10.5150 h4        1 BFO      0.075200
     85 H40         0.3910    0.1760    1.8350 ha        1 BFO      0.142000
     86 H42        -1.8690   -0.5250    1.1630 ha        1 BFO      0.147000
     87 H43        -3.4490   -1.2760   -0.6200 ha        1 BFO      0.165000
     88 H44        -2.6650   -1.5360   -2.9660 ha        1 BFO      0.167000
     89 H45        -0.2900   -1.0490   -3.5670 ha        1 BFO      0.159000
     90 H82         3.0410    4.6380    1.1190 hn        1 BFO      0.492300
     91 H132        7.1910    3.7750    3.8480 hn        1 BFO      0.485300
     92 H282       11.0800    5.2720    7.2160 hn        1 BFO      0.477800
@<TRIPOS>BOND
     1    1    2 ar  
     2    1   46 ar  
     3    1   47 1   
     4    2    3 ar  
     5    2   48 1   
     6    3    4 1   
     7    3   40 ar  
     8    4    5 1   
     9    4   49 1   
    10    4   50 1   
    11    5    6 1   
    12    6    7 2   
    13    6    8 1   
    14    8    9 1   
    15    8   51 1   
    16    8   90 1   
    17    9   10 1   
    18    9   11 1   
    19    9   52 1   
    20   10   53 1   
    21   10   54 1   
    22   10   55 1   
    23   11   12 2   
    24   11   13 1   
    25   13   14 1   
    26   13   56 1   
    27   13   91 1   
    28   14   15 1   
    29   14   25 1   
    30   14   57 1   
    31   15   16 2   
    32   15   17 1   
    33   17   18 1   
    34   18   19 1   
    35   18   58 1   
    36   18   59 1   
    37   19   20 ar  
    38   19   24 ar  
    39   20   21 ar  
    40   20   60 1   
    41   21   22 ar  
    42   21   61 1   
    43   22   23 ar  
    44   22   62 1   
    45   23   24 ar  
    46   23   63 1   
    47   24   64 1   
    48   25   26 1   
    49   25   65 1   
    50   25   66 1   
    51   26   27 1   
    52   26   67 1   
    53   26   68 1   
    54   27   28 1   
    55   27   69 1   
    56   27   70 1   
    57   28   29 1   
    58   28   71 1   
    59   28   92 1   
    60   29   30 2   
    61   29   31 1   
    62   31   32 1   
    63   31   33 1   
    64   31   72 1   
    65   32   73 1   
    66   33   34 1   
    67   33   38 1   
    68   33   74 1   
    69   34   35 1   
    70   34   36 1   
    71   34   75 1   
    72   35   76 1   
    73   35   77 1   
    74   35   78 1   
    75   36   37 1   
    76   36   79 1   
    77   36   80 1   
    78   37   81 1   
    79   37   82 1   
    80   37   83 1   
    81   38   39 2   
    82   38   84 1   
    83   40   41 ar  
    84   40   85 1   
    85   41   42 ar  
    86   41   46 ar  
    87   42   43 ar  
    88   42   86 1   
    89   43   44 ar  
    90   43   87 1   
    91   44   45 ar  
    92   44   88 1   
    93   45   46 ar  
    94   45   89 1   
@<TRIPOS>SUBSTRUCTURE
     1 BFO         1 TEMP              0 ****  ****    0 ROOT
