@<TRIPOS>MOLECULE
BFO
   92    94     1     0     0
SMALL
bcc


@<TRIPOS>ATOM
      1 C1          1.5750   -0.2000   -1.8120 ca        1 BFO     -0.094000
      2 C2          2.4670    0.1950   -0.8520 ca        1 BFO     -0.120000
      3 C3          2.0590    0.3060    0.5100 ca        1 BFO     -0.199300
      4 C4          3.0360    0.6610    1.5290 c3        1 BFO      0.262700
      5 O5          2.8940    2.2060    1.6350 os        1 BFO     -0.398900
      6 C6          3.9130    2.9140    2.0240 c         1 BFO      0.660100
      7 O7          5.0510    2.5750    2.3590 o         1 BFO     -0.565000
      8 N8          3.5860    4.4070    2.0370 ny        1 BFO     -0.675800
      9 C9          4.8230    5.2560    1.9920 c3        1 BFO      0.091500
     10 C10         4.4880    6.7450    1.9250 c3        1 BFO     -0.143100
     11 C11         5.6680    5.0140    3.2550 c         1 BFO      0.534100
     12 O12         5.3020    5.2620    4.3930 o         1 BFO     -0.376100
     13 N13         7.0400    4.4200    3.0930 ny        1 BFO     -0.657800
     14 C14         8.1490    5.4490    3.1120 c3        1 BFO      0.067500
     15 C15         8.2290    6.1400    1.7400 c         1 BFO      0.627100
     16 O16         7.3920    5.9680    0.8460 o         1 BFO     -0.575000
     17 O17         9.2650    6.9650    1.6240 os        1 BFO     -0.398900
     18 C18         9.4030    7.7070    0.3490 c3        1 BFO      0.214700
     19 C19        10.7330    8.3530    0.4070 ca        1 BFO     -0.163300
     20 C20        11.8300    7.7570   -0.2300 ca        1 BFO     -0.094500
     21 C21        13.0630    8.4060   -0.2440 ca        1 BFO     -0.126500
     22 C22        13.2100    9.6460    0.3810 ca        1 BFO     -0.076000
     23 C23        12.1210   10.2370    1.0250 ca        1 BFO     -0.126500
     24 C24        10.8850    9.5940    1.0400 ca        1 BFO     -0.094500
     25 C25         9.5070    4.8420    3.4830 c3        1 BFO     -0.112400
     26 C26         9.7040    4.7000    4.9810 c3        1 BFO     -0.112400
     27 C27        11.1890    4.4660    5.2680 c3        1 BFO      0.110800
     28 N28        11.5070    4.4020    6.7180 ny        1 BFO     -0.668800
     29 C29        13.0090    4.3540    6.9600 c         1 BFO      0.550100
     30 O30        13.5560    5.4350    7.0780 o         1 BFO     -0.391100
     31 C31        13.6760    2.9830    7.0430 c3        1 BFO      0.111100
     32 O32        12.7970    2.0390    6.4570 oh        1 BFO     -0.635800
     33 C33        14.0570    2.6670    8.4960 c3        1 BFO     -0.236700
     34 C34        14.8660    1.3630    8.6120 c3        1 BFO     -0.063700
     35 C35        15.8310    1.1780    7.4600 c3        1 BFO     -0.114100
     36 C36        15.6360    1.3510    9.9330 c3        1 BFO     -0.082400
     37 C37        15.9330   -0.0530   10.3950 c3        1 BFO     -0.103100
     38 C38        12.8610    2.6070    9.4170 c         1 BFO      0.605900
     39 O39        11.7640    3.0760    9.0920 o         1 BFO     -0.606100
     40 C40         0.7410    0.0350    0.8590 ca        1 BFO     -0.001000
     41 C41        -0.1940   -0.3760   -0.1170 ca        1 BFO     -0.073000
     42 C42        -1.5420   -0.6810    0.2250 ca        1 BFO     -0.103000
     43 C43        -2.4290   -1.0870   -0.7440 ca        1 BFO     -0.105000
     44 C44        -2.0120   -1.2050   -2.0920 ca        1 BFO     -0.063000
     45 C45        -0.7150   -0.9150   -2.4510 ca        1 BFO     -0.131000
     46 C46         0.2220   -0.4960   -1.4740 ca        1 BFO      0.012000
     47 H1          1.8880   -0.3050   -2.8640 ha        1 BFO      0.162000
     48 H2          3.5140    0.4060   -1.1150 ha        1 BFO      0.129000
     49 H4          4.1020    0.4760    1.2540 h1        1 BFO      0.091200
     50 H4A         2.7870    0.3320    2.5680 h1        1 BFO      0.091200
     51 HN8         3.0310    4.6180    2.8800 hn        1 BFO      0.492300
     52 H9          5.3990    4.9660    1.0520 hx        1 BFO      0.171700
     53 H10         3.7960    6.9600    1.0700 hc        1 BFO      0.109033
     54 H10A        4.0250    7.1110    2.8740 hc        1 BFO      0.109033
     55 H10B        5.4370    7.3100    1.7310 hc        1 BFO      0.109033
     56 HN13        7.1970    3.7530    3.8640 hn        1 BFO      0.485300
     57 H14         7.8650    6.2380    3.8760 hx        1 BFO      0.145700
     58 H18         9.3080    6.9650   -0.4850 h1        1 BFO      0.081700
     59 H18A        8.5580    8.4430    0.3240 h1        1 BFO      0.081700
     60 H20        11.7140    6.7900   -0.7430 ha        1 BFO      0.134500
     61 H21        13.9190    7.9470   -0.7640 ha        1 BFO      0.159500
     62 H22        14.1830   10.1640    0.3570 ha        1 BFO      0.164000
     63 H23        12.2350   11.2210    1.5080 ha        1 BFO      0.159500
     64 H24        10.0240   10.0710    1.5320 ha        1 BFO      0.134500
     65 H25         9.6650    3.8540    2.9730 hc        1 BFO      0.116200
     66 H25A       10.2910    5.5480    3.0730 hc        1 BFO      0.116200
     67 H26         9.3600    5.6350    5.5020 hc        1 BFO      0.070200
     68 H26A        9.0980    3.8440    5.3780 hc        1 BFO      0.070200
     69 H27        11.5270    3.4900    4.8060 hx        1 BFO      0.121200
     70 H27A       11.7970    5.3080    4.8220 hx        1 BFO      0.121200
     71 HN28       11.1190    5.2170    7.2070 hn        1 BFO      0.477800
     72 H31        14.6130    3.0660    6.4080 h1        1 BFO      0.131700
     73 HO32       13.1150    1.1540    6.6990 ho        1 BFO      0.472000
     74 H33        14.7160    3.5140    8.8600 hc        1 BFO      0.129700
     75 H34        14.1380    0.5020    8.6130 hc        1 BFO      0.057700
     76 H35        15.2920    0.9740    6.5030 hc        1 BFO      0.055367
     77 H35A       16.4970    0.3020    7.6680 hc        1 BFO      0.055367
     78 H35B       16.4810    2.0770    7.3300 hc        1 BFO      0.055367
     79 H36        15.0510    1.8800   10.7300 hc        1 BFO      0.053700
     80 H36A       16.5970    1.9170    9.8030 hc        1 BFO      0.053700
     81 H37        14.9900   -0.6260   10.5690 hc        1 BFO      0.053700
     82 H37A       16.5470   -0.6050    9.6420 hc        1 BFO      0.053700
     83 H37B       16.5070   -0.0210   11.3540 hc        1 BFO      0.053700
     84 H38        13.0270    2.1300   10.4080 h4        1 BFO      0.075200
     85 H40         0.4100    0.1210    1.9080 ha        1 BFO      0.142000
     86 H42        -1.8580   -0.5930    1.2760 ha        1 BFO      0.147000
     87 H43        -3.4720   -1.3290   -0.4830 ha        1 BFO      0.165000
     88 H44        -2.7420   -1.5360   -2.8500 ha        1 BFO      0.167000
     89 H45        -0.3870   -1.0110   -3.4990 ha        1 BFO      0.159000
     90 H82         3.0000    4.6270    1.2140 hn        1 BFO      0.492300
     91 H132        7.0690    3.8970    2.2010 hn        1 BFO      0.485300
     92 H282       11.1070    3.5430    7.1400 hn        1 BFO      0.477800
@<TRIPOS>BOND
     1    1    2 ar  
     2    1   46 ar  
     3    1   47 1   
     4    2    3 ar  
     5    2   48 1   
     6    3    4 1   
     7    3   40 ar  
     8    4    5 1   
     9    4   49 1   
    10    4   50 1   
    11    5    6 1   
    12    6    7 2   
    13    6    8 1   
    14    8    9 1   
    15    8   51 1   
    16    8   90 1   
    17    9   10 1   
    18    9   11 1   
    19    9   52 1   
    20   10   53 1   
    21   10   54 1   
    22   10   55 1   
    23   11   12 2   
    24   11   13 1   
    25   13   14 1   
    26   13   56 1   
    27   13   91 1   
    28   14   15 1   
    29   14   25 1   
    30   14   57 1   
    31   15   16 2   
    32   15   17 1   
    33   17   18 1   
    34   18   19 1   
    35   18   58 1   
    36   18   59 1   
    37   19   20 ar  
    38   19   24 ar  
    39   20   21 ar  
    40   20   60 1   
    41   21   22 ar  
    42   21   61 1   
    43   22   23 ar  
    44   22   62 1   
    45   23   24 ar  
    46   23   63 1   
    47   24   64 1   
    48   25   26 1   
    49   25   65 1   
    50   25   66 1   
    51   26   27 1   
    52   26   67 1   
    53   26   68 1   
    54   27   28 1   
    55   27   69 1   
    56   27   70 1   
    57   28   29 1   
    58   28   71 1   
    59   28   92 1   
    60   29   30 2   
    61   29   31 1   
    62   31   32 1   
    63   31   33 1   
    64   31   72 1   
    65   32   73 1   
    66   33   34 1   
    67   33   38 1   
    68   33   74 1   
    69   34   35 1   
    70   34   36 1   
    71   34   75 1   
    72   35   76 1   
    73   35   77 1   
    74   35   78 1   
    75   36   37 1   
    76   36   79 1   
    77   36   80 1   
    78   37   81 1   
    79   37   82 1   
    80   37   83 1   
    81   38   39 2   
    82   38   84 1   
    83   40   41 ar  
    84   40   85 1   
    85   41   42 ar  
    86   41   46 ar  
    87   42   43 ar  
    88   42   86 1   
    89   43   44 ar  
    90   43   87 1   
    91   44   45 ar  
    92   44   88 1   
    93   45   46 ar  
    94   45   89 1   
@<TRIPOS>SUBSTRUCTURE
     1 BFO         1 TEMP              0 ****  ****    0 ROOT
