@<TRIPOS>MOLECULE
BFO
   92    94     1     0     0
SMALL
bcc


@<TRIPOS>ATOM
      1 C1          1.5830   -0.2010   -1.8400 ca        1 BFO     -0.094000
      2 C2          2.4780    0.1950   -0.8830 ca        1 BFO     -0.120000
      3 C3          2.0720    0.3100    0.4790 ca        1 BFO     -0.199300
      4 C4          3.0520    0.6660    1.4960 c3        1 BFO      0.262700
      5 O5          2.9110    2.2110    1.5970 os        1 BFO     -0.398900
      6 C6          3.9290    2.9190    1.9910 c         1 BFO      0.660100
      7 O7          5.0650    2.5780    2.3330 o         1 BFO     -0.565000
      8 N8          3.6040    4.4120    1.9990 n4        1 BFO     -0.675800
      9 C9          4.8430    5.2590    1.9590 c3        1 BFO      0.091500
     10 C10         4.5110    6.7480    1.8880 c3        1 BFO     -0.143100
     11 C11         5.6800    5.0180    3.2280 c         1 BFO      0.534100
     12 O12         5.3080    5.2680    4.3630 o         1 BFO     -0.376100
     13 N13         7.0520    4.4210    3.0750 n4        1 BFO     -0.657800
     14 C14         8.1630    5.4480    3.0990 c3        1 BFO      0.067500
     15 C15         8.2520    6.1370    1.7280 c         1 BFO      0.627100
     16 O16         7.4200    5.9660    0.8280 o         1 BFO     -0.575000
     17 O17         9.2900    6.9610    1.6170 os        1 BFO     -0.398900
     18 C18         9.4370    7.7010    0.3410 c3        1 BFO      0.214700
     19 C19        10.7670    8.3470    0.4070 ca        1 BFO     -0.163300
     20 C20        11.8670    7.7490   -0.2220 ca        1 BFO     -0.094500
     21 C21        13.1010    8.3960   -0.2290 ca        1 BFO     -0.126500
     22 C22        13.2450    9.6370    0.3970 ca        1 BFO     -0.076000
     23 C23        12.1520   10.2300    1.0320 ca        1 BFO     -0.126500
     24 C24        10.9150    9.5880    1.0400 ca        1 BFO     -0.094500
     25 C25         9.5170    4.8400    3.4800 c3        1 BFO     -0.112400
     26 C26         9.7050    4.7000    4.9790 c3        1 BFO     -0.112400
     27 C27        11.1880    4.4630    5.2740 c3        1 BFO      0.110800
     28 N28        11.4980    4.4010    6.7260 n4        1 BFO     -0.668800
     29 C29        12.9980    4.3500    6.9770 c         1 BFO      0.550100
     30 O30        13.5480    5.4310    7.0950 o         1 BFO     -0.391100
     31 C31        13.6610    2.9780    7.0670 c3        1 BFO      0.111100
     32 O32        12.7830    2.0340    6.4790 oh        1 BFO     -0.635800
     33 C33        14.0340    2.6650    8.5230 c3        1 BFO     -0.236700
     34 C34        14.8390    1.3600    8.6470 c3        1 BFO     -0.063700
     35 C35        15.8100    1.1690    7.5010 c3        1 BFO     -0.114100
     36 C36        15.6020    1.3490    9.9720 c3        1 BFO     -0.082400
     37 C37        15.8930   -0.0550   10.4400 c3        1 BFO     -0.103100
     38 C38        12.8330    2.6110    9.4370 c         1 BFO      0.605900
     39 O39        11.7390    3.0820    9.1060 o         1 BFO     -0.606100
     40 C40         0.7550    0.0400    0.8320 ca        1 BFO     -0.001000
     41 C41        -0.1830   -0.3730   -0.1420 ca        1 BFO     -0.073000
     42 C42        -1.5300   -0.6780    0.2040 ca        1 BFO     -0.103000
     43 C43        -2.4180   -1.0850   -0.7620 ca        1 BFO     -0.105000
     44 C44        -2.0050   -1.2060   -2.1110 ca        1 BFO     -0.063000
     45 C45        -0.7080   -0.9170   -2.4730 ca        1 BFO     -0.131000
     46 C46         0.2310   -0.4970   -1.4990 ca        1 BFO      0.012000
     47 H1          1.8940   -0.3080   -2.8930 ha        1 BFO      0.162000
     48 H2          3.5240    0.4060   -1.1490 ha        1 BFO      0.129000
     49 H4          2.8040    0.3400    2.5360 h1        1 BFO      0.091200
     50 H4A         4.1170    0.4790    1.2190 h1        1 BFO      0.091200
     51 HN8         3.0450    4.6250    2.8380 hn        1 BFO      0.492300
     52 H9          5.4240    4.9660    1.0240 hx        1 BFO      0.171700
     53 H10         3.8240    6.9630    1.0280 hc        1 BFO      0.109033
     54 H10A        5.4630    7.3110    1.6990 hc        1 BFO      0.109033
     55 H10B        4.0430    7.1170    2.8340 hc        1 BFO      0.109033
     56 HN13        7.0850    3.8970    2.1840 hn        1 BFO      0.485300
     57 H14         7.8760    6.2390    3.8610 hx        1 BFO      0.145700
     58 H18         8.5930    8.4380    0.3100 h1        1 BFO      0.081200
     59 H18A        9.3470    6.9580   -0.4930 h1        1 BFO      0.081200
     60 H20        11.7540    6.7810   -0.7340 ha        1 BFO      0.134500
     61 H21        13.9610    7.9360   -0.7420 ha        1 BFO      0.159500
     62 H22        14.2180   10.1540    0.3780 ha        1 BFO      0.164000
     63 H23        12.2640   11.2140    1.5150 ha        1 BFO      0.159500
     64 H24        10.0520   10.0670    1.5250 ha        1 BFO      0.134500
     65 H25        10.3050    5.5430    3.0720 hc        1 BFO      0.116200
     66 H25A        9.6760    3.8510    2.9720 hc        1 BFO      0.116200
     67 H26         9.0950    3.8460    5.3740 hc        1 BFO      0.070200
     68 H26A        9.3600    5.6370    5.4960 hc        1 BFO      0.070200
     69 H27        11.5260    3.4850    4.8170 hx        1 BFO      0.121200
     70 H27A       11.8010    5.3030    4.8300 hx        1 BFO      0.121200
     71 HN28       11.1100    5.2190    7.2120 hn        1 BFO      0.477800
     72 H31        14.6030    3.0570    6.4380 h1        1 BFO      0.131700
     73 HO32       13.0980    1.1490    6.7250 ho        1 BFO      0.472000
     74 H33        14.6930    3.5110    8.8890 hc        1 BFO      0.129700
     75 H34        14.1090    0.5000    8.6460 hc        1 BFO      0.057700
     76 H35        15.2760    0.9640    6.5410 hc        1 BFO      0.055367
     77 H35A       16.4630    2.0660    7.3730 hc        1 BFO      0.055367
     78 H35B       16.4720    0.2920    7.7150 hc        1 BFO      0.055367
     79 H36        16.5650    1.9130    9.8470 hc        1 BFO      0.053700
     80 H36A       15.0140    1.8810   10.7650 hc        1 BFO      0.053700
     81 H37        16.4620   -0.0210   11.4020 hc        1 BFO      0.053700
     82 H37A       14.9480   -0.6250   10.6100 hc        1 BFO      0.053700
     83 H37B       16.5100   -0.6090    9.6920 hc        1 BFO      0.053700
     84 H38        12.9920    2.1350   10.4310 h4        1 BFO      0.075200
     85 H40         0.4260    0.1280    1.8810 ha        1 BFO      0.142000
     86 H42        -1.8440   -0.5870    1.2560 ha        1 BFO      0.147000
     87 H43        -3.4620   -1.3260   -0.4980 ha        1 BFO      0.165000
     88 H44        -2.7360   -1.5380   -2.8670 ha        1 BFO      0.167000
     89 H45        -0.3820   -1.0150   -3.5220 ha        1 BFO      0.159000
     90 H82         3.0240    4.6310    1.1720 hn        1 BFO      0.492300
     91 H132        7.2040    3.7550    3.8480 hn        1 BFO      0.485300
     92 H282       11.0940    3.5460    7.1490 hn        1 BFO      0.477800
@<TRIPOS>BOND
     1    1    2 ar  
     2    1   46 ar  
     3    1   47 1   
     4    2    3 ar  
     5    2   48 1   
     6    3    4 1   
     7    3   40 ar  
     8    4    5 1   
     9    4   49 1   
    10    4   50 1   
    11    5    6 1   
    12    6    7 2   
    13    6    8 1   
    14    8    9 1   
    15    8   51 1   
    16    8   90 1   
    17    9   10 1   
    18    9   11 1   
    19    9   52 1   
    20   10   53 1   
    21   10   54 1   
    22   10   55 1   
    23   11   12 2   
    24   11   13 1   
    25   13   14 1   
    26   13   56 1   
    27   13   91 1   
    28   14   15 1   
    29   14   25 1   
    30   14   57 1   
    31   15   16 2   
    32   15   17 1   
    33   17   18 1   
    34   18   19 1   
    35   18   58 1   
    36   18   59 1   
    37   19   20 ar  
    38   19   24 ar  
    39   20   21 ar  
    40   20   60 1   
    41   21   22 ar  
    42   21   61 1   
    43   22   23 ar  
    44   22   62 1   
    45   23   24 ar  
    46   23   63 1   
    47   24   64 1   
    48   25   26 1   
    49   25   65 1   
    50   25   66 1   
    51   26   27 1   
    52   26   67 1   
    53   26   68 1   
    54   27   28 1   
    55   27   69 1   
    56   27   70 1   
    57   28   29 1   
    58   28   71 1   
    59   28   92 1   
    60   29   30 2   
    61   29   31 1   
    62   31   32 1   
    63   31   33 1   
    64   31   72 1   
    65   32   73 1   
    66   33   34 1   
    67   33   38 1   
    68   33   74 1   
    69   34   35 1   
    70   34   36 1   
    71   34   75 1   
    72   35   76 1   
    73   35   77 1   
    74   35   78 1   
    75   36   37 1   
    76   36   79 1   
    77   36   80 1   
    78   37   81 1   
    79   37   82 1   
    80   37   83 1   
    81   38   39 2   
    82   38   84 1   
    83   40   41 ar  
    84   40   85 1   
    85   41   42 ar  
    86   41   46 ar  
    87   42   43 ar  
    88   42   86 1   
    89   43   44 ar  
    90   43   87 1   
    91   44   45 ar  
    92   44   88 1   
    93   45   46 ar  
    94   45   89 1   
@<TRIPOS>SUBSTRUCTURE
     1 BFO         1 TEMP              0 ****  ****    0 ROOT
