@<TRIPOS>MOLECULE
BFO
   89    91     1     0     0
SMALL
bcc


@<TRIPOS>ATOM
      1 C1          6.4460    2.4480   -0.1390 ca        1 BFO     -0.126000
      2 C2          5.5040    1.9710   -1.0150 ca        1 BFO     -0.102000
      3 C3          4.1410    2.3430   -0.8780 ca        1 BFO     -0.093300
      4 C4          3.1390    1.8440   -1.8650 c3        1 BFO      0.189700
      5 O5          3.1920    0.4000   -1.8070 os        1 BFO     -0.432900
      6 C6          2.3180   -0.2440   -2.6510 c         1 BFO      0.723100
      7 O7          1.5830    0.4240   -3.3970 o         1 BFO     -0.582000
      8 N8          2.4410   -1.6300   -2.5980 n         1 BFO     -0.502900
      9 C9          1.3390   -2.4270   -3.0870 c3        1 BFO      0.035700
     10 C10         1.8010   -3.7730   -3.6470 c3        1 BFO     -0.102100
     11 C11         0.3210   -2.7440   -1.9590 c         1 BFO      0.628100
     12 O12         0.7080   -3.0940   -0.8270 o         1 BFO     -0.606100
     13 N13        -1.0170   -2.6030   -2.2600 n         1 BFO     -0.554900
     14 C14        -2.0580   -2.9610   -1.3350 c3        1 BFO      0.063700
     15 C15        -2.8100   -4.2080   -1.8040 c         1 BFO      0.606100
     16 O16        -2.9570   -4.6340   -2.9500 o         1 BFO     -0.541000
     17 O17        -3.3760   -4.8860   -0.7650 os        1 BFO     -0.432900
     18 C18        -4.1250   -6.0710   -1.1080 c3        1 BFO      0.184700
     19 C19        -4.7210   -6.6090    0.1480 ca        1 BFO     -0.098300
     20 C20        -5.9940   -7.1890    0.1040 ca        1 BFO     -0.111500
     21 C21        -6.5500   -7.7370    1.2590 ca        1 BFO     -0.131500
     22 C22        -5.8440   -7.7020    2.4620 ca        1 BFO     -0.123000
     23 C23        -4.5790   -7.1170    2.5090 ca        1 BFO     -0.131500
     24 C24        -4.0150   -6.5730    1.3550 ca        1 BFO     -0.111500
     25 C25        -3.1120   -1.8580   -1.1310 c3        1 BFO     -0.086400
     26 C26        -2.5340   -0.6630   -0.4050 c3        1 BFO     -0.103400
     27 C27        -3.6510    0.3500   -0.1400 c3        1 BFO      0.085000
     28 N28        -3.2430    1.5070    0.6100 n         1 BFO     -0.553900
     29 C29        -3.2490    2.7730    0.0810 c         1 BFO      0.619100
     30 O30        -3.6050    3.0160   -1.0910 o         1 BFO     -0.613100
     31 C31        -2.8540    3.9450    0.9960 c3        1 BFO      0.082100
     32 O32        -3.4310    5.1380    0.5080 oh        1 BFO     -0.582800
     33 C33        -1.3280    4.0500    1.1250 c3        1 BFO     -0.211700
     34 C34        -0.9290    5.3330    1.8650 c3        1 BFO     -0.046700
     35 C35        -1.6890    5.4610    3.1710 c3        1 BFO     -0.095100
     36 C36         0.5730    5.3680    2.1240 c3        1 BFO     -0.092400
     37 C37         1.0770    6.7740    2.3260 c3        1 BFO     -0.094100
     38 C38        -0.6800    4.0250   -0.2390 c         1 BFO      0.574900
     39 O39         0.3900    3.4550   -0.4560 o         1 BFO     -0.530100
     40 C40         3.7510    3.1780    0.1450 ca        1 BFO     -0.095000
     41 C41         4.7090    3.6880    1.0620 ca        1 BFO     -0.043000
     42 C42         4.3330    4.5550    2.1250 ca        1 BFO     -0.118000
     43 C43         5.2760    5.0340    3.0010 ca        1 BFO     -0.132000
     44 C44         6.6370    4.6700    2.8570 ca        1 BFO     -0.126000
     45 C45         7.0270    3.8330    1.8410 ca        1 BFO     -0.119000
     46 C46         6.0720    3.3210    0.9200 ca        1 BFO     -0.030000
     47 H1          7.5040    2.1630   -0.2380 ha        1 BFO      0.133000
     48 H2          5.7820    1.2870   -1.8310 ha        1 BFO      0.140000
     49 H4          2.0950    2.1770   -1.6170 h1        1 BFO      0.073700
     50 H4A         3.3990    2.1670   -2.9080 h1        1 BFO      0.073700
     51 HN8         2.9230   -2.0000   -1.8040 hn        1 BFO      0.328500
     52 H9          0.8380   -1.8380   -3.9160 h1        1 BFO      0.100700
     53 H10         2.2750   -4.3950   -2.8500 hc        1 BFO      0.057700
     54 H10A        0.9130   -4.3180   -4.0500 hc        1 BFO      0.057700
     55 H10B        2.5370   -3.6190   -4.4720 hc        1 BFO      0.057700
     56 HN13       -1.2950   -2.4020   -3.1930 hn        1 BFO      0.328500
     57 H14        -1.5820   -3.2020   -0.3330 h1        1 BFO      0.122700
     58 H18        -4.9100   -5.7950   -1.8610 h1        1 BFO      0.063200
     59 H18A       -3.4160   -6.8110   -1.5680 h1        1 BFO      0.063200
     60 H20        -6.5550   -7.2150   -0.8420 ha        1 BFO      0.139000
     61 H21        -7.5480   -8.1970    1.2200 ha        1 BFO      0.134000
     62 H22        -6.2860   -8.1330    3.3720 ha        1 BFO      0.133000
     63 H23        -4.0210   -7.0850    3.4570 ha        1 BFO      0.134000
     64 H24        -3.0190   -6.1070    1.3870 ha        1 BFO      0.139000
     65 H25        -3.5350   -1.5380   -2.1190 hc        1 BFO      0.062700
     66 H25A       -3.9480   -2.3030   -0.5270 hc        1 BFO      0.062700
     67 H26        -2.0700   -0.9930    0.5610 hc        1 BFO      0.059200
     68 H26A       -1.7270   -0.1880   -1.0220 hc        1 BFO      0.059200
     69 H27        -4.0790    0.6910   -1.1270 h1        1 BFO      0.065200
     70 H27A       -4.4730   -0.1630    0.4410 h1        1 BFO      0.065200
     71 HN28       -2.8400    1.3570    1.5030 hn        1 BFO      0.314500
     72 H31        -3.3080    3.8120    2.0200 h1        1 BFO      0.094700
     73 HO32       -3.3810    5.1280   -0.4600 ho        1 BFO      0.428000
     74 H33        -0.9660    3.1660    1.7200 hc        1 BFO      0.078700
     75 H34        -1.2110    6.2040    1.2070 hc        1 BFO      0.065700
     76 H35        -1.2610    6.2920    3.7830 hc        1 BFO      0.041033
     77 H35A       -2.7640    5.6910    2.9750 hc        1 BFO      0.041033
     78 H35B       -1.6210    4.5170    3.7640 hc        1 BFO      0.041033
     79 H36         0.8070    4.7470    3.0290 hc        1 BFO      0.048200
     80 H36A        1.1210    4.9040    1.2600 hc        1 BFO      0.048200
     81 H37         0.8820    7.3980    1.4190 hc        1 BFO      0.036700
     82 H37A        0.5760    7.2600    3.1980 hc        1 BFO      0.036700
     83 H37B        2.1780    6.7640    2.5150 hc        1 BFO      0.036700
     84 H38        -1.2390    4.5580   -1.0410 h4        1 BFO      0.015200
     85 H40         2.6910    3.4620    0.2650 ha        1 BFO      0.152000
     86 H42         3.2710    4.8310    2.2290 ha        1 BFO      0.133000
     87 H43         4.9880    5.7040    3.8240 ha        1 BFO      0.130000
     88 H44         7.3730    5.0670    3.5710 ha        1 BFO      0.131000
     89 H45         8.0820    3.5440    1.7210 ha        1 BFO      0.132000
@<TRIPOS>BOND
     1    1    2 ar  
     2    1   46 ar  
     3    1   47 1   
     4    2    3 ar  
     5    2   48 1   
     6    3    4 1   
     7    3   40 ar  
     8    4    5 1   
     9    4   49 1   
    10    4   50 1   
    11    5    6 1   
    12    6    7 2   
    13    6    8 1   
    14    8    9 1   
    15    8   51 1   
    16    9   10 1   
    17    9   11 1   
    18    9   52 1   
    19   10   53 1   
    20   10   54 1   
    21   10   55 1   
    22   11   12 2   
    23   11   13 1   
    24   13   14 1   
    25   13   56 1   
    26   14   15 1   
    27   14   25 1   
    28   14   57 1   
    29   15   16 2   
    30   15   17 1   
    31   17   18 1   
    32   18   19 1   
    33   18   58 1   
    34   18   59 1   
    35   19   20 ar  
    36   19   24 ar  
    37   20   21 ar  
    38   20   60 1   
    39   21   22 ar  
    40   21   61 1   
    41   22   23 ar  
    42   22   62 1   
    43   23   24 ar  
    44   23   63 1   
    45   24   64 1   
    46   25   26 1   
    47   25   65 1   
    48   25   66 1   
    49   26   27 1   
    50   26   67 1   
    51   26   68 1   
    52   27   28 1   
    53   27   69 1   
    54   27   70 1   
    55   28   29 1   
    56   28   71 1   
    57   29   30 2   
    58   29   31 1   
    59   31   32 1   
    60   31   33 1   
    61   31   72 1   
    62   32   73 1   
    63   33   34 1   
    64   33   38 1   
    65   33   74 1   
    66   34   35 1   
    67   34   36 1   
    68   34   75 1   
    69   35   76 1   
    70   35   77 1   
    71   35   78 1   
    72   36   37 1   
    73   36   79 1   
    74   36   80 1   
    75   37   81 1   
    76   37   82 1   
    77   37   83 1   
    78   38   39 2   
    79   38   84 1   
    80   40   41 ar  
    81   40   85 1   
    82   41   42 ar  
    83   41   46 ar  
    84   42   43 ar  
    85   42   86 1   
    86   43   44 ar  
    87   43   87 1   
    88   44   45 ar  
    89   44   88 1   
    90   45   46 ar  
    91   45   89 1   
@<TRIPOS>SUBSTRUCTURE
     1 BFO         1 TEMP              0 ****  ****    0 ROOT
