@<TRIPOS>MOLECULE
BFO
   89    84     1     0     0
SMALL
bcc


@<TRIPOS>ATOM
      1 C1         -4.7960   -4.0950   -8.0620 c1        1 BFO     -0.125000
      2 C2         -4.5970   -4.6770   -6.7990 c1        1 BFO     -0.107000
      3 C3         -3.3080   -5.0050   -6.3760 c1        1 BFO     -0.123000
      4 C4         -3.2110   -5.6350   -4.9390 c2        1 BFO      0.038000
      5 O5         -3.1360   -4.5990   -3.9710 os        1 BFO     -0.269000
      6 C6         -2.4840   -4.9810   -2.7630 c2        1 BFO      0.386000
      7 O7         -2.2650   -6.1500   -2.5390 o         1 BFO     -0.405000
      8 N8         -2.1420   -3.9860   -1.7850 n         1 BFO     -0.310000
      9 C9         -1.0950   -4.2430   -0.8340 c3        1 BFO      0.006000
     10 C10         0.1580   -4.5770   -1.5560 c3        1 BFO     -0.222000
     11 C11        -0.8730   -2.9960    0.0290 c2        1 BFO      0.272000
     12 O12        -1.7080   -2.0950    0.0300 o         1 BFO     -0.365000
     13 N13         0.3810   -2.8400    0.7930 n         1 BFO     -0.362000
     14 C14         0.6880   -1.5860    1.4210 c3        1 BFO      0.032000
     15 C15         0.6160   -0.4750    0.3950 c2        1 BFO      0.278000
     16 O16         1.0710   -0.6460   -0.7130 o         1 BFO     -0.356000
     17 O17         0.1150    0.8170    0.7730 os        1 BFO     -0.266000
     18 C18        -0.0950    1.7210   -0.3520 c3        1 BFO      0.027000
     19 C19        -0.4090    3.1530    0.1810 c2        1 BFO     -0.089000
     20 C20         0.5320    4.1760    0.0230 c2        1 BFO     -0.116000
     21 C21         0.2240    5.4680    0.4130 c1        1 BFO     -0.132000
     22 C22        -1.0200    5.7540    0.9630 c1        1 BFO     -0.123833
     23 C23        -1.9620    4.7370    1.1230 c1        1 BFO     -0.123833
     24 C24        -1.6530    3.4360    0.7310 c1        1 BFO     -0.103000
     25 C25         2.0930   -1.6460    2.0110 c3        1 BFO     -0.165000
     26 C26         2.0030   -1.6610    3.5470 c3        1 BFO     -0.179000
     27 C27         3.2350   -0.9080    4.1500 c3        1 BFO     -0.029000
     28 N28         2.7950   -0.0780    5.2890 n         1 BFO     -0.365000
     29 C29         3.2030    1.3060    5.3740 c2        1 BFO      0.262000
     30 O30         4.3490    1.6300    5.0570 o         1 BFO     -0.386000
     31 C31         2.1920    2.3840    5.8320 c3        1 BFO      0.027000
     32 O32         1.1880    2.5190    4.8760 oh        1 BFO     -0.326000
     33 C33         2.9130    3.7130    6.0010 c3        1 BFO     -0.195000
     34 C34         1.8880    4.8610    5.9990 c3        1 BFO     -0.092000
     35 C35         1.5310    5.2230    7.4230 c3        1 BFO     -0.214000
     36 C36         2.4770    6.0550    5.3170 c3        1 BFO     -0.159000
     37 C37         1.3740    6.8900    4.7230 c3        1 BFO     -0.212000
     38 C38         3.8690    3.9070    4.8810 c2        1 BFO      0.202000
     39 O39         3.5140    3.7100    3.7440 o         1 BFO     -0.310000
     40 C40        -2.2150   -4.7560   -7.2060 c2        1 BFO     -0.085000
     41 C41        -2.4090   -4.1720   -8.4760 c1        1 BFO     -0.045000
     42 C42        -1.2980   -3.9570   -9.3370 c1        1 BFO     -0.123833
     43 C43        -1.4970   -3.4090  -10.6280 c1        1 BFO     -0.123833
     44 C44        -2.8010   -3.0760  -11.0590 c1        1 BFO     -0.123833
     45 C45        -3.9000   -3.2890  -10.2060 c1        1 BFO     -0.123833
     46 C46        -3.6960   -3.8430   -8.9010 c1        1 BFO     -0.027000
     47 H1         -5.6840   -3.8700   -8.3520 ha        1 BFO      0.133000
     48 H2         -5.3350   -4.7720   -6.1970 ha        1 BFO      0.134000
     49 H4         -2.4060   -6.1960   -4.8800 h4        1 BFO      0.114500
     50 H4A        -4.0200   -6.1940   -4.7650 h4        1 BFO      0.114500
     51 HN8        -2.5400   -3.1790   -1.8080 hn        1 BFO      0.246000
     52 H9         -1.3490   -4.9900   -0.2650 h1        1 BFO      0.143000
     53 H10         0.0010   -4.5290   -2.5150 hc        1 BFO      0.097000
     54 H10A        0.4430   -5.4890   -1.3150 hc        1 BFO      0.097000
     55 H10B        0.8580   -3.9400   -1.3080 hc        1 BFO      0.097000
     56 HN13        1.0110   -3.5430    0.8170 hn        1 BFO      0.238000
     57 H14         0.0310   -1.4100    2.1470 h1        1 BFO      0.162000
     58 H18        -0.8520    1.4000   -0.8950 h1        1 BFO      0.103000
     59 H18A        0.7160    1.7490   -0.9040 h1        1 BFO      0.103000
     60 H20         1.4150    3.9760   -0.3670 ha        1 BFO      0.134000
     61 H21         0.8940    6.1920    0.2990 ha        1 BFO      0.133000
     62 H22        -1.2290    6.6480    1.2320 ha        1 BFO      0.133167
     63 H23        -2.8510    4.9410    1.5160 ha        1 BFO      0.133167
     64 H24        -2.2950    2.7420    0.8400 ha        1 BFO      0.143000
     65 H25         2.5410   -2.4570    1.7020 hc        1 BFO      0.105000
     66 H25A        2.5940   -0.8770    1.7290 hc        1 BFO      0.105000
     67 H26         1.1860   -1.2210    3.8280 hc        1 BFO      0.097000
     68 H26A        2.0010   -2.5830    3.8630 hc        1 BFO      0.097000
     69 H27         3.8980   -1.5640    4.4600 h1        1 BFO      0.102500
     70 H27A        3.6450   -0.3270    3.4520 h1        1 BFO      0.102500
     71 HN28        2.3060   -0.4580    5.9720 hn        1 BFO      0.238000
     72 H31         1.7980    2.1180    6.6820 h1        1 BFO      0.141000
     73 HO32        0.4990    1.9780    5.0820 ho        1 BFO      0.231000
     74 H33         3.4000    3.7120    6.8480 hc        1 BFO      0.137000
     75 H34         1.1040    4.5860    5.5350 hc        1 BFO      0.106000
     76 H35         2.3400    5.3110    7.9440 hc        1 BFO      0.081000
     77 H35A        0.9730    4.5240    7.8060 hc        1 BFO      0.081000
     78 H35B        1.0410    6.0780    7.4330 hc        1 BFO      0.081000
     79 H36         2.9710    6.5840    5.9620 hc        1 BFO      0.079500
     80 H36A        3.0770    5.7620    4.6130 hc        1 BFO      0.079500
     81 H37         1.6770    7.2790    3.8800 hc        1 BFO      0.076333
     82 H37A        0.5990    6.3320    4.5610 hc        1 BFO      0.076333
     83 H37B        1.1380    7.5960    5.3370 hc        1 BFO      0.076333
     84 H38         4.7780    4.1940    5.0630 h4        1 BFO      0.109000
     85 H40        -1.3290   -4.9840   -6.9130 ha        1 BFO      0.157000
     86 H42        -0.3890   -4.1880   -9.0340 ha        1 BFO      0.133167
     87 H43        -0.7320   -3.2610  -11.2210 ha        1 BFO      0.133167
     88 H44        -2.9400   -2.6970  -11.9510 ha        1 BFO      0.133167
     89 H45        -4.8250   -3.0530  -10.5110 ha        1 BFO      0.133167
@<TRIPOS>BOND
     1    1   46 1   
     2    1   47 1   
     3    2    3 1   
     4    2   48 1   
     5    3   40 1   
     6    4    5 1   
     7    4   49 1   
     8    4   50 1   
     9    5    6 1   
    10    6    7 1   
    11    6    8 1   
    12    8    9 1   
    13    8   51 1   
    14    9   10 1   
    15    9   11 1   
    16    9   52 1   
    17   10   53 1   
    18   10   54 1   
    19   10   55 1   
    20   11   12 1   
    21   11   13 1   
    22   13   14 1   
    23   13   56 1   
    24   14   15 1   
    25   14   25 1   
    26   14   57 1   
    27   15   16 1   
    28   15   17 1   
    29   17   18 1   
    30   18   19 1   
    31   18   58 1   
    32   18   59 1   
    33   19   20 1   
    34   19   24 1   
    35   20   21 1   
    36   20   60 1   
    37   21   61 1   
    38   22   23 1   
    39   22   62 1   
    40   23   63 1   
    41   24   64 1   
    42   25   26 1   
    43   25   65 1   
    44   25   66 1   
    45   26   27 1   
    46   26   67 1   
    47   26   68 1   
    48   27   28 1   
    49   27   69 1   
    50   27   70 1   
    51   28   29 1   
    52   28   71 1   
    53   29   30 1   
    54   29   31 1   
    55   31   32 1   
    56   31   33 1   
    57   31   72 1   
    58   32   73 1   
    59   33   34 1   
    60   33   38 1   
    61   33   74 1   
    62   34   35 1   
    63   34   36 1   
    64   34   75 1   
    65   35   76 1   
    66   35   77 1   
    67   35   78 1   
    68   36   37 1   
    69   36   79 1   
    70   36   80 1   
    71   37   81 1   
    72   37   82 1   
    73   37   83 1   
    74   38   39 1   
    75   38   84 1   
    76   40   41 1   
    77   40   85 1   
    78   41   46 1   
    79   42   43 1   
    80   42   86 1   
    81   43   87 1   
    82   44   45 1   
    83   44   88 1   
    84   45   89 1   
@<TRIPOS>SUBSTRUCTURE
     1 BFO         1 TEMP              0 ****  ****    0 ROOT
