@<TRIPOS>MOLECULE
BFP
   30    30     1     0     0
SMALL
bcc


@<TRIPOS>ATOM
      1 P1         -0.0900   -0.1710    5.0110 p5        1 BFP      1.327900
      2 O1P         0.8180    1.0320    5.0260 o         1 BFP     -0.940167
      3 O2P        -1.5160    0.1150    5.4050 o         1 BFP     -0.940167
      4 O3P         0.4880   -1.4350    5.5930 o         1 BFP     -0.940167
      5 O1         -0.2140   -0.5900    3.3250 os        1 BFP     -0.585200
      6 C1          0.0880    0.3770    2.3970 c3        1 BFP      0.198400
      7 C2          0.6920   -0.2680    1.1080 c3        1 BFP      0.281600
      8 O2          0.9540   -1.6470    1.2430 oh        1 BFP     -0.659800
      9 C3          1.9900    0.4190    0.5880 c3        1 BFP      0.117100
     10 O3          3.1740   -0.2660    0.9450 oh        1 BFP     -0.623800
     11 C4          1.8090    0.4690   -0.9470 c3        1 BFP      0.116100
     12 O4          2.3120    1.6870   -1.4510 oh        1 BFP     -0.668800
     13 C5          0.2890    0.3360   -1.1610 c3        1 BFP      0.077100
     14 O5         -0.2660   -0.2360    0.0400 os        1 BFP     -0.446600
     15 C6         -0.0900   -0.5150   -2.3930 c3        1 BFP      0.221400
     16 O6         -0.5580    0.2710   -3.4240 os        1 BFP     -0.582200
     17 P2          0.4450    0.3580   -4.8190 p5        1 BFP      1.332900
     18 O4P         0.6580   -1.0840   -5.2070 o         1 BFP     -0.945833
     19 O5P        -0.3790    1.1620   -5.7920 o         1 BFP     -0.945833
     20 O6P         1.6660    1.0560   -4.2600 o         1 BFP     -0.945833
     21 H11         0.8250    1.1120    2.8250 h1        1 BFP      0.020700
     22 H12        -0.8420    0.9220    2.0610 h1        1 BFP      0.020700
     23 HO2         0.4780   -1.9570    2.0300 ho        1 BFP      0.451000
     24 H3          2.1010    1.4490    1.0170 h1        1 BFP      0.075700
     25 HO3         2.9640   -1.2080    0.9750 ho        1 BFP      0.409000
     26 H4          2.3580   -0.3900   -1.4210 h1        1 BFP      0.039700
     27 HO4         2.1400    1.6630   -2.4190 ho        1 BFP      0.485000
     28 H5         -0.1680    1.3580   -1.2700 h1        1 BFP      0.050700
     29 H61         0.7990   -1.1190   -2.7310 h1        1 BFP     -0.000300
     30 H62        -0.9060   -1.2260   -2.0690 h1        1 BFP     -0.000300
@<TRIPOS>BOND
     1    1    2 1   
     2    1    3 1   
     3    1    4 1   
     4    1    5 1   
     5    5    6 1   
     6    6    7 1   
     7    6   21 1   
     8    6   22 1   
     9    7    8 1   
    10    7    9 1   
    11    7   14 1   
    12    8   23 1   
    13    9   10 1   
    14    9   11 1   
    15    9   24 1   
    16   10   25 1   
    17   11   12 1   
    18   11   13 1   
    19   11   26 1   
    20   12   27 1   
    21   13   14 1   
    22   13   15 1   
    23   13   28 1   
    24   15   16 1   
    25   15   29 1   
    26   15   30 1   
    27   16   17 1   
    28   17   18 1   
    29   17   19 1   
    30   17   20 1   
@<TRIPOS>SUBSTRUCTURE
     1 BFP         1 TEMP              0 ****  ****    0 ROOT
