@<TRIPOS>MOLECULE
BFP
   30    29     1     0     0
SMALL
bcc


@<TRIPOS>ATOM
      1 P1         -1.2020    3.9780    2.0250 p4        1 BFP      1.696200
      2 O1P         0.1980    4.2690    2.5400 o         1 BFP     -0.941500
      3 O2P        -2.1240    3.6930    3.1990 os        1 BFP     -1.257000
      4 O3P        -1.7170    5.1810    1.2550 o         1 BFP     -0.990300
      5 O1         -1.1590    2.6780    1.0380 os        1 BFP     -0.585200
      6 C1         -0.6450    1.4290    1.5600 c3        1 BFP      0.198400
      7 C2         -1.0110    0.3230    0.6400 c3        1 BFP      0.281600
      8 O2         -2.2370    0.4400    0.2760 oh        1 BFP     -0.659800
      9 C3         -0.7890   -1.0420    1.3320 c3        1 BFP      0.117100
     10 O3         -2.1060   -1.6930    1.6280 oh        1 BFP     -0.623800
     11 C4         -0.1150   -1.7540    0.4660 c3        1 BFP      0.116100
     12 O4          0.8200   -2.6700    1.1720 oh        1 BFP     -0.668800
     13 C5          0.7130   -0.6930   -0.4470 c3        1 BFP      0.077100
     14 O5         -0.0660    0.3230   -0.6190 os        1 BFP     -0.446600
     15 C6          1.0570   -1.3120   -1.7820 c3        1 BFP      0.221400
     16 O6          1.7270   -0.3370   -2.6040 os        1 BFP     -0.582200
     17 P2          2.5220   -0.8540   -3.9290 p5        1 BFP      1.331900
     18 O4P         3.6900   -1.6550   -3.5200 o         1 BFP     -0.945833
     19 O5P         2.9860    0.3360   -4.7340 o         1 BFP     -0.945833
     20 O6P         1.6060   -1.7000   -4.7680 o         1 BFP     -0.945833
     21 H11        -1.0370    1.2580    2.4510 h1        1 BFP      0.020700
     22 H12         0.3420    1.4820    1.6370 h1        1 BFP      0.020700
     23 HO2        -2.2810    0.9130   -0.5100 ho        1 BFP      0.451000
     24 H3         -0.2620   -0.9240    2.1710 h1        1 BFP      0.075700
     25 HO3        -2.1780   -1.8260    2.4920 ho        1 BFP      0.409000
     26 H4         -0.7200   -2.2600   -0.0840 h1        1 BFP      0.039700
     27 HO4         0.6150   -3.4970    0.9850 ho        1 BFP      0.485000
     28 H5          1.5190   -0.4200    0.0090 h1        1 BFP      0.050700
     29 H61         0.2280   -1.6080   -2.2300 h1        1 BFP     -0.000300
     30 H62         1.6260   -2.0560   -1.6480 h1        1 BFP     -0.000300
@<TRIPOS>BOND
     1    1    2 1   
     2    1    4 2   
     3    1    5 1   
     4    5    6 1   
     5    6    7 1   
     6    6   21 1   
     7    6   22 1   
     8    7    8 1   
     9    7    9 1   
    10    7   14 1   
    11    8   23 1   
    12    9   10 1   
    13    9   11 1   
    14    9   24 1   
    15   10   25 1   
    16   11   12 1   
    17   11   13 1   
    18   11   26 1   
    19   12   27 1   
    20   13   14 1   
    21   13   15 1   
    22   13   28 1   
    23   15   16 1   
    24   15   29 1   
    25   15   30 1   
    26   16   17 1   
    27   17   18 1   
    28   17   19 1   
    29   17   20 1   
@<TRIPOS>SUBSTRUCTURE
     1 BFP         1 TEMP              0 ****  ****    0 ROOT
