@<TRIPOS>MOLECULE
BFQ
   38    36     1     0     0
SMALL
bcc


@<TRIPOS>ATOM
      1 P1          4.0300   -0.5330   -1.9270 p4        1 BFQ      1.616000
      2 O2          5.5130   -0.7790   -1.9170 os        1 BFQ     -1.297000
      3 O3          3.4430   -1.0340   -3.2340 o         1 BFQ     -0.984000
      4 O5          3.7640    0.9490   -1.7900 o         1 BFQ     -1.032800
      5 C7          3.2570   -1.4200   -0.5320 c3        1 BFQ     -0.217600
      6 P8          3.8050   -3.1960   -0.5460 p5        1 BFQ      1.267700
      7 O9          3.2740   -3.8800   -1.7950 o         1 BFQ     -0.982167
      8 O10         5.3120   -3.2580   -0.5410 o         1 BFQ     -0.982167
      9 O12         3.2650   -3.9010    0.6840 o         1 BFQ     -0.982167
     10 O14         3.6480   -0.8150    0.6860 oh        1 BFQ     -0.667800
     11 C16         1.7330   -1.3540   -0.6660 c3        1 BFQ      0.010600
     12 C19         1.1380   -0.6610    0.5760 c3        1 BFQ      0.172800
     13 N22        -0.2850   -0.6730    0.4930 n3        1 BFQ     -0.734600
     14 C23        -0.8000    0.6200    0.8610 c3        1 BFQ      0.193800
     15 C26        -2.1410    0.8450    0.1780 c3        1 BFQ     -0.089400
     16 C29        -2.6760    2.2290    0.5480 c3        1 BFQ     -0.076400
     17 C32        -4.0300    2.4480   -0.1220 c3        1 BFQ     -0.082400
     18 C35        -4.5630    3.8530    0.2400 c3        1 BFQ     -0.085100
     19 C39        -0.7960   -1.6480    1.3670 c3        1 BFQ      0.092100
     20 HO14        4.5330   -0.8210    0.7490 ho        1 BFQ      0.416000
     21 H161        1.4970   -0.8430   -1.4700 hc        1 BFQ      0.017700
     22 H162        1.3700   -2.2650   -0.7390 hc        1 BFQ      0.017700
     23 H191        1.4540    0.2620    0.6160 h1        1 BFQ      0.043200
     24 H192        1.4260   -1.1440    1.3930 h1        1 BFQ      0.043200
     25 H231       -0.9190    0.6600    1.8420 h1        1 BFQ     -0.005300
     26 H232       -0.1790    1.3050    0.5840 h1        1 BFQ     -0.005300
     27 H261       -2.0270    0.7890   -0.7870 hc        1 BFQ      0.033700
     28 H262       -2.7800    0.1560    0.4740 hc        1 BFQ      0.033700
     29 H291       -2.7780    2.2890    1.5180 hc        1 BFQ      0.029200
     30 H292       -2.0500    2.9100    0.2440 hc        1 BFQ      0.029200
     31 H321       -3.9290    2.3760   -1.0970 hc        1 BFQ      0.029700
     32 H322       -4.6660    1.7640    0.1940 hc        1 BFQ      0.029700
     33 H351       -4.7000    3.9110    1.2120 hc        1 BFQ      0.012033
     34 H352       -3.9130    4.5330   -0.0420 hc        1 BFQ      0.012033
     35 H353       -5.4250    4.0080   -0.2250 hc        1 BFQ      0.012033
     36 H391       -0.6070   -1.3870    2.2980 h1        1 BFQ      0.038033
     37 H392       -0.3740   -2.5050    1.1790 h1        1 BFQ      0.038033
     38 H393       -1.7640   -1.7260    1.2400 h1        1 BFQ      0.038033
@<TRIPOS>BOND
     1    1    3 1   
     2    1    4 2   
     3    1    5 1   
     4    5    6 1   
     5    5   10 1   
     6    5   11 1   
     7    6    7 1   
     8    6    8 1   
     9    6    9 1   
    10   10   20 1   
    11   11   12 1   
    12   11   21 1   
    13   11   22 1   
    14   12   13 1   
    15   12   23 1   
    16   12   24 1   
    17   13   14 1   
    18   13   19 1   
    19   14   15 1   
    20   14   25 1   
    21   14   26 1   
    22   15   16 1   
    23   15   27 1   
    24   15   28 1   
    25   16   17 1   
    26   16   29 1   
    27   16   30 1   
    28   17   18 1   
    29   17   31 1   
    30   17   32 1   
    31   18   33 1   
    32   18   34 1   
    33   18   35 1   
    34   19   36 1   
    35   19   37 1   
    36   19   38 1   
@<TRIPOS>SUBSTRUCTURE
     1 BFQ         1 TEMP              0 ****  ****    0 ROOT
