@<TRIPOS>MOLECULE
BFQ
   38    37     1     0     0
SMALL
bcc


@<TRIPOS>ATOM
      1 P1         -2.5030    1.7620    0.3460 p5        1 BFQ      1.256700
      2 O2         -1.2110    2.5320    0.0220 o         1 BFQ     -0.980500
      3 O3         -2.9750    2.1930    1.7420 o         1 BFQ     -0.980500
      4 O5         -3.5590    2.0570   -0.7020 o         1 BFQ     -0.980500
      5 C7         -2.0890    0.0080    0.5590 c3        1 BFQ     -0.171600
      6 P8         -2.2190   -1.7420   -0.3260 p5        1 BFQ      1.256700
      7 O9         -3.6300   -2.0790   -0.7630 o         1 BFQ     -0.980500
      8 O10        -1.2570   -1.6800   -1.5060 o         1 BFQ     -0.980500
      9 O12        -1.7050   -2.7540    0.6890 o         1 BFQ     -0.980500
     10 O14        -2.9280   -0.4050    1.6300 oh        1 BFQ     -0.640800
     11 C16        -0.6540   -0.0160    1.0560 c3        1 BFQ     -0.040400
     12 C19         0.4210    0.1820   -0.0260 c3        1 BFQ      0.120800
     13 N22         1.7240    0.6370    0.5080 n3        1 BFQ     -0.730600
     14 C23         2.8350    0.1600   -0.2830 c3        1 BFQ      0.197800
     15 C26         4.1930    0.2980    0.4270 c3        1 BFQ     -0.091400
     16 C29         5.3020   -0.2650   -0.4360 c3        1 BFQ     -0.077400
     17 C32         6.6520   -0.1490    0.2410 c3        1 BFQ     -0.082400
     18 C35         7.7610   -0.7080   -0.6130 c3        1 BFQ     -0.085100
     19 C39         1.7480    2.0640    0.7210 c3        1 BFQ      0.127100
     20 HO14       -2.9910    0.3260    2.2680 ho        1 BFQ      0.360000
     21 H161       -0.4690   -1.0060    1.5590 hc        1 BFQ     -0.002300
     22 H162       -0.5490    0.7910    1.8360 hc        1 BFQ     -0.002300
     23 H191        0.0020    0.9560   -0.7420 h1        1 BFQ      0.097200
     24 H192        0.5130   -0.8000   -0.5770 h1        1 BFQ      0.097200
     25 H231        2.9380    0.6920   -1.2800 h1        1 BFQ      0.007200
     26 H232        2.6650   -0.9310   -0.5050 h1        1 BFQ      0.007200
     27 H261        4.1630   -0.2470    1.4050 hc        1 BFQ      0.027700
     28 H262        4.3970    1.3780    0.6480 hc        1 BFQ      0.027700
     29 H291        5.3300    0.2800   -1.4170 hc        1 BFQ      0.032200
     30 H292        5.0880   -1.3420   -0.6630 hc        1 BFQ      0.032200
     31 H321        6.6230   -0.6940    1.2220 hc        1 BFQ      0.027700
     32 H322        6.8630    0.9290    0.4710 hc        1 BFQ      0.027700
     33 H351        8.7470   -0.6160   -0.0960 hc        1 BFQ      0.012033
     34 H352        7.5780   -1.7880   -0.8340 hc        1 BFQ      0.012033
     35 H353        7.8210   -0.1610   -1.5850 hc        1 BFQ      0.012033
     36 H391        0.6690    2.4490    0.7880 h1        1 BFQ      0.023033
     37 H392        2.3210    2.2830    1.6660 h1        1 BFQ      0.023033
     38 H393        2.2730    2.6310   -0.1030 h1        1 BFQ      0.023033
@<TRIPOS>BOND
     1    1    2 1   
     2    1    3 1   
     3    1    4 1   
     4    1    5 1   
     5    5    6 1   
     6    5   10 1   
     7    5   11 1   
     8    6    7 1   
     9    6    8 1   
    10    6    9 1   
    11   10   20 1   
    12   11   12 1   
    13   11   21 1   
    14   11   22 1   
    15   12   13 1   
    16   12   23 1   
    17   12   24 1   
    18   13   14 1   
    19   13   19 1   
    20   14   15 1   
    21   14   25 1   
    22   14   26 1   
    23   15   16 1   
    24   15   27 1   
    25   15   28 1   
    26   16   17 1   
    27   16   29 1   
    28   16   30 1   
    29   17   18 1   
    30   17   31 1   
    31   17   32 1   
    32   18   33 1   
    33   18   34 1   
    34   18   35 1   
    35   19   36 1   
    36   19   37 1   
    37   19   38 1   
@<TRIPOS>SUBSTRUCTURE
     1 BFQ         1 TEMP              0 ****  ****    0 ROOT
