@<TRIPOS>MOLECULE
BFS
   33    34     1     0     0
SMALL
bcc


@<TRIPOS>ATOM
      1 C1         -0.0890   -0.3480   -3.4460 ca        1 BFS     -0.209600
      2 C2         -0.4460   -0.6570   -4.7720 ca        1 BFS      0.185100
      3 C3          0.5390   -0.6940   -5.7850 ca        1 BFS     -0.149000
      4 C4          1.8640   -0.4560   -5.4750 ca        1 BFS     -0.106000
      5 C5          2.2320   -0.1790   -4.1390 ca        1 BFS      0.077900
      6 C6          1.2580   -0.1270   -3.1340 ca        1 BFS     -0.109000
      7 C          -1.1300   -0.2870   -2.3820 c         1 BFS      0.685700
      8 CE1        -1.8830    0.7590   -0.2650 c3        1 BFS      0.141000
      9 CE2        -2.5490    2.1350   -0.1560 c3        1 BFS     -0.104100
     10 C1'        -1.1710    0.4490    1.0340 ca        1 BFS     -0.096300
     11 C2'        -1.5660   -0.6560    1.7940 ca        1 BFS     -0.119500
     12 C3'        -0.9280   -0.9460    2.9990 ca        1 BFS     -0.102500
     13 C4'         0.1170   -0.1340    3.4500 ca        1 BFS     -0.022900
     14 C5'         0.5190    0.9690    2.6900 ca        1 BFS     -0.102500
     15 C6'        -0.1240    1.2560    1.4880 ca        1 BFS     -0.119500
     16 N          -0.9900    0.6700   -1.4030 n         1 BFS     -0.552900
     17 O          -2.1240   -1.0500   -2.4040 o         1 BFS     -0.636100
     18 O2         -1.7180   -0.9110   -5.2000 oh        1 BFS     -0.499100
     19 F5          3.5340    0.0370   -3.8310 f         1 BFS     -0.138900
     20 BR4         0.9770   -0.5210    5.0670 br        1 BFS     -0.084100
     21 H3          0.2280   -0.9220   -6.8150 ha        1 BFS      0.163000
     22 H4          2.6410   -0.4870   -6.2540 ha        1 BFS      0.156000
     23 H6          1.5770    0.0680   -2.0990 ha        1 BFS      0.150000
     24 HE1        -2.7030   -0.0110   -0.4210 h1        1 BFS      0.098700
     25 HE21       -1.7920    2.9430   -0.0210 hc        1 BFS      0.047033
     26 HE22       -3.1480    2.3520   -1.0720 hc        1 BFS      0.047033
     27 HE23       -3.2310    2.1330    0.7280 hc        1 BFS      0.047033
     28 H2'        -2.3820   -1.3060    1.4410 ha        1 BFS      0.140000
     29 H3'        -1.2510   -1.8190    3.5870 ha        1 BFS      0.149000
     30 H5'         1.3410    1.6150    3.0350 ha        1 BFS      0.149000
     31 H6'         0.1940    2.1310    0.8990 ha        1 BFS      0.140000
     32 HN         -0.1800    1.2420   -1.3880 hn        1 BFS      0.314500
     33 HO2        -2.3060   -1.0360   -4.4340 ho        1 BFS      0.461000
@<TRIPOS>BOND
     1    1    2 ar  
     2    1    6 ar  
     3    1    7 1   
     4    2    3 ar  
     5    2   18 1   
     6    3    4 ar  
     7    3   21 1   
     8    4    5 ar  
     9    4   22 1   
    10    5    6 ar  
    11    5   19 1   
    12    6   23 1   
    13    7   16 1   
    14    7   17 2   
    15    8    9 1   
    16    8   10 1   
    17    8   16 1   
    18    8   24 1   
    19    9   25 1   
    20    9   26 1   
    21    9   27 1   
    22   10   11 ar  
    23   10   15 ar  
    24   11   12 ar  
    25   11   28 1   
    26   12   13 ar  
    27   12   29 1   
    28   13   14 ar  
    29   13   20 1   
    30   14   15 ar  
    31   14   30 1   
    32   15   31 1   
    33   16   32 1   
    34   18   33 1   
@<TRIPOS>SUBSTRUCTURE
     1 BFS         1 TEMP              0 ****  ****    0 ROOT
