@<TRIPOS>MOLECULE
BFS
   34    35     1     0     0
SMALL
bcc


@<TRIPOS>ATOM
      1 C1          0.1110    0.0020   -0.1730 ca        1 BFS     -0.224600
      2 C2          1.3710   -0.5770    0.0760 ca        1 BFS      0.200100
      3 C3          2.0530   -0.2980    1.2780 ca        1 BFS     -0.180000
      4 C4          1.4860    0.5410    2.2180 ca        1 BFS     -0.058000
      5 C5          0.2130    1.1180    1.9750 ca        1 BFS      0.116900
      6 C6         -0.4700    0.8480    0.7850 ca        1 BFS     -0.122000
      7 C          -0.5470   -0.2370   -1.4600 c         1 BFS      0.590700
      8 CE1        -2.9510    0.0850   -2.1860 c3        1 BFS      0.194800
      9 CE2        -3.1780    1.4660   -1.5900 c3        1 BFS     -0.128100
     10 C1'        -4.2340   -0.6770   -2.3350 ca        1 BFS     -0.176300
     11 C2'        -4.5870   -1.1870   -3.5890 ca        1 BFS     -0.104500
     12 C3'        -5.7890   -1.8730   -3.7510 ca        1 BFS     -0.095000
     13 C4'        -6.6440   -2.0630   -2.6600 ca        1 BFS      0.005100
     14 C5'        -6.2890   -1.5540   -1.4040 ca        1 BFS     -0.095000
     15 C6'        -5.0900   -0.8650   -1.2430 ca        1 BFS     -0.104500
     16 N          -1.9800   -0.7300   -1.3510 n4        1 BFS     -0.687800
     17 O          -0.1040   -0.1220   -2.5900 o         1 BFS     -0.395100
     18 O2          1.8540   -1.4290   -0.8750 oh        1 BFS     -0.485100
     19 F5         -0.3400    1.9350    2.8980 f         1 BFS     -0.106900
     20 BR4        -8.2520   -2.9850   -2.8750 br        1 BFS     -0.019100
     21 H3          3.0430   -0.7490    1.4590 ha        1 BFS      0.174000
     22 H4          2.0110    0.7740    3.1610 ha        1 BFS      0.185000
     23 H6         -1.4420    1.3330    0.5970 ha        1 BFS      0.156000
     24 HE1        -2.4550    0.2020   -3.2010 hx        1 BFS      0.122700
     25 HE21       -3.6270    1.4130   -0.5680 hc        1 BFS      0.076700
     26 HE22       -3.8930    2.0160   -2.2540 hc        1 BFS      0.076700
     27 HE23       -2.2240    2.0470   -1.5450 hc        1 BFS      0.076700
     28 H2'        -3.9270   -1.0400   -4.4590 ha        1 BFS      0.143000
     29 H3'        -6.0600   -2.2630   -4.7480 ha        1 BFS      0.171500
     30 H5'        -6.9580   -1.6910   -0.5370 ha        1 BFS      0.171500
     31 H6'        -4.8350   -0.4550   -0.2540 ha        1 BFS      0.143000
     32 HN         -2.2800   -0.7120   -0.3720 hn        1 BFS      0.457800
     33 HO2         2.7600   -1.6910   -0.6370 ho        1 BFS      0.461000
     34 HN3        -2.0140   -1.7010   -1.6840 hn        1 BFS      0.457800
@<TRIPOS>BOND
     1    1    2 ar  
     2    1    6 ar  
     3    1    7 1   
     4    2    3 ar  
     5    2   18 1   
     6    3    4 ar  
     7    3   21 1   
     8    4    5 ar  
     9    4   22 1   
    10    5    6 ar  
    11    5   19 1   
    12    6   23 1   
    13    7   16 1   
    14    7   17 2   
    15    8    9 1   
    16    8   10 1   
    17    8   16 1   
    18    8   24 1   
    19    9   25 1   
    20    9   26 1   
    21    9   27 1   
    22   10   11 ar  
    23   10   15 ar  
    24   11   12 ar  
    25   11   28 1   
    26   12   13 ar  
    27   12   29 1   
    28   13   14 ar  
    29   13   20 1   
    30   14   15 ar  
    31   14   30 1   
    32   15   31 1   
    33   16   32 1   
    34   16   34 1   
    35   18   33 1   
@<TRIPOS>SUBSTRUCTURE
     1 BFS         1 TEMP              0 ****  ****    0 ROOT
