@<TRIPOS>MOLECULE
BFS
   33    29     1     0     0
SMALL
bcc


@<TRIPOS>ATOM
      1 C1          2.2340    0.3340    0.9260 c1        1 BFS     -0.121000
      2 C2          3.4860   -0.2550    1.0110 c1        1 BFS      0.092000
      3 C3          4.3240    0.0490    2.0710 c1        1 BFS     -0.196000
      4 C4          3.9120    0.9430    3.0470 c1        1 BFS     -0.108000
      5 C5          2.6600    1.5320    2.9620 c1        1 BFS      0.051000
      6 C6          1.8220    1.2280    1.9010 c1        1 BFS     -0.084000
      7 C           1.2950   -0.0450   -0.1980 c2        1 BFS      0.355000
      8 CE1        -0.7520    0.4300   -1.4750 c3        1 BFS      0.051000
      9 CE2        -1.2350    1.7950   -1.9130 c3        1 BFS     -0.216000
     10 C1'        -1.9420   -0.4670   -1.2150 c2        1 BFS     -0.088000
     11 C2'        -2.1350   -1.6020   -1.9870 c2        1 BFS     -0.112000
     12 C3'        -3.2620   -2.3860   -1.7970 c1        1 BFS     -0.104000
     13 C4'        -4.1960   -2.0350   -0.8350 c1        1 BFS     -0.165000
     14 C5'        -4.0030   -0.9000   -0.0640 c1        1 BFS     -0.106000
     15 C6'        -2.8760   -0.1160   -0.2540 c1        1 BFS     -0.122000
     16 N           0.0130    0.5580   -0.2860 n         1 BFS     -0.351000
     17 O           1.6230   -0.8930   -1.0050 o         1 BFS     -0.368000
     18 O2          3.9120   -1.1490    0.0110 oh        1 BFS     -0.260000
     19 F5          2.2750    2.4220    3.8860 f         1 BFS     -0.100000
     20 BR4        -5.7840   -3.0770   -0.6200 br        1 BFS      0.050000
     21 H3          5.2060   -0.3660    2.1310 ha        1 BFS      0.143000
     22 H4          4.5030    1.1570    3.7940 ha        1 BFS      0.155000
     23 H6          0.9400    1.6430    1.8420 ha        1 BFS      0.177000
     24 HE1        -0.1970    0.0400   -2.1790 h1        1 BFS      0.135000
     25 HE21       -2.2130    1.7870   -1.9850 hc        1 BFS      0.084000
     26 HE22       -0.9610    2.4650   -1.2530 hc        1 BFS      0.084000
     27 HE23       -0.8450    2.0150   -2.7840 hc        1 BFS      0.084000
     28 H2'        -1.4770   -1.8490   -2.6640 ha        1 BFS      0.147000
     29 H3'        -3.3970   -3.1860   -2.3400 ha        1 BFS      0.148000
     30 H5'        -4.6610   -0.6520    0.6140 ha        1 BFS      0.145000
     31 H6'        -2.7400    0.6840    0.2900 ha        1 BFS      0.134000
     32 HN         -0.3270    1.0120    0.4290 hn        1 BFS      0.232000
     33 HO2         4.7970   -1.1160   -0.0580 ho        1 BFS      0.231000
@<TRIPOS>BOND
     1    1    6 1   
     2    1    7 1   
     3    2    3 1   
     4    2   18 1   
     5    3   21 1   
     6    4    5 1   
     7    4   22 1   
     8    5   19 1   
     9    6   23 1   
    10    7   16 1   
    11    7   17 1   
    12    8    9 1   
    13    8   10 1   
    14    8   16 1   
    15    8   24 1   
    16    9   25 1   
    17    9   26 1   
    18    9   27 1   
    19   10   11 1   
    20   10   15 1   
    21   11   12 1   
    22   11   28 1   
    23   12   29 1   
    24   13   14 1   
    25   13   20 1   
    26   14   30 1   
    27   15   31 1   
    28   16   32 1   
    29   18   33 1   
@<TRIPOS>SUBSTRUCTURE
     1 BFS         1 TEMP              0 ****  ****    0 ROOT
