@<TRIPOS>MOLECULE
BFS
   34    35     1     0     0
SMALL
bcc


@<TRIPOS>ATOM
      1 C1          0.0380    0.5170   -0.0050 ca        1 BFS     -0.209600
      2 C2          0.1690   -0.6960    0.6990 ca        1 BFS      0.162100
      3 C3          1.1250   -0.8320    1.7210 ca        1 BFS     -0.181000
      4 C4          1.9500    0.2310    2.0530 ca        1 BFS     -0.056000
      5 C5          1.8300    1.4540    1.3540 ca        1 BFS      0.115900
      6 C6          0.8860    1.5920    0.3290 ca        1 BFS     -0.071000
      7 C          -0.8910    0.7640   -1.1110 c         1 BFS      0.578700
      8 CE1        -3.2210    0.4060   -2.0730 c3        1 BFS      0.196800
      9 CE2        -3.9580    1.5440   -1.3830 c3        1 BFS     -0.124100
     10 C1'        -4.1410   -0.7220   -2.4340 ca        1 BFS     -0.173300
     11 C2'        -4.2020   -1.1600   -3.7610 ca        1 BFS     -0.104500
     12 C3'        -5.0760   -2.1850   -4.1200 ca        1 BFS     -0.096000
     13 C4'        -5.8910   -2.7850   -3.1550 ca        1 BFS      0.003100
     14 C5'        -5.8290   -2.3480   -1.8250 ca        1 BFS     -0.096000
     15 C6'        -4.9590   -1.3210   -1.4680 ca        1 BFS     -0.104500
     16 N          -2.0980   -0.1330   -1.2080 ny        1 BFS     -0.668800
     17 O          -0.7880    1.6400   -1.9630 o         1 BFS     -0.431100
     18 O2         -0.6600   -1.7380    0.3580 oh        1 BFS     -0.549100
     19 F5          2.6330    2.4920    1.6740 f         1 BFS     -0.100900
     20 Br4        -7.0580   -4.1600   -3.6340 br        1 BFS     -0.022100
     21 H3          1.2200   -1.7900    2.2570 ha        1 BFS      0.171000
     22 H4          2.7020    0.1340    2.8550 ha        1 BFS      0.186000
     23 H6          0.8110    2.5450   -0.2240 ha        1 BFS      0.189000
     24 HE1        -2.7250    0.8120   -3.0100 hx        1 BFS      0.123700
     25 HE21       -3.2690    2.4030   -1.1890 hc        1 BFS      0.077367
     26 HE22       -4.4280    1.2200   -0.4240 hc        1 BFS      0.077367
     27 HE23       -4.7720    1.8940   -2.0690 hc        1 BFS      0.077367
     28 H2'        -3.5720   -0.6910   -4.5350 ha        1 BFS      0.143000
     29 H3'        -5.1200   -2.5140   -5.1730 ha        1 BFS      0.170500
     30 H5'        -6.4720   -2.8080   -1.0560 ha        1 BFS      0.170500
     31 H6'        -4.9350   -0.9750   -0.4230 ha        1 BFS      0.143000
     32 HN         -1.7880   -1.0400   -1.5850 hn        1 BFS      0.464800
     33 HO2        -0.3950   -2.5300    0.8560 ho        1 BFS      0.471000
     34 HN3        -2.4520   -0.3080   -0.2590 hn        1 BFS      0.464800
@<TRIPOS>BOND
     1    1    2 ar  
     2    1    6 ar  
     3    1    7 1   
     4    2    3 ar  
     5    2   18 1   
     6    3    4 ar  
     7    3   21 1   
     8    4    5 ar  
     9    4   22 1   
    10    5    6 ar  
    11    5   19 1   
    12    6   23 1   
    13    7   16 1   
    14    7   17 2   
    15    8    9 1   
    16    8   10 1   
    17    8   16 1   
    18    8   24 1   
    19    9   25 1   
    20    9   26 1   
    21    9   27 1   
    22   10   11 ar  
    23   10   15 ar  
    24   11   12 ar  
    25   11   28 1   
    26   12   13 ar  
    27   12   29 1   
    28   13   14 ar  
    29   13   20 1   
    30   14   15 ar  
    31   14   30 1   
    32   15   31 1   
    33   16   32 1   
    34   16   34 1   
    35   18   33 1   
@<TRIPOS>SUBSTRUCTURE
     1 BFS         1 TEMP              0 ****  ****    0 ROOT
