@<TRIPOS>MOLECULE
BFS
   34    35     1     0     0
SMALL
bcc


@<TRIPOS>ATOM
      1 C1          0.0570    0.5040   -0.0350 ca        1 BFS     -0.209600
      2 C2          0.2270   -0.7400    0.6040 ca        1 BFS      0.162100
      3 C3          1.2180   -0.9110    1.5870 ca        1 BFS     -0.181000
      4 C4          2.0380    0.1470    1.9440 ca        1 BFS     -0.056000
      5 C5          1.8800    1.4010    1.3100 ca        1 BFS      0.115900
      6 C6          0.9010    1.5740    0.3240 ca        1 BFS     -0.071000
      7 C          -0.9110    0.7900   -1.0980 c         1 BFS      0.578700
      8 CE1        -3.2650    0.4430   -2.0030 c3        1 BFS      0.196800
      9 CE2        -3.9960    1.5350   -1.2360 c3        1 BFS     -0.124100
     10 C1'        -4.1800   -0.6810   -2.3900 ca        1 BFS     -0.173300
     11 C2'        -4.2760   -1.0540   -3.7350 ca        1 BFS     -0.104500
     12 C3'        -5.1470   -2.0740   -4.1170 ca        1 BFS     -0.096000
     13 C4'        -5.9220   -2.7330   -3.1570 ca        1 BFS      0.003100
     14 C5'        -5.8250   -2.3600   -1.8110 ca        1 BFS     -0.096000
     15 C6'        -4.9580   -1.3380   -1.4300 ca        1 BFS     -0.104500
     16 N          -2.1080   -0.1200   -1.2010 n4        1 BFS     -0.668800
     17 O          -0.8480    1.7080   -1.9080 o         1 BFS     -0.432100
     18 O2         -0.5990   -1.7770    0.2390 oh        1 BFS     -0.549100
     19 F5          2.6780    2.4340    1.6550 f         1 BFS     -0.100900
     20 BR4        -7.0840   -4.1020   -3.6670 br        1 BFS     -0.022100
     21 H3          1.3420   -1.8930    2.0720 ha        1 BFS      0.171000
     22 H4          2.8170    0.0220    2.7160 ha        1 BFS      0.186000
     23 H6          0.7940    2.5520   -0.1790 ha        1 BFS      0.189000
     24 HE1        -2.8040    0.9020   -2.9350 hx        1 BFS      0.123700
     25 HE21       -4.8360    1.9050   -1.8790 hc        1 BFS      0.077367
     26 HE22       -4.4310    1.1570   -0.2800 hc        1 BFS      0.077367
     27 HE23       -3.3140    2.3940   -1.0210 hc        1 BFS      0.077367
     28 H2'        -3.6780   -0.5390   -4.5030 ha        1 BFS      0.143000
     29 H3'        -5.2200   -2.3530   -5.1820 ha        1 BFS      0.170500
     30 H5'        -6.4370   -2.8660   -1.0460 ha        1 BFS      0.170500
     31 H6'        -4.9070   -1.0420   -0.3710 ha        1 BFS      0.143000
     32 HN         -1.7980   -1.0030   -1.6310 hn        1 BFS      0.464800
     33 HO2        -0.3070   -2.5880    0.6890 ho        1 BFS      0.471000
     34 HN3        -2.4290   -0.3460   -0.2520 hn        1 BFS      0.464800
@<TRIPOS>BOND
     1    1    2 ar  
     2    1    6 ar  
     3    1    7 1   
     4    2    3 ar  
     5    2   18 1   
     6    3    4 ar  
     7    3   21 1   
     8    4    5 ar  
     9    4   22 1   
    10    5    6 ar  
    11    5   19 1   
    12    6   23 1   
    13    7   16 1   
    14    7   17 2   
    15    8    9 1   
    16    8   10 1   
    17    8   16 1   
    18    8   24 1   
    19    9   25 1   
    20    9   26 1   
    21    9   27 1   
    22   10   11 ar  
    23   10   15 ar  
    24   11   12 ar  
    25   11   28 1   
    26   12   13 ar  
    27   12   29 1   
    28   13   14 ar  
    29   13   20 1   
    30   14   15 ar  
    31   14   30 1   
    32   15   31 1   
    33   16   32 1   
    34   16   34 1   
    35   18   33 1   
@<TRIPOS>SUBSTRUCTURE
     1 BFS         1 TEMP              0 ****  ****    0 ROOT
