@<TRIPOS>MOLECULE
BFT
   54    50     1     0     0
SMALL
bcc


@<TRIPOS>ATOM
      1 CM2         6.1660    2.2240   -0.8760 c3        1 BFT     -0.152000
      2 N3         -0.0190    1.7510    0.6350 n         1 BFT     -0.326000
      3 C2          0.5730    0.6210    1.2620 c2        1 BFT      0.254000
      4 S1         -1.5730   -0.8660   -0.7620 ss        1 BFT      0.214000
      5 C5         -1.9440    0.3310    0.4900 c3        1 BFT     -0.207000
      6 C4         -1.3370    1.6630    0.1090 c3        1 BFT      0.028000
      7 CM4        -1.2880    1.7830   -1.3970 c3        1 BFT     -0.233000
      8 C6         -3.4450    0.4790    0.6180 c3        1 BFT     -0.286000
      9 C7         -4.0360   -0.8100    1.1470 c3        1 BFT      0.109000
     10 O7         -5.3560   -0.5790    1.5770 os        1 BFT     -0.708000
     11 N1A         3.7260    1.8600   -1.2310 n1        1 BFT     -0.217000
     12 C2A         4.7180    2.4160   -0.4790 c1        1 BFT      0.043000
     13 N3A         4.4070    3.1370    0.6340 n1        1 BFT     -0.270000
     14 C4A         3.1240    3.3000    0.9920 c1        1 BFT      0.163000
     15 N4A         2.7980    4.1170    2.1030 n3        1 BFT     -0.347000
     16 C5A         2.1300    2.7430    0.2400 c1        1 BFT     -0.250000
     17 C6A         2.4420    2.0220   -0.8740 c1        1 BFT      0.004000
     18 C7A         0.6790    2.9910    0.6010 c3        1 BFT      0.004000
     19 P1         -6.2060   -1.8070    2.0950 p5        1 BFT      1.546500
     20 O1         -5.3870   -2.6050    3.0810 o         1 BFT     -0.922833
     21 O2         -7.4580   -1.3030    2.7710 o         1 BFT     -0.922833
     22 O3         -6.5830   -2.6850    0.9260 o         1 BFT     -0.922833
     23 O5          1.7200    0.6790    1.6630 o         1 BFT     -0.447000
     24 CB1        -0.6950   -2.2260   -0.0380 c2        1 BFT      0.077000
     25 OB1        -0.6480   -2.3450    1.1690 o         1 BFT     -0.370000
     26 CB2         0.0150   -3.2280   -0.9260 c2        1 BFT     -0.128000
     27 CB3         1.3870   -3.3950   -0.8210 c2        1 BFT     -0.091000
     28 CB4         2.0260   -4.3630   -1.5780 c1        1 BFT     -0.162000
     29 CB5         1.2950   -5.1640   -2.4400 c1        1 BFT     -0.136500
     30 CB6        -0.0770   -4.9970   -2.5450 c1        1 BFT     -0.136500
     31 CB7        -0.7170   -4.0290   -1.7880 c1        1 BFT     -0.076000
     32 HM21        6.2580    1.3890   -1.3810 hc        1 BFT      0.087667
     33 HM22        6.4540    2.9770   -1.4340 hc        1 BFT      0.087667
     34 HM23        6.7230    2.1820   -0.0700 hc        1 BFT      0.087667
     35 H2          0.0480   -0.1930    1.3980 h5        1 BFT      0.167000
     36 H5         -1.5730    0.0360    1.3430 h1        1 BFT      0.141000
     37 H4         -1.8830    2.3870    0.4760 h1        1 BFT      0.127000
     38 HM41       -0.6290    2.4650   -1.6500 hc        1 BFT      0.083000
     39 HM42       -2.1710    2.0410   -1.7330 hc        1 BFT      0.083000
     40 HM43       -1.0300    0.9200   -1.7850 hc        1 BFT      0.083000
     41 H61        -3.8290    0.6770   -0.2600 hc        1 BFT      0.146500
     42 H62        -3.6490    1.2100    1.2350 hc        1 BFT      0.146500
     43 H71        -3.4980   -1.1300    1.9010 h1        1 BFT      0.014000
     44 H72        -4.0370   -1.4840    0.4370 h1        1 BFT      0.014000
     45 H4A1        1.9390    4.1470    2.4120 hn        1 BFT      0.226500
     46 H4A2        3.4430    4.6290    2.4980 hn        1 BFT      0.226500
     47 H6A         1.7300    1.6590   -1.4360 ha        1 BFT      0.202000
     48 H7A1        0.2710    3.5760   -0.0700 h1        1 BFT      0.128000
     49 H7A2        0.6300    3.4180    1.4810 h1        1 BFT      0.128000
     50 HB3         1.9020   -2.8310   -0.2140 ha        1 BFT      0.139000
     51 HB4         2.9930   -4.4810   -1.5040 ha        1 BFT      0.114000
     52 HB5         1.7460   -5.8470   -2.9740 ha        1 BFT      0.123500
     53 HB6        -0.5910   -5.5520   -3.1640 ha        1 BFT      0.123500
     54 HB7        -1.6840   -3.9110   -1.8620 ha        1 BFT      0.190000
@<TRIPOS>BOND
     1    1   12 1   
     2    1   32 1   
     3    1   33 1   
     4    1   34 1   
     5    2    3 1   
     6    2    6 1   
     7    2   18 1   
     8    3   23 1   
     9    3   35 1   
    10    4    5 1   
    11    4   24 1   
    12    5    6 1   
    13    5    8 1   
    14    5   36 1   
    15    6    7 1   
    16    6   37 1   
    17    7   38 1   
    18    7   39 1   
    19    7   40 1   
    20    8    9 1   
    21    8   41 1   
    22    8   42 1   
    23    9   10 1   
    24    9   43 1   
    25    9   44 1   
    26   10   19 1   
    27   11   17 1   
    28   12   13 1   
    29   14   15 1   
    30   14   16 1   
    31   15   45 1   
    32   15   46 1   
    33   16   18 1   
    34   17   47 1   
    35   18   48 1   
    36   18   49 1   
    37   19   20 1   
    38   19   21 1   
    39   19   22 1   
    40   24   25 1   
    41   24   26 1   
    42   26   27 1   
    43   26   31 1   
    44   27   28 1   
    45   27   50 1   
    46   28   51 1   
    47   29   30 1   
    48   29   52 1   
    49   30   53 1   
    50   31   54 1   
@<TRIPOS>SUBSTRUCTURE
     1 BFT         1 TEMP              0 ****  ****    0 ROOT
