@<TRIPOS>MOLECULE
BFT
   54    56     1     0     0
SMALL
bcc


@<TRIPOS>ATOM
      1 CM2         0.6250    1.2220    2.8900 c3        1 BFT     -0.123400
      2 N3          5.3150   -1.4230   -0.7770 n         1 BFT     -0.443800
      3 C2          6.3770   -1.3740    0.0840 c         1 BFT      0.648900
      4 S1          4.8960   -5.2150   -2.2100 s4        1 BFT     -0.464400
      5 C5          5.0510   -3.9370   -0.9550 c3        1 BFT      0.145600
      6 C4          5.1570   -2.5760   -1.6690 c3        1 BFT      0.087700
      7 CM4         6.2880   -2.6160   -2.7050 c3        1 BFT     -0.113100
      8 C6          3.8740   -4.0020    0.0000 c3        1 BFT     -0.085400
      9 C7          2.5280   -4.4130   -0.6120 c3        1 BFT      0.206400
     10 O7          2.0070   -3.4780   -1.4870 os        1 BFT     -0.600200
     11 N1A         2.9500    1.0410    2.1220 nb        1 BFT     -0.795000
     12 C2A         1.6280    0.8110    1.8340 ca        1 BFT      0.660300
     13 N3A         1.1360    0.2390    0.7090 nb        1 BFT     -0.808000
     14 C4A         2.0460   -0.1490   -0.2690 ca        1 BFT      0.716200
     15 N4A         1.5630   -0.6270   -1.4580 nh        1 BFT     -0.905500
     16 C5A         3.4560    0.0710   -0.0480 ca        1 BFT     -0.400900
     17 C6A         3.8240    0.6550    1.1710 ca        1 BFT      0.454200
     18 C7A         4.5190   -0.2430   -1.0540 c3        1 BFT      0.155300
     19 P1          2.1290   -3.7810   -3.1430 p5        1 BFT      1.464800
     20 O1          0.8970   -4.4810   -3.5780 o         1 BFT     -0.876500
     21 O2          2.4330   -2.3750   -3.5610 o         1 BFT     -0.876500
     22 O3          3.4110   -4.6860   -3.1740 os        1 BFT     -0.677200
     23 O5          6.7120   -0.3570    0.7360 o         1 BFT     -0.694100
     24 CB1         6.2010   -6.2970   -1.9320 c         1 BFT      0.575600
     25 OB1         7.1180   -6.2580   -1.0720 o         1 BFT     -0.689100
     26 CB2         6.2080   -7.4520   -2.8920 ca        1 BFT     -0.118600
     27 CB3         7.2150   -8.4230   -2.8340 ca        1 BFT     -0.106500
     28 CB4         7.2250   -9.4940   -3.7250 ca        1 BFT     -0.163500
     29 CB5         6.2230   -9.6070   -4.6880 ca        1 BFT     -0.159000
     30 CB6         5.2150   -8.6450   -4.7540 ca        1 BFT     -0.163500
     31 CB7         5.2030   -7.5720   -3.8640 ca        1 BFT     -0.106500
     32 HM21        0.7760    0.5950    3.8020 hc        1 BFT      0.039033
     33 HM22        0.7790    2.2950    3.1600 hc        1 BFT      0.039033
     34 HM23       -0.4230    1.0870    2.5310 hc        1 BFT      0.039033
     35 H2          6.9420   -2.3320    0.1750 h5        1 BFT      0.030200
     36 H5          5.9950   -4.1490   -0.3890 h1        1 BFT      0.063700
     37 H4          4.1690   -2.4440   -2.2360 h1        1 BFT      0.142700
     38 HM41        6.0500   -3.4190   -3.4480 hc        1 BFT      0.038033
     39 HM42        6.3630   -1.6410   -3.2440 hc        1 BFT      0.038033
     40 HM43        7.2700   -2.8410   -2.2250 hc        1 BFT      0.038033
     41 H61         3.7340   -3.0150    0.5130 hc        1 BFT      0.024200
     42 H62         4.1140   -4.7590    0.7950 hc        1 BFT      0.024200
     43 H71         1.8000   -4.5240    0.2470 h1        1 BFT      0.006200
     44 H72         2.6280   -5.4140   -1.1200 h1        1 BFT      0.006200
     45 H4A1        2.1640   -1.2240   -2.0330 hn        1 BFT      0.461800
     46 H4A2        0.6090   -0.9140   -1.4750 hn        1 BFT      0.461800
     47 H6A         4.8980    0.8150    1.4000 h4        1 BFT      0.041100
     48 H7A1        5.2230    0.6450   -1.0760 h1        1 BFT      0.061200
     49 H7A2        4.0730   -0.3480   -2.0860 h1        1 BFT      0.061200
     50 HB3         7.9970   -8.3190   -2.0660 ha        1 BFT      0.167000
     51 HB4         8.0200  -10.2500   -3.6690 ha        1 BFT      0.105500
     52 HB5         6.2270  -10.4500   -5.3920 ha        1 BFT      0.095000
     53 HB6         4.4230   -8.7300   -5.5110 ha        1 BFT      0.105500
     54 HB7         4.3970   -6.8090   -3.9230 ha        1 BFT      0.167000
@<TRIPOS>BOND
     1    1   12 1   
     2    1   32 1   
     3    1   33 1   
     4    1   34 1   
     5    2    3 1   
     6    2    6 1   
     7    2   18 1   
     8    3   23 2   
     9    3   35 1   
    10    4    5 1   
    11    4   22 1   
    12    4   24 1   
    13    5    6 1   
    14    5    8 1   
    15    5   36 1   
    16    6    7 1   
    17    6   37 1   
    18    7   38 1   
    19    7   39 1   
    20    7   40 1   
    21    8    9 1   
    22    8   41 1   
    23    8   42 1   
    24    9   10 1   
    25    9   43 1   
    26    9   44 1   
    27   10   19 1   
    28   11   12 ar  
    29   11   17 ar  
    30   12   13 ar  
    31   13   14 ar  
    32   14   15 1   
    33   14   16 ar  
    34   15   45 1   
    35   15   46 1   
    36   16   17 ar  
    37   16   18 1   
    38   17   47 1   
    39   18   48 1   
    40   18   49 1   
    41   19   20 1   
    42   19   21 1   
    43   19   22 1   
    44   24   25 2   
    45   24   26 1   
    46   26   27 ar  
    47   26   31 ar  
    48   27   28 ar  
    49   27   50 1   
    50   28   29 ar  
    51   28   51 1   
    52   29   30 ar  
    53   29   52 1   
    54   30   31 ar  
    55   30   53 1   
    56   31   54 1   
@<TRIPOS>SUBSTRUCTURE
     1 BFT         1 TEMP              0 ****  ****    0 ROOT
