@<TRIPOS>MOLECULE
BFT
   54    55     1     0     0
SMALL
bcc


@<TRIPOS>ATOM
      1 CM2        -5.4080    2.8810    0.0080 c3        1 BFT     -0.166400
      2 N3         -1.4330   -2.1650   -0.1420 n         1 BFT     -0.450800
      3 C2         -0.9100   -3.2450   -0.8070 c         1 BFT      0.634900
      4 S1          2.1600   -0.6790   -0.1640 ss        1 BFT     -0.187700
      5 C5          0.4120   -0.5450   -0.6240 c3        1 BFT      0.040400
      6 C4         -0.5500   -1.1470    0.4240 c3        1 BFT      0.041700
      7 CM4         0.1990   -1.6540    1.6560 c3        1 BFT     -0.098100
      8 C6          0.1590    0.9320   -0.8340 c3        1 BFT     -0.118400
      9 C7          0.4930    1.8190    0.3840 c3        1 BFT      0.237400
     10 O7         -0.3830    2.8650    0.4780 os        1 BFT     -0.559200
     11 N1A        -4.6360    0.7970   -1.0900 nb        1 BFT     -0.780000
     12 C2A        -4.9020    1.4640    0.0870 ca        1 BFT      0.719300
     13 N3A        -4.6500    0.9890    1.3370 nb        1 BFT     -0.733000
     14 C4A        -3.8730   -0.1380    1.4390 ca        1 BFT      0.745200
     15 N4A        -3.4630   -0.5880    2.7190 nh        1 BFT     -0.893500
     16 C5A        -3.5480   -0.8980    0.2640 ca        1 BFT     -0.412900
     17 C6A        -3.9860   -0.3700   -0.9630 ca        1 BFT      0.458200
     18 C7A        -2.8180   -2.1960    0.2970 c3        1 BFT      0.167300
     19 P1         -1.4520    2.8080    1.8420 p5        1 BFT      1.347900
     20 O1         -0.6000    3.3160    2.9630 o         1 BFT     -0.934500
     21 O2         -2.6010    3.6440    1.3630 o         1 BFT     -0.934500
     22 O3         -1.7180    1.3100    1.9020 o         1 BFT     -0.934500
     23 O5         -1.5870   -4.2320   -1.1780 o         1 BFT     -0.681100
     24 CB1         2.8210   -1.8770   -1.1630 c         1 BFT      0.530300
     25 OB1         2.2280   -2.5980   -1.9860 o         1 BFT     -0.581100
     26 CB2         4.2830   -2.0280   -0.9500 ca        1 BFT     -0.142600
     27 CB3         4.8920   -3.2560   -1.2410 ca        1 BFT     -0.085000
     28 CB4         6.2600   -3.4250   -1.0390 ca        1 BFT     -0.151500
     29 CB5         7.0300   -2.3690   -0.5520 ca        1 BFT     -0.127000
     30 CB6         6.4300   -1.1430   -0.2680 ca        1 BFT     -0.151500
     31 CB7         5.0610   -0.9680   -0.4670 ca        1 BFT     -0.085000
     32 HM21       -6.2660    3.0390    0.7030 hc        1 BFT      0.072700
     33 HM22       -4.5350    3.5310    0.3400 hc        1 BFT      0.072700
     34 HM23       -5.7190    3.1510   -1.0270 hc        1 BFT      0.072700
     35 H2          0.1830   -3.1770   -1.0310 h5        1 BFT      0.034200
     36 H5          0.3110   -1.0700   -1.6120 h1        1 BFT      0.064700
     37 H4         -1.2190   -0.2730    0.7970 h1        1 BFT      0.223700
     38 HM41        0.7890   -0.8080    2.0880 hc        1 BFT      0.036367
     39 HM42       -0.5330   -1.9930    2.4300 hc        1 BFT      0.036367
     40 HM43        0.8820   -2.5040    1.4150 hc        1 BFT      0.036367
     41 H61         0.7490    1.2800   -1.7210 hc        1 BFT      0.051200
     42 H62        -0.9290    1.0680   -1.0810 hc        1 BFT      0.051200
     43 H71         0.4850    1.1930    1.3220 h1        1 BFT     -0.010300
     44 H72         1.5440    2.2130    0.2290 h1        1 BFT     -0.010300
     45 H4A1       -3.6470    0.1120    3.4190 hn        1 BFT      0.398300
     46 H4A2       -2.4590   -0.7120    2.6790 hn        1 BFT      0.398300
     47 H6A        -3.7820   -0.9160   -1.9020 h4        1 BFT     -0.006900
     48 H7A1       -3.3620   -2.9210   -0.3810 h1        1 BFT      0.043200
     49 H7A2       -2.8440   -2.6340    1.3380 h1        1 BFT      0.043200
     50 HB3         4.2730   -4.0790   -1.6330 ha        1 BFT      0.159000
     51 HB4         6.7310   -4.3920   -1.2650 ha        1 BFT      0.123000
     52 HB5         8.1090   -2.5030   -0.3920 ha        1 BFT      0.115000
     53 HB6         7.0340   -0.3090    0.1160 ha        1 BFT      0.123000
     54 HB7         4.5840    0.0030   -0.2390 ha        1 BFT      0.159000
@<TRIPOS>BOND
     1    1   12 1   
     2    1   32 1   
     3    1   33 1   
     4    1   34 1   
     5    2    3 1   
     6    2    6 1   
     7    2   18 1   
     8    3   23 2   
     9    3   35 1   
    10    4    5 1   
    11    4   24 1   
    12    5    6 1   
    13    5    8 1   
    14    5   36 1   
    15    6    7 1   
    16    6   37 1   
    17    7   38 1   
    18    7   39 1   
    19    7   40 1   
    20    8    9 1   
    21    8   41 1   
    22    8   42 1   
    23    9   10 1   
    24    9   43 1   
    25    9   44 1   
    26   10   19 1   
    27   11   12 ar  
    28   11   17 ar  
    29   12   13 ar  
    30   13   14 ar  
    31   14   15 1   
    32   14   16 ar  
    33   15   45 1   
    34   15   46 1   
    35   16   17 ar  
    36   16   18 1   
    37   17   47 1   
    38   18   48 1   
    39   18   49 1   
    40   19   20 1   
    41   19   21 1   
    42   19   22 1   
    43   24   25 2   
    44   24   26 1   
    45   26   27 ar  
    46   26   31 ar  
    47   27   28 ar  
    48   27   50 1   
    49   28   29 ar  
    50   28   51 1   
    51   29   30 ar  
    52   29   52 1   
    53   30   31 ar  
    54   30   53 1   
    55   31   54 1   
@<TRIPOS>SUBSTRUCTURE
     1 BFT         1 TEMP              0 ****  ****    0 ROOT
