@<TRIPOS>MOLECULE
BFT
   55    56     1     0     0
SMALL
bcc


@<TRIPOS>ATOM
      1 CM2         0.0000    0.0000    0.0000 c3        1 BFT     -0.039400
      2 N3          6.1810   -1.3800    0.0180 nx        1 BFT     -0.129200
      3 C2          6.5330   -1.9730    1.1760 c         1 BFT      0.390900
      4 S1          5.5340   -4.2720   -2.7430 ss        1 BFT     -0.389700
      5 C5          5.4030   -3.3630   -1.1830 c3        1 BFT      0.027400
      6 C4          6.2890   -2.1160   -1.2440 c3        1 BFT     -0.001500
      7 CM4         7.7430   -2.5340   -1.4690 c3        1 BFT     -0.011100
      8 C6          3.9490   -2.9450   -0.9580 c3        1 BFT     -0.082400
      9 C7          3.0920   -4.1900   -0.7190 c3        1 BFT      0.217400
     10 O7          1.7750   -3.7940   -0.3320 os        1 BFT     -0.455200
     11 N1A         2.1470    0.0000    1.1520 nb        1 BFT     -0.629000
     12 C2A         1.5060    0.0000    0.0000 ca        1 BFT      0.670300
     13 N3A         2.1470    0.0010   -1.1520 nb        1 BFT     -0.642000
     14 C4A         3.4760    0.0070   -1.1890 ca        1 BFT      0.555200
     15 N4A         4.1460    0.0070   -2.4010 nv        1 BFT     -0.611500
     16 C5A         4.1860    0.0010    0.0140 ca        1 BFT     -0.482900
     17 C6A         3.4720    0.0000    1.1960 ca        1 BFT      0.493200
     18 C7A         5.6930    0.0010    0.0220 c3        1 BFT      0.106100
     19 P1          0.9320   -5.1450   -0.0970 p5        1 BFT      0.754900
     20 O1         -0.5290   -4.7760    0.4680 o         1 BFT     -0.587167
     21 O2          0.7840   -5.9340   -1.4930 o         1 BFT     -0.587167
     22 O3          1.6370   -6.0030    0.8810 o         1 BFT     -0.587167
     23 O5          6.5320   -1.3360    2.2080 o         1 BFT     -0.579100
     24 CB1         5.1300   -5.8950   -2.1860 c         1 BFT      0.681300
     25 OB1         4.9240   -6.0980   -1.0040 o         1 BFT     -0.500100
     26 CB2         5.0420   -7.0070   -3.1540 ca        1 BFT     -0.152600
     27 CB3         5.2720   -6.7770   -4.5110 ca        1 BFT     -0.034000
     28 CB4         5.1930   -7.8210   -5.4090 ca        1 BFT     -0.122500
     29 CB5         4.8740   -9.0930   -4.9680 ca        1 BFT     -0.077000
     30 CB6         4.6400   -9.3280   -3.6260 ca        1 BFT     -0.122500
     31 CB7         4.7210   -8.2940   -2.7170 ca        1 BFT     -0.034000
     32 HM21       -0.3610    1.0150    0.1110 hc        1 BFT      0.027367
     33 HM22       -0.3610   -0.4120   -0.9350 hc        1 BFT      0.027367
     34 HM23       -0.3610   -0.6040    0.8240 hc        1 BFT      0.027367
     35 H2          6.8670   -3.0040    1.1770 hx        1 BFT      0.016200
     36 H5          5.7280   -3.9970   -0.3670 h1        1 BFT      0.079700
     37 H4          5.9640   -1.4820   -2.0600 hx        1 BFT      0.075700
     38 HM41        7.9260   -2.6470   -2.5310 hc        1 BFT      0.019033
     39 HM42        8.4030   -1.7740   -1.0680 hc        1 BFT      0.019033
     40 HM43        7.9300   -3.4760   -0.9680 hc        1 BFT      0.019033
     41 H61         3.8900   -2.2940   -0.0940 hc        1 BFT      0.032200
     42 H62         3.5850   -2.4180   -1.8320 hc        1 BFT      0.032200
     43 H71         3.0400   -4.7730   -1.6300 h1        1 BFT      0.022700
     44 H72         3.5350   -4.7880    0.0680 h1        1 BFT      0.022700
     45 H4A1        4.8450    0.6990   -2.5850 hn        1 BFT      0.281300
     46 H4A2        3.8770   -0.6350   -3.1200 hn        1 BFT      0.281300
     47 H6A         3.9820    0.1700    2.1370 h4        1 BFT     -0.010900
     48 H7A1        6.0580    0.5160   -0.8580 hx        1 BFT      0.051200
     49 H7A2        6.0490    0.5080    0.9110 hx        1 BFT      0.051200
     50 HB3         5.5220   -5.7810   -4.8570 ha        1 BFT      0.125000
     51 HB4         5.3740   -7.6430   -6.4620 ha        1 BFT      0.101000
     52 HB5         4.8070   -9.9090   -5.6780 ha        1 BFT      0.093000
     53 HB6         4.3910  -10.3260   -3.2870 ha        1 BFT      0.101000
     54 HB7         4.5370   -8.4790   -1.6650 ha        1 BFT      0.125000
     55 H31         5.2440   -1.7120    0.1320 hn        1 BFT      0.340800
@<TRIPOS>BOND
     1    1   12 1   
     2    1   32 1   
     3    1   33 1   
     4    1   34 1   
     5    2    3 1   
     6    2    6 1   
     7    2   18 1   
     8    2   55 1   
     9    3   23 2   
    10    3   35 1   
    11    4    5 1   
    12    4   24 1   
    13    5    6 1   
    14    5    8 1   
    15    5   36 1   
    16    6    7 1   
    17    6   37 1   
    18    7   38 1   
    19    7   39 1   
    20    7   40 1   
    21    8    9 1   
    22    8   41 1   
    23    8   42 1   
    24    9   10 1   
    25    9   43 1   
    26    9   44 1   
    27   10   19 1   
    28   11   12 ar  
    29   11   17 ar  
    30   12   13 ar  
    31   13   14 ar  
    32   14   15 1   
    33   14   16 ar  
    34   15   45 1   
    35   15   46 1   
    36   16   17 ar  
    37   16   18 1   
    38   17   47 1   
    39   18   48 1   
    40   18   49 1   
    41   19   20 1   
    42   19   21 1   
    43   19   22 1   
    44   24   25 2   
    45   24   26 1   
    46   26   27 ar  
    47   26   31 ar  
    48   27   28 ar  
    49   27   50 1   
    50   28   29 ar  
    51   28   51 1   
    52   29   30 ar  
    53   29   52 1   
    54   30   31 ar  
    55   30   53 1   
    56   31   54 1   
@<TRIPOS>SUBSTRUCTURE
     1 BFT         1 TEMP              0 ****  ****    0 ROOT
