@<TRIPOS>MOLECULE
BFU
   45    47     1     0     0
SMALL
bcc


@<TRIPOS>ATOM
      1 BR          1.3130   -1.6750    1.3280 br        1 BFU      0.090900
      2 C2          2.9480   -0.9420    0.8650 ca        1 BFU     -0.088200
      3 C3          4.1330   -1.3480    1.5480 ca        1 BFU      0.474200
      4 N4          5.3450   -0.8650    1.2680 nb        1 BFU     -0.725000
      5 C5          5.4300    0.0660    0.2700 ca        1 BFU      0.411200
      6 C6          4.3330    0.5340   -0.4730 ca        1 BFU     -0.154300
      7 C7          3.0700    0.0090   -0.1510 ca        1 BFU     -0.042000
      8 N8          6.7880    0.5970   -0.0290 n4        1 BFU     -0.616500
      9 C9          7.8610   -0.4030    0.2820 c         1 BFU      0.528100
     10 O10         8.3670   -1.0490   -0.6200 o         1 BFU     -0.312100
     11 N11         8.2770   -0.5900    1.7020 n4        1 BFU     -0.577800
     12 C12         8.0310    0.5850    2.5540 cx        1 BFU     -0.069500
     13 C13         9.1430    1.1350    3.4320 cx        1 BFU     -0.045400
     14 C14         8.7110    1.9220    2.2320 cx        1 BFU     -0.019400
     15 C15         9.5140    2.0980    1.0180 ca        1 BFU     -0.279300
     16 C16         9.0950    3.0900    0.0870 ca        1 BFU      0.155900
     17 F           7.8300    3.5720    0.1890 f         1 BFU     -0.144900
     18 C18         9.9360    3.5420   -0.9330 ca        1 BFU     -0.174000
     19 C19        11.2090    2.9830   -1.0660 ca        1 BFU      0.011000
     20 C20        11.6260    1.9310   -0.2490 ca        1 BFU     -0.236600
     21 C21        10.7630    1.4780    0.7750 ca        1 BFU      0.229100
     22 O22        11.0240    0.3770    1.5460 oh        1 BFU     -0.575100
     23 C23        12.9580    1.2960   -0.4690 c         1 BFU      0.589700
     24 O24        13.1560    0.1460   -0.0510 o         1 BFU     -0.537100
     25 C25        13.9910    2.0970   -1.1980 c3        1 BFU     -0.167400
     26 C26        15.3770    1.5240   -1.0390 c3        1 BFU     -0.097100
     27 H3          4.0930   -2.1070    2.3610 h4        1 BFU      0.087100
     28 H6          4.4250    1.2810   -1.2790 ha        1 BFU      0.190000
     29 H7          2.1840    0.3590   -0.7170 ha        1 BFU      0.214000
     30 HN8         6.8360    0.8000   -1.0460 hn        1 BFU      0.505800
     31 H11         7.7630   -1.4070    2.0850 hn        1 BFU      0.519300
     32 H12         6.9930    0.5690    2.9620 hx        1 BFU      0.159700
     33 H131        8.8410    1.4940    4.4400 hc        1 BFU      0.141200
     34 H132       10.1390    0.6480    3.4650 hc        1 BFU      0.141200
     35 H14         8.0830    2.8250    2.4440 hc        1 BFU      0.141700
     36 H18         9.6000    4.3440   -1.6130 ha        1 BFU      0.195000
     37 H19        11.8820    3.3750   -1.8530 ha        1 BFU      0.189000
     38 H22        11.9690    0.1210    1.4980 ho        1 BFU      0.510000
     39 H251       13.9700    3.1560   -0.8230 hc        1 BFU      0.081700
     40 H252       13.7130    2.1110   -2.2890 hc        1 BFU      0.081700
     41 H261       15.4060    0.4610   -1.3820 hc        1 BFU      0.063033
     42 H262       15.6970    1.5540    0.0300 hc        1 BFU      0.063033
     43 H263       16.1020    2.1180   -1.6460 hc        1 BFU      0.063033
     44 H82         6.9400    1.4800    0.4990 hn        1 BFU      0.505800
     45 H112        9.3030   -0.8060    1.6890 hn        1 BFU      0.519300
@<TRIPOS>BOND
     1    1    2 1   
     2    2    3 ar  
     3    2    7 ar  
     4    3    4 ar  
     5    3   27 1   
     6    4    5 ar  
     7    5    6 ar  
     8    5    8 1   
     9    6    7 ar  
    10    6   28 1   
    11    7   29 1   
    12    8    9 1   
    13    8   30 1   
    14    8   44 1   
    15    9   10 2   
    16    9   11 1   
    17   11   12 1   
    18   11   31 1   
    19   11   45 1   
    20   12   13 1   
    21   12   14 1   
    22   12   32 1   
    23   13   14 1   
    24   13   33 1   
    25   13   34 1   
    26   14   15 1   
    27   14   35 1   
    28   15   16 ar  
    29   15   21 ar  
    30   16   17 1   
    31   16   18 ar  
    32   18   19 ar  
    33   18   36 1   
    34   19   20 ar  
    35   19   37 1   
    36   20   21 ar  
    37   20   23 1   
    38   21   22 1   
    39   22   38 1   
    40   23   24 2   
    41   23   25 1   
    42   25   26 1   
    43   25   39 1   
    44   25   40 1   
    45   26   41 1   
    46   26   42 1   
    47   26   43 1   
@<TRIPOS>SUBSTRUCTURE
     1 BFU         1 TEMP              0 ****  ****    0 ROOT
