@<TRIPOS>MOLECULE
BFU
   43    41     1     0     0
SMALL
bcc


@<TRIPOS>ATOM
      1 BR         -1.9530    4.0140   -7.1130 br        1 BFU      0.071000
      2 C2         -1.8990    2.9480   -5.5200 c2        1 BFU     -0.256000
      3 C3         -1.7070    1.5740   -5.6090 c2        1 BFU     -0.013000
      4 N4         -1.6640    0.8150   -4.4740 n1        1 BFU     -0.190000
      5 C5         -1.8090    1.4040   -3.2510 c1        1 BFU      0.127000
      6 C6         -2.0020    2.7800   -3.1600 c1        1 BFU     -0.178000
      7 C7         -2.0450    3.5400   -4.2960 c1        1 BFU     -0.050000
      8 N8         -1.8150    0.6000   -2.0640 n         1 BFU     -0.305000
      9 C9         -1.3270   -0.7500   -2.1090 c2        1 BFU      0.385000
     10 O10        -0.9070   -1.2120   -3.1560 o         1 BFU     -0.371000
     11 N11        -1.2720   -1.5340   -0.9060 n         1 BFU     -0.325000
     12 C12        -0.7210   -2.8630   -0.9390 cx        1 BFU     -0.034000
     13 C13         0.7990   -2.9490   -0.9160 cx        1 BFU     -0.154000
     14 C14        -0.0030   -3.3120    0.3260 cx        1 BFU     -0.151000
     15 C15         0.0380   -2.2870    1.4690 c2        1 BFU     -0.130000
     16 C16        -1.0850   -2.0950    2.2690 c2        1 BFU      0.142000
     17 F          -2.1390   -2.9200    2.1550 f         1 BFU     -0.102000
     18 C18        -1.0840   -1.0990    3.2420 c1        1 BFU     -0.216000
     19 C19         0.0380   -0.2950    3.4150 c1        1 BFU     -0.032000
     20 C20         1.1620   -0.4860    2.6160 c1        1 BFU     -0.255000
     21 C21         1.1620   -1.4820    1.6420 c1        1 BFU      0.190000
     22 O22         2.3440   -1.7560    0.9120 oh        1 BFU     -0.243000
     23 C23         2.3380    0.4950    2.7050 c2        1 BFU      0.285000
     24 O24         3.3220    0.3290    2.0060 o         1 BFU     -0.324000
     25 C25         2.2140    1.7620    3.5610 c3        1 BFU     -0.204000
     26 C26         3.3020    1.7600    4.6380 c3        1 BFU     -0.208000
     27 H3         -1.6020    1.1480   -6.4900 h4        1 BFU      0.173000
     28 H6         -2.1060    3.2020   -2.2840 ha        1 BFU      0.184000
     29 H7         -2.1810    4.5090   -4.2320 ha        1 BFU      0.154000
     30 HN8        -2.1380    0.9440   -1.2800 hn        1 BFU      0.234000
     31 H11        -1.6330   -1.2070   -0.1300 hn        1 BFU      0.222000
     32 H12        -1.1810   -3.5720   -1.4430 h1        1 BFU      0.136000
     33 H131        1.2720   -2.0930   -0.8810 hc        1 BFU      0.134500
     34 H132        1.1910   -3.7060   -1.4070 hc        1 BFU      0.134500
     35 H14        -0.0600   -4.2720    0.5320 hc        1 BFU      0.137000
     36 H18        -1.8760   -0.9640    3.8060 ha        1 BFU      0.156000
     37 H19         0.0370    0.4060    4.1000 ha        1 BFU      0.146000
     38 H22         2.7340   -0.9890    0.6800 ho        1 BFU      0.260000
     39 H251        1.3310    1.7820    3.9890 hc        1 BFU      0.108500
     40 H252        2.3190    2.5540    2.9910 hc        1 BFU      0.108500
     41 H261        4.1860    1.7720    4.2100 hc        1 BFU      0.084667
     42 H262        3.2020    2.5550    5.2050 hc        1 BFU      0.084667
     43 H263        3.2160    0.9500    5.1900 hc        1 BFU      0.084667
@<TRIPOS>BOND
     1    1    2 1   
     2    2    3 1   
     3    2    7 1   
     4    3    4 1   
     5    3   27 1   
     6    5    6 1   
     7    5    8 1   
     8    6   28 1   
     9    7   29 1   
    10    8    9 1   
    11    8   30 1   
    12    9   10 1   
    13    9   11 1   
    14   11   12 1   
    15   11   31 1   
    16   12   13 1   
    17   12   14 1   
    18   12   32 1   
    19   13   14 1   
    20   13   33 1   
    21   13   34 1   
    22   14   15 1   
    23   14   35 1   
    24   15   16 1   
    25   15   21 1   
    26   16   17 1   
    27   16   18 1   
    28   18   36 1   
    29   19   20 1   
    30   19   37 1   
    31   20   23 1   
    32   21   22 1   
    33   22   38 1   
    34   23   24 1   
    35   23   25 1   
    36   25   26 1   
    37   25   39 1   
    38   25   40 1   
    39   26   41 1   
    40   26   42 1   
    41   26   43 1   
@<TRIPOS>SUBSTRUCTURE
     1 BFU         1 TEMP              0 ****  ****    0 ROOT
