@<TRIPOS>MOLECULE
BFU
   44    46     1     0     0
SMALL
bcc


@<TRIPOS>ATOM
      1 BR          1.1460    0.2090   -0.8350 br        1 BFU     -0.004100
      2 C2          2.9660    0.1610   -0.4630 ca        1 BFU     -0.129200
      3 C3          3.4260   -0.2840    0.8030 ca        1 BFU      0.450200
      4 N4          4.7170   -0.3430    1.1430 nb        1 BFU     -0.680000
      5 C5          5.6330    0.0450    0.2030 ca        1 BFU      0.446200
      6 C6          5.2770    0.4970   -1.0860 ca        1 BFU     -0.191300
      7 C7          3.9160    0.5540   -1.4070 ca        1 BFU     -0.058000
      8 N8          7.0310   -0.0080    0.5540 n         1 BFU     -0.475400
      9 C9          7.4980   -1.1910    1.1020 c         1 BFU      0.647100
     10 O10         7.1120   -2.3420    0.9040 o         1 BFU     -0.452100
     11 N11         8.7600   -1.1150    1.9790 n4        1 BFU     -0.635800
     12 C12         8.6130   -0.1390    3.0600 cx        1 BFU     -0.009500
     13 C13         9.8150    0.3530    3.8370 cx        1 BFU     -0.080400
     14 C14         9.1000    1.3030    2.9200 cx        1 BFU     -0.031400
     15 C15         9.6590    1.8580    1.6810 ca        1 BFU     -0.210300
     16 C16         9.0340    3.0090    1.1350 ca        1 BFU      0.193900
     17 F           7.8840    3.4660    1.6810 f         1 BFU     -0.119900
     18 C18         9.5790    3.6830    0.0290 ca        1 BFU     -0.195000
     19 C19        10.7500    3.2160   -0.5500 ca        1 BFU     -0.009000
     20 C20        11.3840    2.0610   -0.0760 ca        1 BFU     -0.253600
     21 C21        10.8230    1.3840    1.0290 ca        1 BFU      0.215100
     22 O22        11.3270    0.2050    1.5140 oh        1 BFU     -0.559100
     23 C23        12.6120    1.5670   -0.7480 c         1 BFU      0.589700
     24 O24        12.9710    0.3880   -0.6080 o         1 BFU     -0.551100
     25 C25        13.3760    2.5440   -1.5900 c3        1 BFU     -0.169400
     26 C26        14.7590    2.0490   -1.9310 c3        1 BFU     -0.094100
     27 H3          2.7140   -0.6120    1.5870 h4        1 BFU      0.060100
     28 H6          6.0360    0.7920   -1.8240 ha        1 BFU      0.168000
     29 H7          3.6110    0.9030   -2.4080 ha        1 BFU      0.176000
     30 HN8         7.3970    0.8600    0.9060 hn        1 BFU      0.339500
     31 H11         8.9050   -2.0520    2.3820 hn        1 BFU      0.475300
     32 H12         7.6580   -0.3210    3.6110 hx        1 BFU      0.147700
     33 H131       10.8320   -0.0070    3.5880 hc        1 BFU      0.120200
     34 H132        9.6890    0.4810    4.9310 hc        1 BFU      0.120200
     35 H14         8.4350    2.0490    3.4260 hc        1 BFU      0.128700
     36 H18         9.0750    4.5830   -0.3590 ha        1 BFU      0.180000
     37 H19        11.1750    3.7660   -1.4080 ha        1 BFU      0.168000
     38 H22        12.2250    0.0370    1.1700 ho        1 BFU      0.491000
     39 H251       12.7940    2.7170   -2.5370 hc        1 BFU      0.075700
     40 H252       13.4460    3.5240   -1.0450 hc        1 BFU      0.075700
     41 H261       14.7060    1.0600   -2.4500 hc        1 BFU      0.055033
     42 H262       15.3720    1.9230   -1.0060 hc        1 BFU      0.055033
     43 H263       15.2690    2.7820   -2.6020 hc        1 BFU      0.055033
     44 H112        9.5770   -0.8860    1.3920 hn        1 BFU      0.475300
@<TRIPOS>BOND
     1    1    2 1   
     2    2    3 ar  
     3    2    7 ar  
     4    3    4 ar  
     5    3   27 1   
     6    4    5 ar  
     7    5    6 ar  
     8    5    8 1   
     9    6    7 ar  
    10    6   28 1   
    11    7   29 1   
    12    8    9 1   
    13    8   30 1   
    14    9   10 2   
    15    9   11 1   
    16   11   12 1   
    17   11   31 1   
    18   11   44 1   
    19   12   13 1   
    20   12   14 1   
    21   12   32 1   
    22   13   14 1   
    23   13   33 1   
    24   13   34 1   
    25   14   15 1   
    26   14   35 1   
    27   15   16 ar  
    28   15   21 ar  
    29   16   17 1   
    30   16   18 ar  
    31   18   19 ar  
    32   18   36 1   
    33   19   20 ar  
    34   19   37 1   
    35   20   21 ar  
    36   20   23 1   
    37   21   22 1   
    38   22   38 1   
    39   23   24 2   
    40   23   25 1   
    41   25   26 1   
    42   25   39 1   
    43   25   40 1   
    44   26   41 1   
    45   26   42 1   
    46   26   43 1   
@<TRIPOS>SUBSTRUCTURE
     1 BFU         1 TEMP              0 ****  ****    0 ROOT
