@<TRIPOS>MOLECULE
BFU
   43    45     1     0     0
SMALL
bcc


@<TRIPOS>ATOM
      1 BR          3.1510    0.2330   -5.2520 br        1 BFU     -0.070100
      2 C2          2.0550   -0.3440   -3.8640 ca        1 BFU     -0.195200
      3 C3          1.2690    0.5740   -3.1350 ca        1 BFU      0.462200
      4 N4          0.4580    0.2410   -2.1250 nb        1 BFU     -0.674000
      5 C5          0.3770   -1.0870   -1.7840 ca        1 BFU      0.571200
      6 C6          1.1420   -2.0820   -2.4670 ca        1 BFU     -0.303300
      7 C7          1.9800   -1.6940   -3.5060 ca        1 BFU     -0.035000
      8 N8         -0.4260   -1.4850   -0.7060 n         1 BFU     -0.575400
      9 C9         -1.5960   -0.7900   -0.2940 c         1 BFU      0.775100
     10 O10        -2.2190   -0.0340   -1.0640 o         1 BFU     -0.571100
     11 N11        -2.0720   -1.0860    1.0020 n         1 BFU     -0.516900
     12 C12        -3.0800   -0.2500    1.5520 cx        1 BFU      0.066700
     13 C13        -3.6240   -0.5110    2.9360 cx        1 BFU     -0.113400
     14 C14        -2.8330    0.7470    2.6900 cx        1 BFU     -0.117400
     15 C15        -1.5100    1.0430    3.2510 ca        1 BFU     -0.117300
     16 C16        -1.0730    2.3870    3.2260 ca        1 BFU      0.193900
     17 F          -1.8630    3.3530    2.7020 f         1 BFU     -0.123900
     18 C18         0.1830    2.7640    3.7440 ca        1 BFU     -0.210000
     19 C19         1.0090    1.8060    4.3000 ca        1 BFU     -0.038000
     20 C20         0.6270    0.4560    4.3520 ca        1 BFU     -0.275600
     21 C21        -0.6270    0.0860    3.8140 ca        1 BFU      0.215100
     22 O22        -1.0700   -1.2080    3.7880 oh        1 BFU     -0.518100
     23 C23         1.5500   -0.5300    4.9470 c         1 BFU      0.593700
     24 O24         1.4490   -1.7460    4.7170 o         1 BFU     -0.569100
     25 C25         2.6310    0.0010    5.8490 c3        1 BFU     -0.173400
     26 C26         3.2870   -1.0860    6.6620 c3        1 BFU     -0.089100
     27 H3          1.2900    1.6560   -3.3720 h4        1 BFU      0.039100
     28 H6          1.0730   -3.1410   -2.1830 ha        1 BFU      0.145000
     29 H7          2.5720   -2.4530   -4.0410 ha        1 BFU      0.151000
     30 HN8        -0.2690   -2.4050   -0.3640 hn        1 BFU      0.327500
     31 H11        -1.4330   -1.4760    1.6610 hn        1 BFU      0.313500
     32 H12        -3.7880    0.0880    0.7570 h1        1 BFU      0.122700
     33 H131       -3.2030   -1.3200    3.5580 hc        1 BFU      0.086200
     34 H132       -4.7160   -0.4110    3.0850 hc        1 BFU      0.086200
     35 H14        -3.4430    1.6790    2.6140 hc        1 BFU      0.097700
     36 H18         0.4890    3.8200    3.6960 ha        1 BFU      0.158000
     37 H19         1.9890    2.1170    4.6950 ha        1 BFU      0.143000
     38 H22        -0.4690   -1.7900    4.2810 ho        1 BFU      0.462000
     39 H251        2.1890    0.7740    6.5330 hc        1 BFU      0.069200
     40 H252        3.4010    0.5080    5.2060 hc        1 BFU      0.069200
     41 H261        4.1130   -0.6560    7.2770 hc        1 BFU      0.046033
     42 H262        2.5450   -1.5690    7.3420 hc        1 BFU      0.046033
     43 H263        3.7070   -1.8750    5.9920 hc        1 BFU      0.046033
@<TRIPOS>BOND
     1    1    2 1   
     2    2    3 ar  
     3    2    7 ar  
     4    3    4 ar  
     5    3   27 1   
     6    4    5 ar  
     7    5    6 ar  
     8    5    8 1   
     9    6    7 ar  
    10    6   28 1   
    11    7   29 1   
    12    8    9 1   
    13    8   30 1   
    14    9   10 2   
    15    9   11 1   
    16   11   12 1   
    17   11   31 1   
    18   12   13 1   
    19   12   14 1   
    20   12   32 1   
    21   13   14 1   
    22   13   33 1   
    23   13   34 1   
    24   14   15 1   
    25   14   35 1   
    26   15   16 ar  
    27   15   21 ar  
    28   16   17 1   
    29   16   18 ar  
    30   18   19 ar  
    31   18   36 1   
    32   19   20 ar  
    33   19   37 1   
    34   20   21 ar  
    35   20   23 1   
    36   21   22 1   
    37   22   38 1   
    38   23   24 2   
    39   23   25 1   
    40   25   26 1   
    41   25   39 1   
    42   25   40 1   
    43   26   41 1   
    44   26   42 1   
    45   26   43 1   
@<TRIPOS>SUBSTRUCTURE
     1 BFU         1 TEMP              0 ****  ****    0 ROOT
