@<TRIPOS>MOLECULE
BFU
   44    46     1     0     0
SMALL
bcc


@<TRIPOS>ATOM
      1 Br          1.1370    0.2460   -0.8070 br        1 BFU     -0.004100
      2 C2          2.9570    0.1870   -0.4420 ca        1 BFU     -0.129200
      3 C3          3.4190   -0.2630    0.8210 ca        1 BFU      0.450200
      4 N4          4.7110   -0.3300    1.1560 nb        1 BFU     -0.680000
      5 C5          5.6260    0.0540    0.2140 ca        1 BFU      0.446200
      6 C6          5.2680    0.5090   -1.0730 ca        1 BFU     -0.191300
      7 C7          3.9060    0.5750   -1.3890 ca        1 BFU     -0.058000
      8 N8          7.0250   -0.0080    0.5590 ns        1 BFU     -0.475400
      9 C9          7.4870   -1.1940    1.1040 c         1 BFU      0.647100
     10 O10         7.0930   -2.3430    0.9060 o         1 BFU     -0.452100
     11 N11         8.7530   -1.1270    1.9760 ny        1 BFU     -0.635800
     12 C12         8.6160   -0.1510    3.0600 cx        1 BFU     -0.009500
     13 C13         9.8240    0.3330    3.8320 cx        1 BFU     -0.080400
     14 C14         9.1110    1.2880    2.9190 cx        1 BFU     -0.031400
     15 C15         9.6680    1.8410    1.6780 ca        1 BFU     -0.210300
     16 C16         9.0480    2.9960    1.1360 ca        1 BFU      0.193900
     17 F           7.9030    3.4600    1.6880 f         1 BFU     -0.119900
     18 C18         9.5920    3.6690    0.0290 ca        1 BFU     -0.195000
     19 C19        10.7580    3.1950   -0.5550 ca        1 BFU     -0.009000
     20 C20        11.3870    2.0360   -0.0860 ca        1 BFU     -0.253600
     21 C21        10.8260    1.3610    1.0210 ca        1 BFU      0.215100
     22 O22        11.3250    0.1780    1.5030 oh        1 BFU     -0.559100
     23 C23        12.6090    1.5340   -0.7630 c         1 BFU      0.589700
     24 O24        12.9610    0.3530   -0.6260 o         1 BFU     -0.551100
     25 C25        13.3750    2.5080   -1.6080 c3        1 BFU     -0.169400
     26 C26        14.7530    2.0040   -1.9570 c3        1 BFU     -0.094100
     27 H3          2.7080   -0.5880    1.6080 h4        1 BFU      0.060100
     28 H6          6.0260    0.8010   -1.8140 ha        1 BFU      0.168000
     29 H7          3.6000    0.9280   -2.3890 ha        1 BFU      0.176000
     30 HN8         7.3980    0.8570    0.9110 hn        1 BFU      0.339500
     31 H11         8.8930   -2.0650    2.3780 hn        1 BFU      0.475300
     32 H12         7.6620   -0.3280    3.6140 hx        1 BFU      0.147700
     33 H131        9.7030    0.4600    4.9270 hc        1 BFU      0.120200
     34 H132       10.8380   -0.0330    3.5780 hc        1 BFU      0.120200
     35 H14         8.4520    2.0370    3.4290 hc        1 BFU      0.128700
     36 H18         9.0920    4.5720   -0.3550 ha        1 BFU      0.180000
     37 H19        11.1820    3.7440   -1.4150 ha        1 BFU      0.168000
     38 H22        12.2210    0.0060    1.1550 ho        1 BFU      0.491000
     39 H251       12.7890    2.6860   -2.5520 hc        1 BFU      0.075700
     40 H252       13.4540    3.4860   -1.0620 hc        1 BFU      0.075700
     41 H261       15.2650    2.7350   -2.6290 hc        1 BFU      0.055033
     42 H262       14.6900    1.0170   -2.4780 hc        1 BFU      0.055033
     43 H263       15.3690    1.8720   -1.0360 hc        1 BFU      0.055033
     44 H112        9.5680   -0.9020    1.3870 hn        1 BFU      0.475300
@<TRIPOS>BOND
     1    1    2 1   
     2    2    3 ar  
     3    2    7 ar  
     4    3    4 ar  
     5    3   27 1   
     6    4    5 ar  
     7    5    6 ar  
     8    5    8 1   
     9    6    7 ar  
    10    6   28 1   
    11    7   29 1   
    12    8    9 1   
    13    8   30 1   
    14    9   10 2   
    15    9   11 1   
    16   11   12 1   
    17   11   31 1   
    18   11   44 1   
    19   12   13 1   
    20   12   14 1   
    21   12   32 1   
    22   13   14 1   
    23   13   33 1   
    24   13   34 1   
    25   14   15 1   
    26   14   35 1   
    27   15   16 ar  
    28   15   21 ar  
    29   16   17 1   
    30   16   18 ar  
    31   18   19 ar  
    32   18   36 1   
    33   19   20 ar  
    34   19   37 1   
    35   20   21 ar  
    36   20   23 1   
    37   21   22 1   
    38   22   38 1   
    39   23   24 2   
    40   23   25 1   
    41   25   26 1   
    42   25   39 1   
    43   25   40 1   
    44   26   41 1   
    45   26   42 1   
    46   26   43 1   
@<TRIPOS>SUBSTRUCTURE
     1 BFU         1 TEMP              0 ****  ****    0 ROOT
