@<TRIPOS>MOLECULE
BFX
   70    74     1     0     0
SMALL
bcc


@<TRIPOS>ATOM
      1 BR1         0.3130    0.0400    0.1450 br        1 BFX     -0.059100
      2 C2          2.1770   -0.1320    0.0790 ca        1 BFX     -0.072900
      3 C3          2.9910   -0.1690    1.2320 ca        1 BFX      0.177100
      4 C4          2.7870   -0.2290   -1.1750 ca        1 BFX     -0.048000
      5 O5          2.3390   -0.0650    2.4440 os        1 BFX     -0.316900
      6 C6          4.3800   -0.2980    1.1250 ca        1 BFX     -0.252000
      7 C7          4.1650   -0.3580   -1.3060 ca        1 BFX     -0.196000
      8 C8          3.1580   -0.1380    3.6170 c3        1 BFX      0.129400
      9 C9          4.9640   -0.3930   -0.1500 ca        1 BFX      0.177900
     10 C10         2.1870   -0.0380    4.7820 c3        1 BFX     -0.084400
     11 F11         6.3070   -0.5180   -0.2570 f         1 BFX     -0.130900
     12 C12         2.9470   -0.0230    6.0940 c3        1 BFX     -0.047100
     13 C13         2.0230    0.1020    7.2540 ca        1 BFX     -0.038300
     14 C14         1.8260   -0.9720    8.1300 ca        1 BFX     -0.124000
     15 C15         1.3350    1.3020    7.4810 ca        1 BFX     -0.124000
     16 C16         0.9570   -0.8530    9.2110 ca        1 BFX     -0.109000
     17 C17         0.4570    1.4220    8.5530 ca        1 BFX     -0.109000
     18 C18         0.2640    0.3450    9.4320 ca        1 BFX     -0.155800
     19 C19        -0.7020    0.4580   10.5270 ce        1 BFX      0.093600
     20 C20        -0.3940    0.2590   11.8290 cf        1 BFX     -0.247400
     21 C21        -2.0880    0.8370   10.1270 c3        1 BFX     -0.063200
     22 C22         0.9410   -0.1570   12.2770 c         1 BFX      0.593300
     23 C23        -1.4190    0.3130   12.9310 c3        1 BFX      0.212000
     24 C24        -3.1200    0.5900   11.2270 c3        1 BFX      0.151800
     25 O25         1.4140   -1.2840   12.2930 o         1 BFX     -0.429100
     26 N26         1.9020    0.9100   12.8320 n4        1 BFX     -0.555200
     27 N27        -2.6400    0.9860   12.5370 n3        1 BFX     -0.823200
     28 C28         1.6980    0.9950   14.2890 cx        1 BFX      0.000500
     29 C29         1.9820    2.1240   11.9500 c3        1 BFX      0.169100
     30 C30         0.8590    1.9880   15.0590 cx        1 BFX     -0.095900
     31 C31         2.3500    2.0260   15.1830 cx        1 BFX     -0.095900
     32 C32         1.4160    3.4240   12.4040 ca        1 BFX     -0.151300
     33 C33         2.2490    4.4990   12.7620 ca        1 BFX      0.031400
     34 C34         0.0330    3.6410   12.3250 ca        1 BFX     -0.107000
     35 CL35        3.9420    4.3340   12.8250 cl        1 BFX     -0.071400
     36 C36         1.7010    5.7530   13.0580 ca        1 BFX     -0.117000
     37 C37        -0.5120    4.8870   12.6230 ca        1 BFX     -0.122000
     38 C38         0.3220    5.9430   12.9920 ca        1 BFX     -0.082000
     39 H4          2.1670   -0.2020   -2.0880 ha        1 BFX      0.159000
     40 H6          5.0300   -0.3270    2.0100 ha        1 BFX      0.154000
     41 H7          4.6320   -0.4340   -2.2980 ha        1 BFX      0.162000
     42 H8          3.8860    0.7160    3.6210 h1        1 BFX      0.045700
     43 H8A         3.7130   -1.1120    3.6340 h1        1 BFX      0.045700
     44 H10         1.4790   -0.9070    4.7510 hc        1 BFX      0.067200
     45 H10A        1.5740    0.8950    4.6770 hc        1 BFX      0.067200
     46 H12         3.6660    0.8430    6.1010 hc        1 BFX      0.060200
     47 H12A        3.5570   -0.9620    6.1840 hc        1 BFX      0.060200
     48 H14         2.3530   -1.9250    7.9580 ha        1 BFX      0.154500
     49 H15         1.4810    2.1520    6.7940 ha        1 BFX      0.154500
     50 H16         0.8010   -1.7120    9.8840 ha        1 BFX      0.146000
     51 H17        -0.0940    2.3630    8.7070 ha        1 BFX      0.146000
     52 H21        -2.0800    1.9270    9.8460 hc        1 BFX      0.088200
     53 H21A       -2.3880    0.2560    9.2140 hc        1 BFX      0.088200
     54 H23        -1.5960   -0.7540   13.2700 h1        1 BFX      0.051200
     55 H23A       -0.9960    0.8860   13.8080 h1        1 BFX      0.051200
     56 H24        -3.4200   -0.4990   11.1950 h1        1 BFX      0.056700
     57 H24A       -4.0390    1.2040   11.0050 h1        1 BFX      0.056700
     58 HN27       -3.3500    0.8380   13.2320 hn        1 BFX      0.390800
     59 H28         1.6830   -0.0590   14.6750 hx        1 BFX      0.128700
     60 H29         3.0840    2.2650   11.7240 hx        1 BFX      0.109700
     61 H29A        1.4670    1.8460   10.9760 hx        1 BFX      0.109700
     62 H30         0.3390    2.8160   14.5440 hc        1 BFX      0.108950
     63 H30A        0.2510    1.5800   15.8910 hc        1 BFX      0.108950
     64 H31         2.9000    2.8770   14.7360 hc        1 BFX      0.108950
     65 H31A        2.8400    1.6600   16.1060 hc        1 BFX      0.108950
     66 H34        -0.6320    2.8120   12.0230 ha        1 BFX      0.160000
     67 H36         2.3610    6.5910   13.3360 ha        1 BFX      0.171000
     68 H37        -1.6020    5.0370   12.5610 ha        1 BFX      0.161000
     69 H38        -0.1060    6.9320   13.2240 ha        1 BFX      0.163000
     70 H261        2.8440    0.4780   12.7580 hn        1 BFX      0.450800
@<TRIPOS>BOND
     1    1    2 1   
     2    2    3 ar  
     3    2    4 ar  
     4    3    5 1   
     5    3    6 ar  
     6    4    7 ar  
     7    4   39 1   
     8    5    8 1   
     9    6    9 ar  
    10    6   40 1   
    11    7    9 ar  
    12    7   41 1   
    13    8   10 1   
    14    8   42 1   
    15    8   43 1   
    16    9   11 1   
    17   10   12 1   
    18   10   44 1   
    19   10   45 1   
    20   12   13 1   
    21   12   46 1   
    22   12   47 1   
    23   13   14 ar  
    24   13   15 ar  
    25   14   16 ar  
    26   14   48 1   
    27   15   17 ar  
    28   15   49 1   
    29   16   18 ar  
    30   16   50 1   
    31   17   18 ar  
    32   17   51 1   
    33   18   19 1   
    34   19   20 2   
    35   19   21 1   
    36   20   22 1   
    37   20   23 1   
    38   21   24 1   
    39   21   52 1   
    40   21   53 1   
    41   22   25 2   
    42   22   26 1   
    43   23   27 1   
    44   23   54 1   
    45   23   55 1   
    46   24   27 1   
    47   24   56 1   
    48   24   57 1   
    49   26   28 1   
    50   26   29 1   
    51   26   70 1   
    52   27   58 1   
    53   28   30 1   
    54   28   31 1   
    55   28   59 1   
    56   29   32 1   
    57   29   60 1   
    58   29   61 1   
    59   30   31 1   
    60   30   62 1   
    61   30   63 1   
    62   31   64 1   
    63   31   65 1   
    64   32   33 ar  
    65   32   34 ar  
    66   33   35 1   
    67   33   36 ar  
    68   34   37 ar  
    69   34   66 1   
    70   36   38 ar  
    71   36   67 1   
    72   37   38 ar  
    73   37   68 1   
    74   38   69 1   
@<TRIPOS>SUBSTRUCTURE
     1 BFX         1 TEMP              0 ****  ****    0 ROOT
