@<TRIPOS>MOLECULE
BFX
   70    74     1     0     0
SMALL
bcc


@<TRIPOS>ATOM
      1 Br1         0.2770    0.0170    0.1540 br        1 BFX     -0.059100
      2 C2          2.1380   -0.1810    0.0840 ca        1 BFX     -0.072900
      3 C3          2.9540   -0.2260    1.2360 ca        1 BFX      0.177100
      4 C4          2.7440   -0.2900   -1.1710 ca        1 BFX     -0.048000
      5 O5          2.3070   -0.1100    2.4490 os        1 BFX     -0.316900
      6 C6          4.3410   -0.3750    1.1260 ca        1 BFX     -0.252000
      7 C7          4.1200   -0.4390   -1.3040 ca        1 BFX     -0.196000
      8 C8          3.1280   -0.1890    3.6200 c3        1 BFX      0.129400
      9 C9          4.9210   -0.4820   -0.1500 ca        1 BFX      0.177900
     10 C10         2.1610   -0.0710    4.7870 c3        1 BFX     -0.084400
     11 F11         6.2610   -0.6260   -0.2600 f         1 BFX     -0.130900
     12 C12         2.9250   -0.0600    6.0970 c3        1 BFX     -0.047100
     13 C13         2.0050    0.0830    7.2590 ca        1 BFX     -0.038300
     14 C14         1.7960   -0.9840    8.1400 ca        1 BFX     -0.124000
     15 C15         1.3340    1.2930    7.4810 ca        1 BFX     -0.124000
     16 C16         0.9320   -0.8480    9.2240 ca        1 BFX     -0.109000
     17 C17         0.4600    1.4300    8.5560 ca        1 BFX     -0.109000
     18 C18         0.2550    0.3600    9.4400 ca        1 BFX     -0.155800
     19 C19        -0.7060    0.4910   10.5370 ce        1 BFX      0.093600
     20 C20        -0.3970    0.2950   11.8390 cf        1 BFX     -0.247400
     21 C21        -2.0880    0.8870   10.1390 c3        1 BFX     -0.063200
     22 C22         0.9330   -0.1370   12.2850 c         1 BFX      0.593300
     23 C23        -1.4180    0.3680   12.9430 c3        1 BFX      0.212000
     24 C24        -3.1200    0.6600   11.2430 c3        1 BFX      0.151800
     25 O25         1.3910   -1.2700   12.3060 o         1 BFX     -0.429100
     26 N26         1.9100    0.9200   12.8330 nx        1 BFX     -0.555200
     27 N27        -2.6310    1.0560   12.5500 n7        1 BFX     -0.823200
     28 C28         1.7120    1.0150   14.2890 cx        1 BFX      0.000500
     29 C29         2.0040    2.1280   11.9440 c3        1 BFX      0.169100
     30 C30         0.8890    2.0230   15.0570 cx        1 BFX     -0.095900
     31 C31         2.3810    2.0420   15.1770 cx        1 BFX     -0.095900
     32 C32         1.4570    3.4380   12.3930 ca        1 BFX     -0.151300
     33 C33         2.3060    4.5040   12.7440 ca        1 BFX      0.031400
     34 C34         0.0770    3.6740   12.3160 ca        1 BFX     -0.107000
     35 Cl35        3.9960    4.3160   12.8020 cl        1 BFX     -0.071400
     36 C36         1.7750    5.7660   13.0350 ca        1 BFX     -0.117000
     37 C37        -0.4500    4.9280   12.6100 ca        1 BFX     -0.122000
     38 C38         0.3990    5.9750   12.9710 ca        1 BFX     -0.082000
     39 H4          2.1220   -0.2570   -2.0830 ha        1 BFX      0.159000
     40 H6          4.9920   -0.4110    2.0090 ha        1 BFX      0.154000
     41 H7          4.5830   -0.5240   -2.2980 ha        1 BFX      0.162000
     42 H8          3.8670    0.6550    3.6180 h1        1 BFX      0.045700
     43 H8A         3.6690   -1.1710    3.6400 h1        1 BFX      0.045700
     44 H10         1.5600    0.8700    4.6790 hc        1 BFX      0.067200
     45 H10A        1.4410   -0.9300    4.7610 hc        1 BFX      0.067200
     46 H12         3.5210   -1.0080    6.1900 hc        1 BFX      0.060200
     47 H12A        3.6550    0.7950    6.0980 hc        1 BFX      0.060200
     48 H14         2.3100   -1.9450    7.9720 ha        1 BFX      0.154500
     49 H15         1.4890    2.1370    6.7900 ha        1 BFX      0.154500
     50 H16         0.7660   -1.7020    9.9010 ha        1 BFX      0.146000
     51 H17        -0.0770    2.3790    8.7060 ha        1 BFX      0.146000
     52 H21        -2.3980    0.3050    9.2300 hc        1 BFX      0.088200
     53 H21A       -2.0660    1.9750    9.8520 hc        1 BFX      0.088200
     54 H23        -0.9850    0.9410   13.8160 h1        1 BFX      0.051200
     55 H23A       -1.6080   -0.6940   13.2890 h1        1 BFX      0.051200
     56 H24        -4.0320    1.2850   11.0210 h1        1 BFX      0.056700
     57 H24A       -3.4350   -0.4250   11.2170 h1        1 BFX      0.056700
     58 HN27       -3.3410    0.9210   13.2470 hn        1 BFX      0.390800
     59 H28         1.6830   -0.0370   14.6810 hx        1 BFX      0.128700
     60 H29         1.4830    1.8530   10.9730 hx        1 BFX      0.109700
     61 H29A        3.1070    2.2530   11.7150 hx        1 BFX      0.109700
     62 H30         0.3780    2.8560   14.5390 hc        1 BFX      0.108950
     63 H30A        0.2770    1.6280   15.8930 hc        1 BFX      0.108950
     64 H31         2.8680    1.6730   16.1000 hc        1 BFX      0.108950
     65 H31A        2.9400    2.8820   14.7240 hc        1 BFX      0.108950
     66 H34        -0.6000    2.8520   12.0210 ha        1 BFX      0.160000
     67 H36         2.4480    6.5970   13.3060 ha        1 BFX      0.171000
     68 H37        -1.5380    5.0930   12.5500 ha        1 BFX      0.161000
     69 H38        -0.0150    6.9710   13.1990 ha        1 BFX      0.163000
     70 H261        2.8460    0.4750   12.7580 hn        1 BFX      0.450800
@<TRIPOS>BOND
     1    1    2 1   
     2    2    3 ar  
     3    2    4 ar  
     4    3    5 1   
     5    3    6 ar  
     6    4    7 ar  
     7    4   39 1   
     8    5    8 1   
     9    6    9 ar  
    10    6   40 1   
    11    7    9 ar  
    12    7   41 1   
    13    8   10 1   
    14    8   42 1   
    15    8   43 1   
    16    9   11 1   
    17   10   12 1   
    18   10   44 1   
    19   10   45 1   
    20   12   13 1   
    21   12   46 1   
    22   12   47 1   
    23   13   14 ar  
    24   13   15 ar  
    25   14   16 ar  
    26   14   48 1   
    27   15   17 ar  
    28   15   49 1   
    29   16   18 ar  
    30   16   50 1   
    31   17   18 ar  
    32   17   51 1   
    33   18   19 1   
    34   19   20 2   
    35   19   21 1   
    36   20   22 1   
    37   20   23 1   
    38   21   24 1   
    39   21   52 1   
    40   21   53 1   
    41   22   25 2   
    42   22   26 1   
    43   23   27 1   
    44   23   54 1   
    45   23   55 1   
    46   24   27 1   
    47   24   56 1   
    48   24   57 1   
    49   26   28 1   
    50   26   29 1   
    51   26   70 1   
    52   27   58 1   
    53   28   30 1   
    54   28   31 1   
    55   28   59 1   
    56   29   32 1   
    57   29   60 1   
    58   29   61 1   
    59   30   31 1   
    60   30   62 1   
    61   30   63 1   
    62   31   64 1   
    63   31   65 1   
    64   32   33 ar  
    65   32   34 ar  
    66   33   35 1   
    67   33   36 ar  
    68   34   37 ar  
    69   34   66 1   
    70   36   38 ar  
    71   36   67 1   
    72   37   38 ar  
    73   37   68 1   
    74   38   69 1   
@<TRIPOS>SUBSTRUCTURE
     1 BFX         1 TEMP              0 ****  ****    0 ROOT
