@<TRIPOS>MOLECULE
BFX
   69    73     1     0     0
SMALL
bcc


@<TRIPOS>ATOM
      1 BR1        -7.1810   -1.9530    0.0320 br        1 BFX     -0.061100
      2 C2         -7.2420   -0.0850    0.1440 ca        1 BFX     -0.075900
      3 C3         -6.0870    0.7290    0.1020 ca        1 BFX      0.186100
      4 C4         -8.4910    0.5280    0.2750 ca        1 BFX     -0.051000
      5 O5         -4.8820    0.0770   -0.0270 os        1 BFX     -0.313900
      6 C6         -6.1940    2.1230    0.1910 ca        1 BFX     -0.253000
      7 C7         -8.6190    1.9090    0.3640 ca        1 BFX     -0.204000
      8 C8         -3.7090    0.9030   -0.0750 c3        1 BFX      0.127400
      9 C9         -7.4640    2.7090    0.3220 ca        1 BFX      0.175900
     10 C10        -2.5450   -0.0610   -0.2270 c3        1 BFX     -0.083400
     11 F11        -7.5700    4.0550    0.4070 f         1 BFX     -0.134900
     12 C12        -1.2370    0.7070   -0.2530 c3        1 BFX     -0.036100
     13 C13        -0.0700   -0.2090   -0.3700 ca        1 BFX     -0.074300
     14 C14         0.6780   -0.2650   -1.5500 ca        1 BFX     -0.129500
     15 C15         0.3020   -1.0170    0.7120 ca        1 BFX     -0.129500
     16 C16         1.7760   -1.1170   -1.6530 ca        1 BFX     -0.111500
     17 C17         1.3920   -1.8770    0.6090 ca        1 BFX     -0.111500
     18 C18         2.1370   -1.9400   -0.5770 ca        1 BFX     -0.071800
     19 C19         3.2520   -2.8810   -0.7050 ce        1 BFX     -0.009400
     20 C20         4.4930   -2.5360   -1.0990 cf        1 BFX     -0.194400
     21 C21         2.9090   -4.3070   -0.4120 c3        1 BFX     -0.085200
     22 C22         4.9000   -1.1530   -1.4850 c         1 BFX      0.679300
     23 C23         5.5950   -3.5480   -1.2770 c3        1 BFX      0.194000
     24 C24         4.1410   -5.2100   -0.3250 c3        1 BFX      0.148800
     25 O25         4.7320   -0.7470   -2.6540 o         1 BFX     -0.611100
     26 N26         5.5580   -0.3540   -0.5530 n         1 BFX     -0.432800
     27 N27         5.1780   -4.9350   -1.2980 n3        1 BFX     -0.793200
     28 C28         5.6100   -0.7420    0.8180 cx        1 BFX      0.041700
     29 C29         6.0840    0.9300   -0.9630 c3        1 BFX      0.129300
     30 C30         4.7020   -0.1690    1.8930 cx        1 BFX     -0.139400
     31 C31         6.1700    0.1320    1.9210 cx        1 BFX     -0.139400
     32 C32         5.1890    2.1210   -0.7510 ca        1 BFX     -0.097300
     33 C33         5.6570    3.3080   -0.1690 ca        1 BFX      0.020400
     34 C34         3.8640    2.0770   -1.2050 ca        1 BFX     -0.104000
     35 CL35        7.2640    3.4670    0.3820 cl        1 BFX     -0.102400
     36 C36         4.8150    4.4180   -0.0300 ca        1 BFX     -0.128000
     37 C37         3.0240    3.1790   -1.0680 ca        1 BFX     -0.130000
     38 C38         3.4980    4.3500   -0.4770 ca        1 BFX     -0.122000
     39 H4         -9.4020   -0.0930    0.3090 ha        1 BFX      0.154000
     40 H6         -5.3090    2.7730    0.1610 ha        1 BFX      0.157000
     41 H7         -9.6070    2.3780    0.4670 ha        1 BFX      0.156000
     42 H8         -3.7750    1.5990   -0.9520 h1        1 BFX      0.043200
     43 H8A        -3.6270    1.4920    0.8750 h1        1 BFX      0.043200
     44 H10        -2.5480   -0.7900    0.6250 hc        1 BFX      0.066200
     45 H10A       -2.6690   -0.6530   -1.1710 hc        1 BFX      0.066200
     46 H12        -1.2470    1.4290   -1.1130 hc        1 BFX      0.049700
     47 H12A       -1.1390    1.3110    0.6890 hc        1 BFX      0.049700
     48 H14         0.4020    0.3680   -2.4070 ha        1 BFX      0.134500
     49 H15        -0.2740   -0.9730    1.6480 ha        1 BFX      0.134500
     50 H16         2.3700   -1.1430   -2.5820 ha        1 BFX      0.147000
     51 H17         1.6730   -2.5030    1.4690 ha        1 BFX      0.147000
     52 H21         2.3450   -4.3710    0.5560 hc        1 BFX      0.063200
     53 H21A        2.2220   -4.6730   -1.2220 hc        1 BFX      0.063200
     54 H23         6.1460   -3.3190   -2.2350 h1        1 BFX      0.068700
     55 H23A        6.3250   -3.4300   -0.4240 h1        1 BFX      0.068700
     56 H24         4.6020   -5.1000    0.6980 h1        1 BFX      0.056700
     57 H24A        3.8190   -6.2820   -0.4440 h1        1 BFX      0.056700
     58 HN27        4.8550   -5.1810   -2.2180 hn        1 BFX      0.358800
     59 H28         5.8330   -1.8340    0.8990 h1        1 BFX      0.088700
     60 H29         7.0630    1.0790   -0.4220 h1        1 BFX      0.080700
     61 H29A        6.3020    0.8760   -2.0730 h1        1 BFX      0.080700
     62 H30         4.0000    0.6450    1.6380 hc        1 BFX      0.079700
     63 H30A        4.2740   -0.8660    2.6350 hc        1 BFX      0.079700
     64 H31         6.8120   -0.3530    2.6770 hc        1 BFX      0.079700
     65 H31A        6.5010    1.1640    1.7020 hc        1 BFX      0.079700
     66 H34         3.4920    1.1570   -1.6890 ha        1 BFX      0.158000
     67 H36         5.1940    5.3440    0.4290 ha        1 BFX      0.146000
     68 H37         1.9870    3.1240   -1.4300 ha        1 BFX      0.135000
     69 H38         2.8370    5.2220   -0.3670 ha        1 BFX      0.136000
@<TRIPOS>BOND
     1    1    2 1   
     2    2    3 ar  
     3    2    4 ar  
     4    3    5 1   
     5    3    6 ar  
     6    4    7 ar  
     7    4   39 1   
     8    5    8 1   
     9    6    9 ar  
    10    6   40 1   
    11    7    9 ar  
    12    7   41 1   
    13    8   10 1   
    14    8   42 1   
    15    8   43 1   
    16    9   11 1   
    17   10   12 1   
    18   10   44 1   
    19   10   45 1   
    20   12   13 1   
    21   12   46 1   
    22   12   47 1   
    23   13   14 ar  
    24   13   15 ar  
    25   14   16 ar  
    26   14   48 1   
    27   15   17 ar  
    28   15   49 1   
    29   16   18 ar  
    30   16   50 1   
    31   17   18 ar  
    32   17   51 1   
    33   18   19 1   
    34   19   20 2   
    35   19   21 1   
    36   20   22 1   
    37   20   23 1   
    38   21   24 1   
    39   21   52 1   
    40   21   53 1   
    41   22   25 2   
    42   22   26 1   
    43   23   27 1   
    44   23   54 1   
    45   23   55 1   
    46   24   27 1   
    47   24   56 1   
    48   24   57 1   
    49   26   28 1   
    50   26   29 1   
    51   27   58 1   
    52   28   30 1   
    53   28   31 1   
    54   28   59 1   
    55   29   32 1   
    56   29   60 1   
    57   29   61 1   
    58   30   31 1   
    59   30   62 1   
    60   30   63 1   
    61   31   64 1   
    62   31   65 1   
    63   32   33 ar  
    64   32   34 ar  
    65   33   35 1   
    66   33   36 ar  
    67   34   37 ar  
    68   34   66 1   
    69   36   38 ar  
    70   36   67 1   
    71   37   38 ar  
    72   37   68 1   
    73   38   69 1   
@<TRIPOS>SUBSTRUCTURE
     1 BFX         1 TEMP              0 ****  ****    0 ROOT
