@<TRIPOS>MOLECULE
BFX
   70    74     1     0     0
SMALL
bcc


@<TRIPOS>ATOM
      1 BR1         0.2930    0.0760    0.1510 br        1 BFX     -0.059100
      2 C2          2.1510   -0.1430    0.0840 ca        1 BFX     -0.072900
      3 C3          2.9640   -0.2080    1.2380 ca        1 BFX      0.177100
      4 C4          2.7600   -0.2470   -1.1700 ca        1 BFX     -0.048000
      5 O5          2.3150   -0.0970    2.4500 os        1 BFX     -0.316900
      6 C6          4.3490   -0.3720    1.1300 ca        1 BFX     -0.252000
      7 C7          4.1340   -0.4110   -1.3010 ca        1 BFX     -0.196000
      8 C8          3.1320   -0.1910    3.6230 c3        1 BFX      0.129400
      9 C9          4.9320   -0.4740   -0.1460 ca        1 BFX      0.177900
     10 C10         2.1640   -0.0710    4.7890 c3        1 BFX     -0.084400
     11 F11         6.2700   -0.6330   -0.2530 f         1 BFX     -0.130900
     12 C12         2.9260   -0.0690    6.1000 c3        1 BFX     -0.047100
     13 C13         2.0050    0.0750    7.2600 ca        1 BFX     -0.038300
     14 C14         1.7950   -0.9920    8.1420 ca        1 BFX     -0.124000
     15 C15         1.3340    1.2860    7.4820 ca        1 BFX     -0.124000
     16 C16         0.9300   -0.8560    9.2250 ca        1 BFX     -0.109000
     17 C17         0.4600    1.4230    8.5560 ca        1 BFX     -0.109000
     18 C18         0.2540    0.3530    9.4410 ca        1 BFX     -0.155800
     19 C19        -0.7080    0.4850   10.5360 ce        1 BFX      0.093600
     20 C20        -0.4000    0.2890   11.8390 cf        1 BFX     -0.247400
     21 C21        -2.0900    0.8800   10.1380 c3        1 BFX     -0.063200
     22 C22         0.9300   -0.1410   12.2860 c         1 BFX      0.593300
     23 C23        -1.4220    0.3640   12.9420 c3        1 BFX      0.212000
     24 C24        -3.1230    0.6540   11.2410 c3        1 BFX      0.151800
     25 O25         1.3880   -1.2740   12.3080 o         1 BFX     -0.429100
     26 N26         1.9060    0.9160   12.8340 n4        1 BFX     -0.555200
     27 N27        -2.6350    1.0510   12.5480 n3        1 BFX     -0.823200
     28 C28         1.7060    1.0130   14.2900 cx        1 BFX      0.000500
     29 C29         2.0010    2.1230   11.9440 c3        1 BFX      0.169100
     30 C30         0.8820    2.0220   15.0560 cx        1 BFX     -0.095900
     31 C31         2.3740    2.0410   15.1770 cx        1 BFX     -0.095900
     32 C32         1.4530    3.4340   12.3910 ca        1 BFX     -0.151300
     33 C33         2.3010    4.5000   12.7420 ca        1 BFX      0.031400
     34 C34         0.0730    3.6690   12.3130 ca        1 BFX     -0.107000
     35 CL35        3.9910    4.3130   12.8020 cl        1 BFX     -0.071400
     36 C36         1.7700    5.7630   13.0310 ca        1 BFX     -0.117000
     37 C37        -0.4550    4.9230   12.6050 ca        1 BFX     -0.122000
     38 C38         0.3940    5.9710   12.9660 ca        1 BFX     -0.082000
     39 H4          2.1410   -0.1990   -2.0830 ha        1 BFX      0.159000
     40 H6          4.9980   -0.4240    2.0140 ha        1 BFX      0.154000
     41 H7          4.5990   -0.4920   -2.2940 ha        1 BFX      0.162000
     42 H8          3.8800    0.6450    3.6280 h1        1 BFX      0.045700
     43 H8A         3.6640   -1.1790    3.6370 h1        1 BFX      0.045700
     44 H10         1.4390   -0.9260    4.7580 hc        1 BFX      0.067200
     45 H10A        1.5700    0.8740    4.6820 hc        1 BFX      0.067200
     46 H12         3.6600    0.7820    6.1050 hc        1 BFX      0.060200
     47 H12A        3.5170   -1.0200    6.1900 hc        1 BFX      0.060200
     48 H14         2.3080   -1.9530    7.9740 ha        1 BFX      0.154500
     49 H15         1.4910    2.1290    6.7910 ha        1 BFX      0.154500
     50 H16         0.7630   -1.7090    9.9020 ha        1 BFX      0.146000
     51 H17        -0.0770    2.3720    8.7060 ha        1 BFX      0.146000
     52 H21        -2.4000    0.2970    9.2280 hc        1 BFX      0.088200
     53 H21A       -2.0680    1.9680    9.8500 hc        1 BFX      0.088200
     54 H23        -0.9900    0.9370   13.8150 h1        1 BFX      0.051200
     55 H23A       -1.6120   -0.6980   13.2890 h1        1 BFX      0.051200
     56 H24        -4.0340    1.2790   11.0170 h1        1 BFX      0.056700
     57 H24A       -3.4380   -0.4310   11.2160 h1        1 BFX      0.056700
     58 HN27       -3.3450    0.9160   13.2440 hn        1 BFX      0.390800
     59 H28         1.6780   -0.0390   14.6830 hx        1 BFX      0.128700
     60 H29         1.4810    1.8470   10.9730 hx        1 BFX      0.109700
     61 H29A        3.1040    2.2490   11.7160 hx        1 BFX      0.109700
     62 H30         0.3720    2.8540   14.5370 hc        1 BFX      0.108950
     63 H30A        0.2700    1.6270   15.8920 hc        1 BFX      0.108950
     64 H31         2.8610    1.6730   16.1010 hc        1 BFX      0.108950
     65 H31A        2.9340    2.8810   14.7240 hc        1 BFX      0.108950
     66 H34        -0.6030    2.8470   12.0180 ha        1 BFX      0.160000
     67 H36         2.4420    6.5940   13.3020 ha        1 BFX      0.171000
     68 H37        -1.5430    5.0880   12.5440 ha        1 BFX      0.161000
     69 H38        -0.0200    6.9670   13.1920 ha        1 BFX      0.163000
     70 H261        2.8420    0.4720   12.7610 hn        1 BFX      0.450800
@<TRIPOS>BOND
     1    1    2 1   
     2    2    3 ar  
     3    2    4 ar  
     4    3    5 1   
     5    3    6 ar  
     6    4    7 ar  
     7    4   39 1   
     8    5    8 1   
     9    6    9 ar  
    10    6   40 1   
    11    7    9 ar  
    12    7   41 1   
    13    8   10 1   
    14    8   42 1   
    15    8   43 1   
    16    9   11 1   
    17   10   12 1   
    18   10   44 1   
    19   10   45 1   
    20   12   13 1   
    21   12   46 1   
    22   12   47 1   
    23   13   14 ar  
    24   13   15 ar  
    25   14   16 ar  
    26   14   48 1   
    27   15   17 ar  
    28   15   49 1   
    29   16   18 ar  
    30   16   50 1   
    31   17   18 ar  
    32   17   51 1   
    33   18   19 1   
    34   19   20 2   
    35   19   21 1   
    36   20   22 1   
    37   20   23 1   
    38   21   24 1   
    39   21   52 1   
    40   21   53 1   
    41   22   25 2   
    42   22   26 1   
    43   23   27 1   
    44   23   54 1   
    45   23   55 1   
    46   24   27 1   
    47   24   56 1   
    48   24   57 1   
    49   26   28 1   
    50   26   29 1   
    51   26   70 1   
    52   27   58 1   
    53   28   30 1   
    54   28   31 1   
    55   28   59 1   
    56   29   32 1   
    57   29   60 1   
    58   29   61 1   
    59   30   31 1   
    60   30   62 1   
    61   30   63 1   
    62   31   64 1   
    63   31   65 1   
    64   32   33 ar  
    65   32   34 ar  
    66   33   35 1   
    67   33   36 ar  
    68   34   37 ar  
    69   34   66 1   
    70   36   38 ar  
    71   36   67 1   
    72   37   38 ar  
    73   37   68 1   
    74   38   69 1   
@<TRIPOS>SUBSTRUCTURE
     1 BFX         1 TEMP              0 ****  ****    0 ROOT
