@<TRIPOS>MOLECULE
BFZ
   51    53     1     0     0
SMALL
bcc


@<TRIPOS>ATOM
      1 CAT         1.2210    1.6220   -0.3560 c3        1 BFZ     -0.132600
      2 CAS         1.9510    0.3360   -0.0280 c3        1 BFZ      0.114800
      3 NAR         2.1610    0.1210    1.4420 nx        1 BFZ     -0.699400
      4 CAW         2.3810   -1.3370    1.7350 c3        1 BFZ      0.114800
      5 CAX         1.0860   -2.1130    1.8610 c3        1 BFZ     -0.132600
      6 CAQ         3.2920    0.9550    1.9510 c3        1 BFZ      0.083800
      7 CAP         3.2860    1.1900    3.4780 c3        1 BFZ      0.082000
      8 NAO         2.3650    2.1840    3.9740 n         1 BFZ     -0.402000
      9 C           1.0420    1.8290    4.2430 c         1 BFZ      0.714500
     10 O           0.5700    0.7990    3.7170 o         1 BFZ     -0.678500
     11 CA          0.2080    2.6830    5.1950 c3        1 BFZ      0.043800
     12 N           0.7870    2.8000    6.5010 n2        1 BFZ     -0.552900
     13 CAN         2.9030    3.4540    4.3250 ca        1 BFZ      0.056600
     14 CAV         3.6620    4.1600    3.3640 ca        1 BFZ     -0.157000
     15 CAZ         4.2240    5.3940    3.6620 ca        1 BFZ     -0.069000
     16 CAY         4.0510    5.9620    4.9280 ca        1 BFZ     -0.030900
     17 Br          4.8040    7.6220    5.3270 br        1 BFZ     -0.030100
     18 CAU         3.3110    5.2740    5.8890 ca        1 BFZ     -0.052000
     19 CAM         2.7350    4.0290    5.6050 ca        1 BFZ     -0.187900
     20 CAF         1.9310    3.3790    6.6700 ce        1 BFZ      0.544500
     21 CAE         2.5130    3.4570    8.0310 ca        1 BFZ     -0.189900
     22 CAL         1.9900    4.3590    8.9630 ca        1 BFZ     -0.080000
     23 CAK         2.5280    4.4410   10.2450 ca        1 BFZ     -0.136000
     24 CAJ         3.5880    3.6120   10.6140 ca        1 BFZ     -0.083000
     25 CAC         4.1150    2.6960    9.7090 ca        1 BFZ     -0.159000
     26 CAD         3.5760    2.6100    8.4110 ca        1 BFZ      0.147900
     27 FAA         4.0850    1.7060    7.5400 f         1 BFZ     -0.144900
     28 HAT1        1.0630    1.6560   -1.4640 hc        1 BFZ      0.077533
     29 HAT2        1.8080    2.5250   -0.0610 hc        1 BFZ      0.077533
     30 HAT3        0.2200    1.6650    0.1400 hc        1 BFZ      0.077533
     31 HAS1        2.9600    0.3190   -0.5290 hx        1 BFZ      0.096200
     32 HAS2        1.3480   -0.5380   -0.4110 hx        1 BFZ      0.096200
     33 HAW1        2.9480   -1.4130    2.7080 hx        1 BFZ      0.096200
     34 HAW2        3.0250   -1.7640    0.9150 hx        1 BFZ      0.096200
     35 HAQ1        4.2550    0.4310    1.6850 hx        1 BFZ      0.100700
     36 HAQ2        3.2620    1.9430    1.4090 hx        1 BFZ      0.100700
     37 HAX1        0.4280   -1.6790    2.6570 hc        1 BFZ      0.077533
     38 HAX2        0.5210   -2.1380    0.8980 hc        1 BFZ      0.077533
     39 HAX3        1.3380   -3.1650    2.1470 hc        1 BFZ      0.077533
     40 HAP1        3.0730    0.2150    4.0080 h1        1 BFZ      0.096200
     41 HAP2        4.3390    1.5090    3.7410 h1        1 BFZ      0.096200
     42 HA1C        0.0180    3.6840    4.7090 h1        1 BFZ      0.104200
     43 HA2C       -0.7840    2.1570    5.3300 h1        1 BFZ      0.104200
     44 HAV         3.8200    3.7380    2.3600 ha        1 BFZ      0.129000
     45 HAZ         4.8080    5.9220    2.8890 ha        1 BFZ      0.164000
     46 HAU         3.1700    5.7020    6.8990 ha        1 BFZ      0.174000
     47 HAL         1.1410    5.0010    8.6790 ha        1 BFZ      0.149000
     48 HAK         2.1100    5.1560   10.9700 ha        1 BFZ      0.153000
     49 HAJ         4.0100    3.6770   11.6300 ha        1 BFZ      0.153000
     50 HAC         4.9440    2.0320    9.9940 ha        1 BFZ      0.160000
     51 HAR1        1.2950    0.4120    1.9370 hn        1 BFZ      0.483800
@<TRIPOS>BOND
     1    1    2 1   
     2    1   28 1   
     3    1   29 1   
     4    1   30 1   
     5    2    3 1   
     6    2   31 1   
     7    2   32 1   
     8    3    4 1   
     9    3    6 1   
    10    3   51 1   
    11    4    5 1   
    12    4   33 1   
    13    4   34 1   
    14    5   37 1   
    15    5   38 1   
    16    5   39 1   
    17    6    7 1   
    18    6   35 1   
    19    6   36 1   
    20    7    8 1   
    21    7   40 1   
    22    7   41 1   
    23    8    9 1   
    24    8   13 1   
    25    9   10 2   
    26    9   11 1   
    27   11   12 1   
    28   11   42 1   
    29   11   43 1   
    30   12   20 2   
    31   13   14 ar  
    32   13   19 ar  
    33   14   15 ar  
    34   14   44 1   
    35   15   16 ar  
    36   15   45 1   
    37   16   17 1   
    38   16   18 ar  
    39   18   19 ar  
    40   18   46 1   
    41   19   20 1   
    42   20   21 1   
    43   21   22 ar  
    44   21   26 ar  
    45   22   23 ar  
    46   22   47 1   
    47   23   24 ar  
    48   23   48 1   
    49   24   25 ar  
    50   24   49 1   
    51   25   26 ar  
    52   25   50 1   
    53   26   27 1   
@<TRIPOS>SUBSTRUCTURE
     1 BFZ         1 TEMP              0 ****  ****    0 ROOT
