@<TRIPOS>MOLECULE
BFZ
   51    53     1     0     0
SMALL
bcc


@<TRIPOS>ATOM
      1 CAT         1.1660    1.6200   -0.3420 c3        1 BFZ     -0.132600
      2 CAS         1.9460    0.3580   -0.0360 c3        1 BFZ      0.114800
      3 NAR         2.1870    0.1380    1.4280 n4        1 BFZ     -0.699400
      4 CAW         2.4620   -1.3140    1.7050 c3        1 BFZ      0.114800
      5 CAX         1.1970   -2.1360    1.8430 c3        1 BFZ     -0.132600
      6 CAQ         3.2960    1.0070    1.9270 c3        1 BFZ      0.083800
      7 CAP         3.3050    1.2280    3.4560 c3        1 BFZ      0.082000
      8 NAO         2.3570    2.1850    3.9750 n         1 BFZ     -0.402000
      9 C           1.0520    1.7810    4.2620 c         1 BFZ      0.714500
     10 O           0.6080    0.7400    3.7340 o         1 BFZ     -0.678500
     11 CA          0.2030    2.5970    5.2330 c3        1 BFZ      0.043800
     12 N           0.7990    2.7240    6.5320 n2        1 BFZ     -0.552900
     13 CAN         2.8560    3.4700    4.3290 ca        1 BFZ      0.056600
     14 CAV         3.5740    4.2100    3.3620 ca        1 BFZ     -0.157000
     15 CAZ         4.0960    5.4620    3.6630 ca        1 BFZ     -0.069000
     16 CAY         3.9230    6.0130    4.9370 ca        1 BFZ     -0.030900
     17 BR          4.6230    7.6950    5.3390 br        1 BFZ     -0.030100
     18 CAU         3.2240    5.2900    5.9020 ca        1 BFZ     -0.052000
     19 CAM         2.6870    4.0280    5.6170 ca        1 BFZ     -0.187900
     20 CAF         1.9240    3.3410    6.6880 ce        1 BFZ      0.544500
     21 CAE         2.5240    3.4290    8.0410 ca        1 BFZ     -0.189900
     22 CAL         1.9830    4.3030    8.9890 ca        1 BFZ     -0.080000
     23 CAK         2.5380    4.3930   10.2630 ca        1 BFZ     -0.136000
     24 CAJ         3.6340    3.6000   10.6080 ca        1 BFZ     -0.083000
     25 CAC         4.1790    2.7120    9.6860 ca        1 BFZ     -0.159000
     26 CAD         3.6230    2.6170    8.3960 ca        1 BFZ      0.147900
     27 FAA         4.1510    1.7400    7.5080 f         1 BFZ     -0.144900
     28 HAT1        0.1720    1.6240    0.1690 hc        1 BFZ      0.077533
     29 HAT2        0.9900    1.6570   -1.4470 hc        1 BFZ      0.077533
     30 HAT3        1.7250    2.5410   -0.0480 hc        1 BFZ      0.077533
     31 HAS1        1.3680   -0.5340   -0.4180 hx        1 BFZ      0.096200
     32 HAS2        2.9470    0.3800   -0.5530 hx        1 BFZ      0.096200
     33 HAW1        3.0460   -1.3780    2.6680 hx        1 BFZ      0.096200
     34 HAW2        3.1080   -1.7110    0.8720 hx        1 BFZ      0.096200
     35 HAQ1        3.2230    1.9980    1.3940 hx        1 BFZ      0.100700
     36 HAQ2        4.2720    0.5190    1.6420 hx        1 BFZ      0.100700
     37 HAX1        1.4900   -3.1810    2.1160 hc        1 BFZ      0.077533
     38 HAX2        0.5370   -1.7320    2.6520 hc        1 BFZ      0.077533
     39 HAX3        0.6180   -2.1730    0.8880 hc        1 BFZ      0.077533
     40 HAP1        4.3500    1.5830    3.7050 h1        1 BFZ      0.096200
     41 HAP2        3.1350    0.2420    3.9810 h1        1 BFZ      0.096200
     42 HA1C       -0.0290    3.5950    4.7590 h1        1 BFZ      0.104200
     43 HA2C       -0.7670    2.0350    5.3800 h1        1 BFZ      0.104200
     44 HAV         3.7310    3.8040    2.3520 ha        1 BFZ      0.129000
     45 HAZ         4.6490    6.0170    2.8860 ha        1 BFZ      0.164000
     46 HAU         3.0830    5.7040    6.9180 ha        1 BFZ      0.174000
     47 HAL         1.1080    4.9160    8.7240 ha        1 BFZ      0.149000
     48 HAK         2.1070    5.0860   11.0010 ha        1 BFZ      0.153000
     49 HAJ         4.0690    3.6710   11.6170 ha        1 BFZ      0.153000
     50 HAC         5.0370    2.0750    9.9520 ha        1 BFZ      0.160000
     51 HAR1        1.3180    0.3940    1.9380 hn        1 BFZ      0.483800
@<TRIPOS>BOND
     1    1    2 1   
     2    1   28 1   
     3    1   29 1   
     4    1   30 1   
     5    2    3 1   
     6    2   31 1   
     7    2   32 1   
     8    3    4 1   
     9    3    6 1   
    10    3   51 1   
    11    4    5 1   
    12    4   33 1   
    13    4   34 1   
    14    5   37 1   
    15    5   38 1   
    16    5   39 1   
    17    6    7 1   
    18    6   35 1   
    19    6   36 1   
    20    7    8 1   
    21    7   40 1   
    22    7   41 1   
    23    8    9 1   
    24    8   13 1   
    25    9   10 2   
    26    9   11 1   
    27   11   12 1   
    28   11   42 1   
    29   11   43 1   
    30   12   20 2   
    31   13   14 ar  
    32   13   19 ar  
    33   14   15 ar  
    34   14   44 1   
    35   15   16 ar  
    36   15   45 1   
    37   16   17 1   
    38   16   18 ar  
    39   18   19 ar  
    40   18   46 1   
    41   19   20 1   
    42   20   21 1   
    43   21   22 ar  
    44   21   26 ar  
    45   22   23 ar  
    46   22   47 1   
    47   23   24 ar  
    48   23   48 1   
    49   24   25 ar  
    50   24   49 1   
    51   25   26 ar  
    52   25   50 1   
    53   26   27 1   
@<TRIPOS>SUBSTRUCTURE
     1 BFZ         1 TEMP              0 ****  ****    0 ROOT
