@<TRIPOS>MOLECULE
BFZ
   50    48     1     0     0
SMALL
bcc


@<TRIPOS>ATOM
      1 CAT        -4.0300   -1.5380   -1.9450 c3        1 BFZ     -0.219500
      2 CAS        -2.9810   -1.2220   -3.0620 c3        1 BFZ     -0.057500
      3 NAR        -1.6930   -1.6720   -2.6470 n3        1 BFZ     -0.276000
      4 CAW        -1.1740   -2.5590   -3.6160 c3        1 BFZ     -0.057500
      5 CAX        -1.5870   -3.9620   -3.2820 c3        1 BFZ     -0.219500
      6 CAQ        -0.7780   -0.4950   -2.5020 c3        1 BFZ     -0.086000
      7 CAP        -0.0010   -0.5870   -1.1100 c3        1 BFZ     -0.032000
      8 NAO         0.3150    0.7550   -0.6340 n         1 BFZ     -0.290000
      9 C          -0.6560    1.7920   -0.4010 c2        1 BFZ      0.297000
     10 O          -1.8230    1.6580   -0.5340 o         1 BFZ     -0.336000
     11 CA          0.0270    3.0980    0.0490 c3        1 BFZ     -0.119000
     12 N           0.2910    2.9630    1.4180 n2        1 BFZ     -0.143000
     13 CAN         1.6300    1.2040   -0.3090 c2        1 BFZ      0.109000
     14 CAV         2.6800    1.1530   -1.2580 c2        1 BFZ     -0.171000
     15 CAZ         3.9950    0.9090   -0.8350 c1        1 BFZ     -0.070000
     16 CAY         4.2700    0.7150    0.5330 c1        1 BFZ     -0.194000
     17 BR          6.0520    0.3200    1.1050 br        1 BFZ      0.066000
     18 CAU         3.2260    0.7660    1.4730 c1        1 BFZ     -0.052000
     19 CAM         1.9040    1.0110    1.0480 c1        1 BFZ     -0.129000
     20 CAF         0.9190    1.7650    1.9160 c2        1 BFZ      0.077000
     21 CAE         0.7220    1.3490    3.3840 c2        1 BFZ     -0.091000
     22 CAL        -0.0420    0.2330    3.6900 c2        1 BFZ     -0.080000
     23 CAK        -0.2580   -0.1180    5.0180 c1        1 BFZ     -0.148000
     24 CAJ         0.2900    0.6460    6.0350 c1        1 BFZ     -0.132500
     25 CAC         1.0560    1.7640    5.7280 c1        1 BFZ     -0.132500
     26 CAD         1.2710    2.1150    4.4030 c1        1 BFZ      0.123000
     27 FAA         2.0200    3.1700    4.1110 f         1 BFZ     -0.094000
     28 HAT1       -4.2560   -0.6920   -1.4450 hc        1 BFZ      0.082500
     29 HAT2       -3.6500   -2.2040   -1.3150 hc        1 BFZ      0.082500
     30 HAT3       -4.8720   -1.9160   -2.3720 hc        1 BFZ      0.082500
     31 HAS1       -2.9530   -0.2710   -3.2200 h1        1 BFZ      0.066250
     32 HAS2       -3.2440   -1.6940   -3.9080 h1        1 BFZ      0.066250
     33 HAW1       -1.5320   -2.3110   -4.5230 h1        1 BFZ      0.066250
     34 HAW2       -0.1800   -2.4990   -3.6240 h1        1 BFZ      0.066250
     35 HAQ1       -0.1230   -0.4910   -3.2480 h1        1 BFZ      0.085000
     36 HAQ2       -1.3190    0.3520   -2.5270 h1        1 BFZ      0.085000
     37 HAX1       -0.8690   -4.5730   -3.5140 hc        1 BFZ      0.082500
     38 HAX2       -2.4100   -4.2010   -3.7990 hc        1 BFZ      0.082500
     39 HAX3       -1.7770   -4.0270   -2.3030 hc        1 BFZ      0.082500
     40 HAP1       -0.5890   -1.0640   -0.4250 h1        1 BFZ      0.112000
     41 HAP2        0.8590   -1.1050   -1.2370 h1        1 BFZ      0.112000
     42 HA1C       -0.5850    3.8530   -0.2410 h1        1 BFZ      0.130500
     43 HA2C        0.8630    3.3260   -0.4200 h1        1 BFZ      0.130500
     44 HAV         2.4850    1.2900   -2.2260 ha        1 BFZ      0.150000
     45 HAZ         4.7260    0.8700   -1.4950 ha        1 BFZ      0.152000
     46 HAU         3.4180    0.6300    2.4290 ha        1 BFZ      0.160000
     47 HAL        -0.4270   -0.3060    2.9740 ha        1 BFZ      0.146000
     48 HAK        -0.8050   -0.9160    5.2380 ha        1 BFZ      0.141000
     49 HAJ         0.1390    0.4000    6.9650 ha        1 BFZ      0.146000
     50 HAC         1.4520    2.3160    6.4610 ha        1 BFZ      0.146000
@<TRIPOS>BOND
     1    1    2 1   
     2    1   28 1   
     3    1   29 1   
     4    1   30 1   
     5    2    3 1   
     6    2   31 1   
     7    2   32 1   
     8    3    4 1   
     9    3    6 1   
    10    4    5 1   
    11    4   33 1   
    12    4   34 1   
    13    5   37 1   
    14    5   38 1   
    15    5   39 1   
    16    6    7 1   
    17    6   35 1   
    18    6   36 1   
    19    7    8 1   
    20    7   40 1   
    21    7   41 1   
    22    8    9 1   
    23    8   13 1   
    24    9   10 1   
    25    9   11 1   
    26   11   12 1   
    27   11   42 1   
    28   11   43 1   
    29   12   20 1   
    30   13   14 1   
    31   13   19 1   
    32   14   15 1   
    33   14   44 1   
    34   15   45 1   
    35   16   17 1   
    36   16   18 1   
    37   18   46 1   
    38   19   20 1   
    39   20   21 1   
    40   21   22 1   
    41   21   26 1   
    42   22   23 1   
    43   22   47 1   
    44   23   48 1   
    45   24   25 1   
    46   24   49 1   
    47   25   50 1   
    48   26   27 1   
@<TRIPOS>SUBSTRUCTURE
     1 BFZ         1 TEMP              0 ****  ****    0 ROOT
