@<TRIPOS>MOLECULE
BFZ
   50    52     1     0     0
SMALL
bcc


@<TRIPOS>ATOM
      1 CAT         6.6700    1.3190    0.2330 c3        1 BFZ     -0.096100
      2 CAS         6.2970   -0.1470    0.0730 c3        1 BFZ      0.178800
      3 NAR         4.9700   -0.3590   -0.4870 n3        1 BFZ     -0.748600
      4 CAW         4.8150   -1.6570   -1.1280 c3        1 BFZ      0.178800
      5 CAX         5.5160   -1.7710   -2.4730 c3        1 BFZ     -0.096100
      6 CAQ         3.8960   -0.0610    0.4460 c3        1 BFZ      0.147800
      7 CAP         2.7010    0.6160   -0.2730 c3        1 BFZ      0.087000
      8 NAO         1.5220    0.7880    0.5600 n         1 BFZ     -0.385000
      9 C           1.5820    1.7220    1.6010 c         1 BFZ      0.691500
     10 O           2.6360    2.3360    1.8320 o         1 BFZ     -0.607500
     11 CA          0.3240    2.0040    2.4220 c3        1 BFZ      0.033800
     12 N          -0.8030    2.4220    1.6430 n2        1 BFZ     -0.558900
     13 CAN         0.4650   -0.1350    0.4150 ca        1 BFZ      0.107600
     14 CAV         0.7630   -1.4960    0.1430 ca        1 BFZ     -0.171000
     15 CAZ        -0.2410   -2.4320   -0.0440 ca        1 BFZ     -0.069000
     16 CAY        -1.5850   -2.0500    0.0320 ca        1 BFZ     -0.053900
     17 BR         -2.9410   -3.3150   -0.2090 br        1 BFZ     -0.076100
     18 CAU        -1.9010   -0.7190    0.2870 ca        1 BFZ     -0.055000
     19 CAM        -0.8990    0.2420    0.4790 ca        1 BFZ     -0.210900
     20 CAF        -1.3250    1.6310    0.7620 ce        1 BFZ      0.534500
     21 CAE        -2.4860    2.1080   -0.0310 ca        1 BFZ     -0.169900
     22 CAL        -3.7630    2.1090    0.5390 ca        1 BFZ     -0.087000
     23 CAK        -4.8640    2.5500   -0.1910 ca        1 BFZ     -0.146000
     24 CAJ        -4.6990    3.0060   -1.4990 ca        1 BFZ     -0.095000
     25 CAC        -3.4370    3.0290   -2.0830 ca        1 BFZ     -0.168000
     26 CAD        -2.3190    2.5840   -1.3490 ca        1 BFZ      0.155900
     27 FAA        -1.0960    2.6230   -1.9260 f         1 BFZ     -0.129900
     28 HAT1        7.7200    1.3800    0.6080 hc        1 BFZ      0.040867
     29 HAT2        6.6060    1.8560   -0.7430 hc        1 BFZ      0.040867
     30 HAT3        6.0020    1.8370    0.9620 hc        1 BFZ      0.040867
     31 HAS1        7.0460   -0.6230   -0.6220 h1        1 BFZ      0.026200
     32 HAS2        6.4030   -0.6570    1.0760 h1        1 BFZ      0.026200
     33 HAW1        5.1840   -2.4910   -0.4590 h1        1 BFZ      0.026200
     34 HAW2        3.7130   -1.8310   -1.2980 h1        1 BFZ      0.026200
     35 HAQ1        3.5420   -0.9910    0.9800 h1        1 BFZ      0.046700
     36 HAQ2        4.2640    0.6550    1.2360 h1        1 BFZ      0.046700
     37 HAX1        5.2070   -0.9460   -3.1580 hc        1 BFZ      0.040867
     38 HAX2        6.6260   -1.7370   -2.3610 hc        1 BFZ      0.040867
     39 HAX3        5.2390   -2.7470   -2.9380 hc        1 BFZ      0.040867
     40 HAP1        3.0300    1.6460   -0.5990 h1        1 BFZ      0.073200
     41 HAP2        2.4100    0.0320   -1.1900 h1        1 BFZ      0.073200
     42 HA1C        0.0990    1.0930    3.0490 h1        1 BFZ      0.089200
     43 HA2C        0.5680    2.8620    3.1150 h1        1 BFZ      0.089200
     44 HAV         1.8130   -1.8270    0.0760 ha        1 BFZ      0.150000
     45 HAZ         0.0290   -3.4810   -0.2490 ha        1 BFZ      0.152000
     46 HAU        -2.9560   -0.3970    0.3400 ha        1 BFZ      0.158000
     47 HAL        -3.8910    1.7630    1.5760 ha        1 BFZ      0.144000
     48 HAK        -5.8640    2.5430    0.2680 ha        1 BFZ      0.141000
     49 HAJ        -5.5700    3.3560   -2.0740 ha        1 BFZ      0.140000
     50 HAC        -3.2950    3.3950   -3.1100 ha        1 BFZ      0.152000
@<TRIPOS>BOND
     1    1    2 1   
     2    1   28 1   
     3    1   29 1   
     4    1   30 1   
     5    2    3 1   
     6    2   31 1   
     7    2   32 1   
     8    3    4 1   
     9    3    6 1   
    10    4    5 1   
    11    4   33 1   
    12    4   34 1   
    13    5   37 1   
    14    5   38 1   
    15    5   39 1   
    16    6    7 1   
    17    6   35 1   
    18    6   36 1   
    19    7    8 1   
    20    7   40 1   
    21    7   41 1   
    22    8    9 1   
    23    8   13 1   
    24    9   10 2   
    25    9   11 1   
    26   11   12 1   
    27   11   42 1   
    28   11   43 1   
    29   12   20 2   
    30   13   14 ar  
    31   13   19 ar  
    32   14   15 ar  
    33   14   44 1   
    34   15   16 ar  
    35   15   45 1   
    36   16   17 1   
    37   16   18 ar  
    38   18   19 ar  
    39   18   46 1   
    40   19   20 1   
    41   20   21 1   
    42   21   22 ar  
    43   21   26 ar  
    44   22   23 ar  
    45   22   47 1   
    46   23   24 ar  
    47   23   48 1   
    48   24   25 ar  
    49   24   49 1   
    50   25   26 ar  
    51   25   50 1   
    52   26   27 1   
@<TRIPOS>SUBSTRUCTURE
     1 BFZ         1 TEMP              0 ****  ****    0 ROOT
