@<TRIPOS>MOLECULE
BFZ
   51    53     1     0     0
SMALL
bcc


@<TRIPOS>ATOM
      1 CAT         1.1800    1.6170   -0.3440 c3        1 BFZ     -0.132600
      2 CAS         1.9290    0.3390   -0.0260 c3        1 BFZ      0.114800
      3 NAR         2.1560    0.1230    1.4410 n4        1 BFZ     -0.699400
      4 CAW         2.3960   -1.3330    1.7280 c3        1 BFZ      0.114800
      5 CAX         1.1110   -2.1240    1.8650 c3        1 BFZ     -0.132600
      6 CAQ         3.2820    0.9690    1.9400 c3        1 BFZ      0.083800
      7 CAP         3.2890    1.2000    3.4680 c3        1 BFZ      0.082000
      8 NAO         2.3620    2.1840    3.9750 n         1 BFZ     -0.402000
      9 C           1.0460    1.8140    4.2560 c         1 BFZ      0.714500
     10 O           0.5790    0.7800    3.7330 o         1 BFZ     -0.678500
     11 CA          0.2110    2.6570    5.2170 c3        1 BFZ      0.043800
     12 N           0.8010    2.7780    6.5190 n2        1 BFZ     -0.552900
     13 CAN         2.8890    3.4590    4.3230 ca        1 BFZ      0.056600
     14 CAV         3.6310    4.1740    3.3570 ca        1 BFZ     -0.157000
     15 CAZ         4.1830    5.4140    3.6510 ca        1 BFZ     -0.069000
     16 CAY         4.0150    5.9780    4.9210 ca        1 BFZ     -0.030900
     17 BR          4.7540    7.6460    5.3160 br        1 BFZ     -0.030100
     18 CAU         3.2920    5.2800    5.8870 ca        1 BFZ     -0.052000
     19 CAM         2.7270    4.0290    5.6060 ca        1 BFZ     -0.187900
     20 CAF         1.9410    3.3690    6.6770 ce        1 BFZ      0.544500
     21 CAE         2.5350    3.4510    8.0330 ca        1 BFZ     -0.189900
     22 CAL         2.0090    4.3440    8.9720 ca        1 BFZ     -0.080000
     23 CAK         2.5580    4.4290   10.2490 ca        1 BFZ     -0.136000
     24 CAJ         3.6320    3.6120   10.6060 ca        1 BFZ     -0.083000
     25 CAC         4.1620    2.7050    9.6940 ca        1 BFZ     -0.159000
     26 CAD         3.6110    2.6150    8.4010 ca        1 BFZ      0.147900
     27 FAA         4.1230    1.7200    7.5220 f         1 BFZ     -0.144900
     28 HAT1        1.0100    1.6510   -1.4500 hc        1 BFZ      0.077533
     29 HAT2        1.7590    2.5260   -0.0530 hc        1 BFZ      0.077533
     30 HAT3        0.1830    1.6470    0.1620 hc        1 BFZ      0.077533
     31 HAS1        2.9320    0.3350   -0.5380 hx        1 BFZ      0.096200
     32 HAS2        1.3320   -0.5410   -0.4060 hx        1 BFZ      0.096200
     33 HAW1        3.0370   -1.7500    0.9010 hx        1 BFZ      0.096200
     34 HAW2        2.9740   -1.4040    2.6950 hx        1 BFZ      0.096200
     35 HAQ1        4.2480    0.4570    1.6640 hx        1 BFZ      0.100700
     36 HAQ2        3.2350    1.9580    1.4000 hx        1 BFZ      0.100700
     37 HAX1        1.3790   -3.1740    2.1460 hc        1 BFZ      0.077533
     38 HAX2        0.4570   -1.7000    2.6680 hc        1 BFZ      0.077533
     39 HAX3        0.5370   -2.1540    0.9070 hc        1 BFZ      0.077533
     40 HAP1        3.0910    0.2220    3.9980 h1        1 BFZ      0.096200
     41 HAP2        4.3400    1.5310    3.7210 h1        1 BFZ      0.096200
     42 HA1C       -0.7740    2.1200    5.3610 h1        1 BFZ      0.104200
     43 HA2C        0.0060    3.6560    4.7350 h1        1 BFZ      0.104200
     44 HAV         3.7840    3.7570    2.3500 ha        1 BFZ      0.129000
     45 HAZ         4.7530    5.9510    2.8740 ha        1 BFZ      0.164000
     46 HAU         3.1560    5.7040    6.8990 ha        1 BFZ      0.174000
     47 HAL         1.1500    4.9760    8.6980 ha        1 BFZ      0.149000
     48 HAK         2.1390    5.1380   10.9800 ha        1 BFZ      0.153000
     49 HAJ         4.0630    3.6800   11.6180 ha        1 BFZ      0.153000
     50 HAC         5.0020    2.0500    9.9690 ha        1 BFZ      0.160000
     51 HAR1        1.2910    0.4030    1.9450 hn        1 BFZ      0.483800
@<TRIPOS>BOND
     1    1    2 1   
     2    1   28 1   
     3    1   29 1   
     4    1   30 1   
     5    2    3 1   
     6    2   31 1   
     7    2   32 1   
     8    3    4 1   
     9    3    6 1   
    10    3   51 1   
    11    4    5 1   
    12    4   33 1   
    13    4   34 1   
    14    5   37 1   
    15    5   38 1   
    16    5   39 1   
    17    6    7 1   
    18    6   35 1   
    19    6   36 1   
    20    7    8 1   
    21    7   40 1   
    22    7   41 1   
    23    8    9 1   
    24    8   13 1   
    25    9   10 2   
    26    9   11 1   
    27   11   12 1   
    28   11   42 1   
    29   11   43 1   
    30   12   20 2   
    31   13   14 ar  
    32   13   19 ar  
    33   14   15 ar  
    34   14   44 1   
    35   15   16 ar  
    36   15   45 1   
    37   16   17 1   
    38   16   18 ar  
    39   18   19 ar  
    40   18   46 1   
    41   19   20 1   
    42   20   21 1   
    43   21   22 ar  
    44   21   26 ar  
    45   22   23 ar  
    46   22   47 1   
    47   23   24 ar  
    48   23   48 1   
    49   24   25 ar  
    50   24   49 1   
    51   25   26 ar  
    52   25   50 1   
    53   26   27 1   
@<TRIPOS>SUBSTRUCTURE
     1 BFZ         1 TEMP              0 ****  ****    0 ROOT
