@<TRIPOS>MOLECULE
BG1
   40    39     1     0     0
SMALL
bcc


@<TRIPOS>ATOM
      1 N           1.9950    1.6790    0.9200 n3        1 BG1     -0.918800
      2 CA          2.9640    0.5940    0.9200 c3        1 BG1     -0.012500
      3 CB          2.7670   -0.4010   -0.2230 c3        1 BG1      0.149400
      4 OG          1.4850   -1.0560   -0.1120 os        1 BG1     -0.442900
      5 C           4.4670    1.0480    0.8800 c         1 BG1      0.898600
      6 O           4.7130    2.2680    1.0810 o         1 BG1     -0.831800
      7 C1         -2.2520   -4.6040   -1.0350 c3        1 BG1     -0.092100
      8 C3         -1.0760   -2.4100   -0.9450 c3        1 BG1     -0.077400
      9 C4         -0.9070   -1.0820   -0.1900 c3        1 BG1      0.184500
     10 C5          0.4090   -0.4520   -0.6710 c         1 BG1      0.612100
     11 C7         -0.9280    2.9210    0.3300 c3        1 BG1      0.205100
     12 N1         -2.0150   -0.1660   -0.2820 n3        1 BG1     -0.790500
     13 O1          0.5510    0.4710   -1.4780 o         1 BG1     -0.560000
     14 S          -2.4060    0.7930    1.0090 s6        1 BG1      1.554800
     15 OXT         5.3300    0.1540    0.6670 o         1 BG1     -0.831800
     16 HN1         2.4130    2.4520    1.4150 hn        1 BG1      0.344800
     17 HN2A        1.8400    1.9840   -0.0250 hn        1 BG1      0.344800
     18 HA          2.8250    0.0440    1.8960 h1        1 BG1      0.054700
     19 HB1         2.8650    0.0850   -1.2260 h1        1 BG1      0.077200
     20 HB2         3.5010   -1.2440   -0.1160 h1        1 BG1      0.077200
     21 H11        -1.2980   -5.1600   -0.8620 hc        1 BG1      0.030033
     22 H12        -3.0930   -5.2050   -0.6140 hc        1 BG1      0.030033
     23 H13        -2.4040   -4.5060   -2.1370 hc        1 BG1      0.030033
     24 H21        -3.1810   -2.7200   -0.5350 hc        1 BG1      0.048700
     25 H22        -2.0630   -3.3660    0.7270 hc        1 BG1      0.048700
     26 H31        -0.1050   -2.9670   -0.8470 hc        1 BG1      0.058200
     27 H32        -1.2480   -2.2150   -2.0350 hc        1 BG1      0.058200
     28 H4         -0.7670   -1.3330    0.9100 h1        1 BG1      0.099700
     29 H61        -3.1090   -0.8600   -1.9400 h1        1 BG1      0.047367
     30 H62        -3.3060    0.9070   -1.5390 h1        1 BG1      0.047367
     31 H63        -1.7610    0.3120   -2.3230 h1        1 BG1      0.047367
     32 H71        -0.3710    2.6030   -0.5970 h1        1 BG1      0.047033
     33 H72        -1.9050    3.3910    0.0340 h1        1 BG1      0.047033
     34 H73        -0.3050    3.6860    0.8650 h1        1 BG1      0.047033
     35 HN2        -0.3970    1.5910    1.7810 hn        1 BG1      0.479800
     36 C6         -2.5690    0.0590   -1.5830 c3        1 BG1      0.196100
     37 C2         -2.2030   -3.2460   -0.3810 c3        1 BG1     -0.081400
     38 N2         -1.1700    1.8050    1.1880 n3        1 BG1     -0.909100
     39 O2         -3.5990    1.5070    0.6850 o         1 BG1     -0.658800
     40 O3         -2.4980   -0.0240    2.1730 o         1 BG1     -0.658800
@<TRIPOS>BOND
     1    1    2 1   
     2    1   16 1   
     3    1   17 1   
     4    2    3 1   
     5    2    5 1   
     6    2   18 1   
     7    3    4 1   
     8    3   19 1   
     9    3   20 1   
    10    4   10 1   
    11    5    6 1   
    12    5   15 1   
    13    7   21 1   
    14    7   22 1   
    15    7   23 1   
    16    7   37 1   
    17    8    9 1   
    18    8   26 1   
    19    8   27 1   
    20    8   37 1   
    21    9   10 1   
    22    9   12 1   
    23    9   28 1   
    24   10   13 2   
    25   11   32 1   
    26   11   33 1   
    27   11   34 1   
    28   11   38 1   
    29   12   14 1   
    30   12   36 1   
    31   14   38 1   
    32   14   39 2   
    33   14   40 2   
    34   24   37 1   
    35   25   37 1   
    36   29   36 1   
    37   30   36 1   
    38   31   36 1   
    39   35   38 1   
@<TRIPOS>SUBSTRUCTURE
     1 BG1         1 TEMP              0 ****  ****    0 ROOT
