@<TRIPOS>MOLECULE
BG2
   34    36     1     0     0
SMALL
bcc


@<TRIPOS>ATOM
      1 BR         -0.0370   -0.9970   -0.1970 br        1 BG2     -0.013200
      2 N1          5.9390    0.4730    1.4370 n         1 BG2     -0.502400
      3 C2          6.1100    0.3410    0.0580 cc        1 BG2      0.509800
      4 N2          7.4870    0.5800   -0.4890 n4        1 BG2     -0.797600
      5 N3          5.1880    0.0260   -0.8520 nd        1 BG2     -0.525100
      6 C4          3.9210   -0.1820   -0.3250 cd        1 BG2      0.028800
      7 C5          3.6080   -0.0750    1.0800 cc        1 BG2      0.284800
      8 C6          4.6510    0.2660    2.0390 c         1 BG2      0.648000
      9 O6          4.5780    0.3970    3.2590 o         1 BG2     -0.498500
     10 N7          2.2690   -0.3310    1.2900 nc        1 BG2     -0.542000
     11 C8          1.7560   -0.5920    0.0500 cd        1 BG2      0.489700
     12 N9          2.7270   -0.5360   -0.9740 na        1 BG2     -0.141900
     13 C1'         2.6140   -0.6520   -2.4230 c3        1 BG2      0.207800
     14 C2'         1.8050   -1.8830   -2.9440 c3        1 BG2      0.085100
     15 O2'         2.6660   -2.7360   -3.6530 oh        1 BG2     -0.574800
     16 C3'         0.6930   -1.2760   -3.8310 c3        1 BG2      0.090100
     17 O3'         0.8350   -1.7410   -5.1590 oh        1 BG2     -0.583800
     18 C4'         0.9430    0.2390   -3.8530 c3        1 BG2      0.087100
     19 O4'         2.0350    0.5360   -2.9610 os        1 BG2     -0.419600
     20 C5'        -0.2740    1.0590   -3.4260 c3        1 BG2      0.124400
     21 O5'        -0.0340    2.4360   -3.5970 oh        1 BG2     -0.573800
     22 HN2         7.7800    1.5400   -0.2710 hn        1 BG2      0.483467
     23 HN2A        7.4820    0.4540   -1.5130 hn        1 BG2      0.483467
     24 H1'         3.6720   -0.7040   -2.8290 h2        1 BG2      0.110700
     25 H2'         1.3900   -2.5200   -2.1170 h1        1 BG2      0.111700
     26 HO2'        2.8030   -2.3700   -4.5420 ho        1 BG2      0.431000
     27 H3'        -0.3230   -1.5210   -3.4240 h1        1 BG2      0.079700
     28 HO3'        0.4620   -2.6330   -5.1940 ho        1 BG2      0.431000
     29 H4'         1.2890    0.5730   -4.8740 h1        1 BG2      0.113700
     30 H5'        -0.5490    0.8340   -2.3630 h1        1 BG2      0.063200
     31 H5'A       -1.1370    0.8270   -4.1080 h1        1 BG2      0.063200
     32 HO5'        0.6940    2.6770   -3.0100 ho        1 BG2      0.409000
     33 H23         8.1430   -0.0910   -0.0710 hn        1 BG2      0.483467
     34 HN1         6.6930    0.7170    2.0430 hn        1 BG2      0.351500
@<TRIPOS>BOND
     1    1   11 1   
     2    2    3 1   
     3    2    8 1   
     4    2   34 1   
     5    3    4 1   
     6    3    5 2   
     7    4   22 1   
     8    4   23 1   
     9    4   33 1   
    10    5    6 1   
    11    6    7 2   
    12    6   12 1   
    13    7    8 1   
    14    7   10 1   
    15    8    9 2   
    16   10   11 2   
    17   11   12 1   
    18   12   13 1   
    19   13   14 1   
    20   13   19 1   
    21   13   24 1   
    22   14   15 1   
    23   14   16 1   
    24   14   25 1   
    25   15   26 1   
    26   16   17 1   
    27   16   18 1   
    28   16   27 1   
    29   17   28 1   
    30   18   19 1   
    31   18   20 1   
    32   18   29 1   
    33   20   21 1   
    34   20   30 1   
    35   20   31 1   
    36   21   32 1   
@<TRIPOS>SUBSTRUCTURE
     1 BG2         1 TEMP              0 ****  ****    0 ROOT
