@<TRIPOS>MOLECULE
BG2
   34    36     1     0     0
SMALL
bcc


@<TRIPOS>ATOM
      1 Br          0.0240   -0.7920   -0.1940 br        1 BG2     -0.012200
      2 N1          6.0730    0.1360    1.5630 ns        1 BG2     -0.503400
      3 C2          6.2420    0.1100    0.1780 cc        1 BG2      0.505800
      4 N2          7.6380    0.2810   -0.3470 nz        1 BG2     -0.796600
      5 N3          5.3030   -0.0500   -0.7550 nd        1 BG2     -0.523100
      6 C4          4.0230   -0.2090   -0.2470 cd        1 BG2      0.027800
      7 C5          3.7100   -0.2040    1.1630 cc        1 BG2      0.284800
      8 C6          4.7700   -0.0220    2.1470 c         1 BG2      0.648000
      9 O6          4.7000    0.0130    3.3730 o         1 BG2     -0.501500
     10 N7          2.3570   -0.3900    1.3520 nc        1 BG2     -0.545000
     11 C8          1.8340   -0.5100    0.0940 cd        1 BG2      0.492700
     12 N9          2.8100   -0.4220   -0.9220 na        1 BG2     -0.136900
     13 C1'         2.6870   -0.4300   -2.3730 c3        1 BG2      0.201800
     14 C2'         1.9460   -1.6750   -2.9730 c3        1 BG2      0.129100
     15 O2'         2.8860   -2.4460   -3.6730 oh        1 BG2     -0.576800
     16 C3'         0.8060   -1.0710   -3.8180 c3        1 BG2      0.099100
     17 O3'         0.9280   -1.5580   -5.1370 oh        1 BG2     -0.599800
     18 C4'         1.0170    0.4550   -3.7830 c3        1 BG2      0.095100
     19 O4'         2.0240    0.7620   -2.8060 os        1 BG2     -0.406600
     20 C5'        -0.2540    1.2270   -3.4320 c3        1 BG2      0.122400
     21 O5'        -1.2510    0.7440   -4.3190 oh        1 BG2     -0.614800
     22 HN2         7.6280    0.2430   -1.3780 hn        1 BG2      0.483133
     23 HN2A        8.2330   -0.4760    0.0120 hn        1 BG2      0.483133
     24 H1'         3.7380   -0.3860   -2.7960 h2        1 BG2      0.111700
     25 H2'         1.5400   -2.3570   -2.1760 h1        1 BG2      0.104700
     26 HO2'        2.8620   -2.2120   -4.6120 ho        1 BG2      0.442000
     27 H3'        -0.1950   -1.3450   -3.3880 h1        1 BG2      0.088700
     28 HO3'        0.1210   -1.3000   -5.6040 ho        1 BG2      0.447000
     29 H4'         1.4180    0.8110   -4.7750 h1        1 BG2      0.090700
     30 H5'        -0.5640    1.0320   -2.3720 h1        1 BG2      0.049200
     31 H5'A       -0.0820    2.3260   -3.5710 h1        1 BG2      0.049200
     32 HO5'       -1.9680    1.3900   -4.3140 ho        1 BG2      0.427000
     33 H23         8.0080    1.1910   -0.0470 hn        1 BG2      0.483133
     34 HN1         6.8410    0.2650    2.1880 hn        1 BG2      0.350500
@<TRIPOS>BOND
     1    1   11 1   
     2    2    3 1   
     3    2    8 1   
     4    2   34 1   
     5    3    4 1   
     6    3    5 2   
     7    4   22 1   
     8    4   23 1   
     9    4   33 1   
    10    5    6 1   
    11    6    7 2   
    12    6   12 1   
    13    7    8 1   
    14    7   10 1   
    15    8    9 2   
    16   10   11 2   
    17   11   12 1   
    18   12   13 1   
    19   13   14 1   
    20   13   19 1   
    21   13   24 1   
    22   14   15 1   
    23   14   16 1   
    24   14   25 1   
    25   15   26 1   
    26   16   17 1   
    27   16   18 1   
    28   16   27 1   
    29   17   28 1   
    30   18   19 1   
    31   18   20 1   
    32   18   29 1   
    33   20   21 1   
    34   20   30 1   
    35   20   31 1   
    36   21   32 1   
@<TRIPOS>SUBSTRUCTURE
     1 BG2         1 TEMP              0 ****  ****    0 ROOT
