@<TRIPOS>MOLECULE
BG2
   34    36     1     0     0
SMALL
bcc


@<TRIPOS>ATOM
      1 BR          0.0050   -1.1470   -0.3240 br        1 BG2     -0.006200
      2 N1          5.9220    0.2170    1.5900 n         1 BG2     -0.503400
      3 C2          6.1300    0.2110    0.2100 cc        1 BG2      0.506800
      4 N2          7.5190    0.5100   -0.2760 n4        1 BG2     -0.796600
      5 N3          5.2350   -0.0270   -0.7490 nd        1 BG2     -0.524100
      6 C4          3.9580   -0.2920   -0.2770 cd        1 BG2      0.026800
      7 C5          3.6070   -0.3160    1.1230 cc        1 BG2      0.285800
      8 C6          4.6210   -0.0550    2.1370 c         1 BG2      0.648000
      9 O6          4.5150   -0.0350    3.3610 o         1 BG2     -0.500500
     10 N7          2.2670   -0.6020    1.2730 nc        1 BG2     -0.544000
     11 C8          1.7880   -0.7520    0.0010 cd        1 BG2      0.487700
     12 N9          2.7840   -0.5950   -0.9880 na        1 BG2     -0.141900
     13 C1'         2.7220   -0.5800   -2.4460 c3        1 BG2      0.204800
     14 C2'         1.8660   -1.7080   -3.1060 c3        1 BG2      0.089100
     15 O2'         2.7010   -2.5130   -3.8970 oh        1 BG2     -0.575800
     16 C3'         0.7930   -0.9570   -3.9270 c3        1 BG2      0.086100
     17 O3'         0.9480   -1.2590   -5.3000 oh        1 BG2     -0.590800
     18 C4'         1.0940    0.5420   -3.7560 c3        1 BG2      0.090100
     19 O4'         2.2440    0.6840   -2.9050 os        1 BG2     -0.405600
     20 C5'        -0.0690    1.3320   -3.1500 c3        1 BG2      0.116400
     21 O5'        -1.2950    0.9470   -3.7280 oh        1 BG2     -0.586800
     22 HN2         7.5400    0.4780   -1.3070 hn        1 BG2      0.482800
     23 HN2A        8.1690   -0.1930    0.0960 hn        1 BG2      0.482800
     24 H1'         3.7920   -0.6610   -2.8160 h2        1 BG2      0.112700
     25 H2'         1.4140   -2.4140   -2.3590 h1        1 BG2      0.112700
     26 HO2'        2.8540   -2.0640   -4.7440 ho        1 BG2      0.431000
     27 H3'        -0.2440   -1.2020   -3.5720 h1        1 BG2      0.100700
     28 HO3'        0.4940   -2.0970   -5.4630 ho        1 BG2      0.431000
     29 H4'         1.3970    0.9900   -4.7460 h1        1 BG2      0.098700
     30 H5'         0.1200    2.4300   -3.2830 h1        1 BG2      0.066200
     31 H5'A       -0.1790    1.1080   -2.0550 h1        1 BG2      0.066200
     32 HO5'       -1.3140    1.2890   -4.6310 ho        1 BG2      0.413000
     33 H23         7.7960    1.4480    0.0370 hn        1 BG2      0.482800
     34 HN1         6.6580    0.4120    2.2360 hn        1 BG2      0.350500
@<TRIPOS>BOND
     1    1   11 1   
     2    2    3 1   
     3    2    8 1   
     4    2   34 1   
     5    3    4 1   
     6    3    5 2   
     7    4   22 1   
     8    4   23 1   
     9    4   33 1   
    10    5    6 1   
    11    6    7 2   
    12    6   12 1   
    13    7    8 1   
    14    7   10 1   
    15    8    9 2   
    16   10   11 2   
    17   11   12 1   
    18   12   13 1   
    19   13   14 1   
    20   13   19 1   
    21   13   24 1   
    22   14   15 1   
    23   14   16 1   
    24   14   25 1   
    25   15   26 1   
    26   16   17 1   
    27   16   18 1   
    28   16   27 1   
    29   17   28 1   
    30   18   19 1   
    31   18   20 1   
    32   18   29 1   
    33   20   21 1   
    34   20   30 1   
    35   20   31 1   
    36   21   32 1   
@<TRIPOS>SUBSTRUCTURE
     1 BG2         1 TEMP              0 ****  ****    0 ROOT
