@<TRIPOS>MOLECULE
BG2
   33    32     1     0     0
SMALL
bcc


@<TRIPOS>ATOM
      1 BR         -3.5030    0.4430    2.0690 br        1 BG2      0.153000
      2 N1          2.0270   -0.3550    4.1120 n3        1 BG2     -0.350000
      3 C2          2.6360   -0.5710    2.8410 c2        1 BG2      0.253000
      4 N2          4.0420   -0.8120    2.7550 n3        1 BG2     -0.336000
      5 N3          1.8340   -0.5310    1.6390 n1        1 BG2     -0.256000
      6 C4          0.3990   -0.2690    1.7230 c1        1 BG2     -0.078500
      7 C5         -0.1870   -0.0620    2.9390 c1        1 BG2     -0.078500
      8 C6          0.6500   -0.1040    4.1960 c1        1 BG2      0.400000
      9 O6          0.1160    0.0030    5.2870 o         1 BG2     -0.311000
     10 N7         -1.5100    0.1550    2.7350 n2        1 BG2     -0.082500
     11 C8         -1.7470    0.0830    1.3950 c2        1 BG2     -0.148000
     12 N9         -0.5670   -0.1790    0.7720 n2        1 BG2     -0.082500
     13 C1'        -0.3330   -0.4400   -0.5820 c2        1 BG2      0.126000
     14 C2'        -1.4440   -0.8630   -1.1630 c3        1 BG2     -0.037000
     15 O2'        -1.4810   -2.3390   -1.1830 oh        1 BG2     -0.320000
     16 C3'        -1.3770   -0.3080   -2.6070 c3        1 BG2      0.022000
     17 O3'        -1.1200   -1.2890   -3.4660 oh        1 BG2     -0.299000
     18 C4'        -0.1950    0.7450   -2.6050 c3        1 BG2     -0.051000
     19 O4'         0.0910    0.9330   -1.3540 os        1 BG2     -0.277000
     20 C5'        -0.6510    2.0530   -3.2470 c3        1 BG2     -0.021000
     21 O5'         0.4420    2.9510   -3.3130 oh        1 BG2     -0.319000
     22 HN1         2.5360   -0.3850    4.8760 hn        1 BG2      0.251000
     23 HN2         4.4360   -0.9350    1.9360 hn        1 BG2      0.223500
     24 HN2A        4.5530   -0.8260    3.5160 hn        1 BG2      0.223500
     25 H1'         0.3760   -1.1150   -0.6790 h4        1 BG2      0.159000
     26 H2'        -2.2320   -0.5070   -0.6960 h1        1 BG2      0.121000
     27 HO2'       -2.3240   -2.6170   -1.0970 ho        1 BG2      0.223000
     28 H3'        -2.2240    0.1340   -2.8400 h1        1 BG2      0.136000
     29 HO3'       -1.7400   -1.2930   -4.1080 ho        1 BG2      0.223000
     30 H4'         0.5850    0.3830   -3.0820 h1        1 BG2      0.121000
     31 H5'        -1.3690    2.4500   -2.7070 h1        1 BG2      0.098500
     32 H5'A       -0.9830    1.8740   -4.1550 h1        1 BG2      0.098500
     33 HO5'        0.2640    3.5920   -3.9080 ho        1 BG2      0.213000
@<TRIPOS>BOND
     1    1   11 1   
     2    2    3 1   
     3    2    8 1   
     4    2   22 1   
     5    3    4 1   
     6    3    5 1   
     7    4   23 1   
     8    4   24 1   
     9    6    7 1   
    10    6   12 1   
    11    7   10 1   
    12    8    9 1   
    13   10   11 1   
    14   11   12 1   
    15   13   14 1   
    16   13   19 1   
    17   13   25 1   
    18   14   15 1   
    19   14   16 1   
    20   14   26 1   
    21   15   27 1   
    22   16   17 1   
    23   16   18 1   
    24   16   28 1   
    25   17   29 1   
    26   18   19 1   
    27   18   20 1   
    28   18   30 1   
    29   20   21 1   
    30   20   31 1   
    31   20   32 1   
    32   21   33 1   
@<TRIPOS>SUBSTRUCTURE
     1 BG2         1 TEMP              0 ****  ****    0 ROOT
