@<TRIPOS>MOLECULE
BG2
   33    35     1     0     0
SMALL
bcc


@<TRIPOS>ATOM
      1 BR          1.4160    1.7460   -1.4700 br        1 BG2     -0.084200
      2 N1         -4.2930    0.0110    0.7220 n         1 BG2     -0.510400
      3 C2         -3.6560   -1.2370    0.8650 cc        1 BG2      0.698800
      4 N2         -4.3900   -2.2730    1.4740 nh        1 BG2     -0.897800
      5 N3         -2.3700   -1.4900    0.5070 nd        1 BG2     -0.679100
      6 C4         -1.6800   -0.3910    0.0320 cd        1 BG2      0.143800
      7 C5         -2.2370    0.9270   -0.1290 cc        1 BG2      0.170800
      8 C6         -3.6190    1.1670    0.2370 c         1 BG2      0.653000
      9 O6         -4.2610    2.2230    0.1720 o         1 BG2     -0.588500
     10 N7         -1.2800    1.7980   -0.6390 nc        1 BG2     -0.539000
     11 C8         -0.1650    1.0500   -0.7920 cd        1 BG2      0.432700
     12 N9         -0.3520   -0.3160   -0.4220 na        1 BG2     -0.189900
     13 C1'         0.5850   -1.4080   -0.2920 c3        1 BG2      0.212800
     14 C2'         1.5060   -1.6610   -1.5320 c3        1 BG2      0.128100
     15 O2'         1.2100   -2.9150   -2.0900 oh        1 BG2     -0.565800
     16 C3'         2.9450   -1.5380   -0.9850 c3        1 BG2      0.085100
     17 O3'         3.6130   -2.7500   -1.2840 oh        1 BG2     -0.591800
     18 C4'         2.8090   -1.3390    0.5330 c3        1 BG2      0.055100
     19 O4'         1.4210   -1.2170    0.8620 os        1 BG2     -0.418600
     20 C5'         3.5440   -0.1030    1.0510 c3        1 BG2      0.122400
     21 O5'         3.5680   -0.0900    2.4620 oh        1 BG2     -0.590800
     22 HN2        -5.3700   -2.2770    1.3080 hn        1 BG2      0.428300
     23 HN2A       -3.9570   -3.1710    1.4570 hn        1 BG2      0.428300
     24 H1'        -0.0180   -2.3460   -0.0810 h2        1 BG2      0.122700
     25 H2'         1.3220   -0.9330   -2.3670 h1        1 BG2      0.111700
     26 HO2'        1.6250   -3.6020   -1.5480 ho        1 BG2      0.424000
     27 H3'         3.4770   -0.6740   -1.4640 h1        1 BG2      0.068700
     28 HO3'        4.5250   -2.6510   -0.9830 ho        1 BG2      0.420000
     29 H4'         3.1730   -2.2520    1.0870 h1        1 BG2      0.084700
     30 H5'         4.6220   -0.1440    0.7420 h1        1 BG2      0.056700
     31 H5'A        3.0660    0.8330    0.6580 h1        1 BG2      0.056700
     32 HO5'        2.6480   -0.0660    2.7600 ho        1 BG2      0.417000
     33 HN1        -5.2290    0.1360    1.0430 hn        1 BG2      0.336500
@<TRIPOS>BOND
     1    1   11 1   
     2    2    3 1   
     3    2    8 1   
     4    2   33 1   
     5    3    4 1   
     6    3    5 2   
     7    4   22 1   
     8    4   23 1   
     9    5    6 1   
    10    6    7 2   
    11    6   12 1   
    12    7    8 1   
    13    7   10 1   
    14    8    9 2   
    15   10   11 2   
    16   11   12 1   
    17   12   13 1   
    18   13   14 1   
    19   13   19 1   
    20   13   24 1   
    21   14   15 1   
    22   14   16 1   
    23   14   25 1   
    24   15   26 1   
    25   16   17 1   
    26   16   18 1   
    27   16   27 1   
    28   17   28 1   
    29   18   19 1   
    30   18   20 1   
    31   18   29 1   
    32   20   21 1   
    33   20   30 1   
    34   20   31 1   
    35   21   32 1   
@<TRIPOS>SUBSTRUCTURE
     1 BG2         1 TEMP              0 ****  ****    0 ROOT
