@<TRIPOS>MOLECULE
BG3
   22    22     1     0     0
SMALL
bcc


@<TRIPOS>ATOM
      1 C1          0.2650    0.5940   -0.2500 c         1 BG3      0.900600
      2 C2          1.5840   -0.2010   -0.0640 c3        1 BG3      0.048500
      3 C3          1.9700   -0.2100    1.4380 c3        1 BG3     -0.063700
      4 C4          2.4980   -1.6200    1.7000 c3        1 BG3     -0.049400
      5 C5          2.0100   -2.4740    0.5230 c3        1 BG3     -0.008700
      6 C6          2.9700    0.8690    1.7630 c3        1 BG3     -0.075100
      7 O1         -0.8180   -0.0230   -0.4730 o         1 BG3     -0.865800
      8 N1          1.5880   -1.5830   -0.5610 n3        1 BG3     -0.746200
      9 S1          3.2640   -3.6650    0.0020 s6        1 BG3      1.413800
     10 O2          3.3920   -4.5010    1.1550 o         1 BG3     -0.759867
     11 O3          4.4720   -2.9820   -0.2810 o         1 BG3     -0.759867
     12 O4          2.7280   -4.3830   -1.0980 o         1 BG3     -0.759867
     13 O5          0.3310    1.8570   -0.1630 o         1 BG3     -0.865800
     14 H2          2.3820    0.3420   -0.6460 h1        1 BG3      0.044700
     15 H3          1.0430   -0.0380    2.0470 hc        1 BG3      0.038700
     16 H41         2.1230   -2.0240    2.6700 hc        1 BG3      0.028200
     17 H42         3.6180   -1.6280    1.7320 hc        1 BG3      0.028200
     18 H5          1.1410   -3.0920    0.8870 h2        1 BG3      0.037700
     19 H61         3.9280    0.7000    1.2140 hc        1 BG3      0.019367
     20 H62         3.1910    0.8860    2.8580 hc        1 BG3      0.019367
     21 H63         2.5520    1.8610    1.4590 hc        1 BG3      0.019367
     22 HN1         0.6480   -1.8220   -0.8380 hn        1 BG3      0.356800
@<TRIPOS>BOND
     1    1    2 1   
     2    1    7 1   
     3    1   13 1   
     4    2    3 1   
     5    2    8 1   
     6    2   14 1   
     7    3    4 1   
     8    3    6 1   
     9    3   15 1   
    10    4    5 1   
    11    4   16 1   
    12    4   17 1   
    13    5    8 1   
    14    5    9 1   
    15    5   18 1   
    16    6   19 1   
    17    6   20 1   
    18    6   21 1   
    19    8   22 1   
    20    9   10 1   
    21    9   11 1   
    22    9   12 1   
@<TRIPOS>SUBSTRUCTURE
     1 BG3         1 TEMP              0 ****  ****    0 ROOT
