@<TRIPOS>MOLECULE
BG3
   22    22     1     0     0
SMALL
bcc


@<TRIPOS>ATOM
      1 C1          0.3770    0.7160   -0.2580 c         1 BG3      0.929600
      2 C2          1.6900   -0.0690    0.0330 c3        1 BG3      0.061500
      3 C3          1.8950   -0.2900    1.5510 c3        1 BG3     -0.087700
      4 C4          2.3950   -1.7280    1.6880 c3        1 BG3     -0.051400
      5 C5          2.0780   -2.4060    0.3490 c3        1 BG3     -0.032700
      6 C6          2.8500    0.7090    2.1510 c3        1 BG3     -0.068100
      7 O1         -0.6060    0.6230    0.5330 o         1 BG3     -0.865300
      8 N1          1.7500   -1.3770   -0.6410 n7        1 BG3     -0.730200
      9 S1          3.3160   -3.6220   -0.1430 s6        1 BG3      1.390800
     10 O2          4.0960   -3.8880    1.0200 o         1 BG3     -0.756533
     11 O3          4.0840   -3.0380   -1.1860 o         1 BG3     -0.756533
     12 O4          2.5780   -4.7640   -0.5550 o         1 BG3     -0.756533
     13 O5          0.3810    1.4920   -1.2600 o         1 BG3     -0.865300
     14 H2          2.5240    0.5930   -0.3500 h1        1 BG3      0.008700
     15 H3          0.8900   -0.1900    2.0490 hc        1 BG3      0.080700
     16 H41         1.8840   -2.2550    2.5290 hc        1 BG3      0.027200
     17 H42         3.4960   -1.7590    1.8900 hc        1 BG3      0.027200
     18 H5          1.1170   -2.9840    0.4850 h2        1 BG3      0.074700
     19 H61         3.8570    0.6370    1.6740 hc        1 BG3      0.009700
     20 H62         2.4630    1.7460    2.0040 hc        1 BG3      0.009700
     21 H63         2.9700    0.5260    3.2470 hc        1 BG3      0.009700
     22 HN1         2.4880   -1.3460   -1.3280 hn        1 BG3      0.339800
@<TRIPOS>BOND
     1    1    2 1   
     2    1    7 1   
     3    1   13 1   
     4    2    3 1   
     5    2    8 1   
     6    2   14 1   
     7    3    4 1   
     8    3    6 1   
     9    3   15 1   
    10    4    5 1   
    11    4   16 1   
    12    4   17 1   
    13    5    8 1   
    14    5    9 1   
    15    5   18 1   
    16    6   19 1   
    17    6   20 1   
    18    6   21 1   
    19    8   22 1   
    20    9   10 1   
    21    9   11 1   
    22    9   12 1   
@<TRIPOS>SUBSTRUCTURE
     1 BG3         1 TEMP              0 ****  ****    0 ROOT
