@<TRIPOS>MOLECULE
BG3
   22    20     1     0     0
SMALL
bcc


@<TRIPOS>ATOM
      1 C1         -2.4230    0.5650   -0.6520 c1        1 BG3      0.816000
      2 C2         -1.0790    0.5270   -0.6330 c2        1 BG3      0.173200
      3 C3         -0.5830    0.5210    0.8280 c3        1 BG3     -0.163000
      4 C4         -0.2110   -0.6760    1.0810 c3        1 BG3     -0.051400
      5 C5          0.2670   -1.3390   -0.2990 c3        1 BG3     -0.244700
      6 C6          0.6760    1.5390    0.9920 c3        1 BG3     -0.068100
      7 O1         -3.0340    1.6550   -0.3820 o         1 BG3     -0.833500
      8 N1         -0.5790   -0.8730   -1.1800 nh        1 BG3     -0.294100
      9 S1          2.0350   -0.9960   -0.7150 s4        1 BG3      1.610500
     10 O2          2.9030   -0.9650    0.5420 o         1 BG3     -0.689900
     11 O3          2.6550   -2.1510   -1.4730 o         1 BG3     -0.689900
     12 O4          2.1500    0.3000   -1.4960 os        1 BG3     -1.075000
     13 O5         -3.0880   -0.5040   -0.8630 o         1 BG3     -0.833500
     14 H2         -0.8630    1.3220   -1.1760 h4        1 BG3     -0.081200
     15 H3         -1.3100    0.7820    1.4310 hc        1 BG3      0.080700
     16 H41        -0.9590   -1.1870    1.4540 hc        1 BG3      0.027200
     17 H42         0.5340   -0.6630    1.7180 hc        1 BG3      0.027200
     18 H5          0.2560   -2.3230   -0.2600 h2        1 BG3      0.074700
     19 H61         1.3530    1.1320    1.5890 hc        1 BG3      0.009700
     20 H62         0.3680    2.3760    1.3760 hc        1 BG3      0.009700
     21 H63         1.0780    1.7100    0.1090 hc        1 BG3      0.009700
     22 HN1        -0.1440   -0.7510   -1.9910 hn        1 BG3      0.184700
@<TRIPOS>BOND
     1    1    7 2   
     2    1   13 2   
     3    2    3 1   
     4    2    8 2   
     5    2   14 1   
     6    3    4 1   
     7    3    6 1   
     8    3   15 1   
     9    4    5 1   
    10    4   16 1   
    11    4   17 1   
    12    5    8 1   
    13    5    9 1   
    14    5   18 1   
    15    6   19 1   
    16    6   20 1   
    17    6   21 1   
    18    8   22 1   
    19    9   10 1   
    20    9   11 1   
@<TRIPOS>SUBSTRUCTURE
     1 BG3         1 TEMP              0 ****  ****    0 ROOT
