@<TRIPOS>MOLECULE
BG3
   22    22     1     0     0
SMALL
bcc


@<TRIPOS>ATOM
      1 C1          1.5610   -0.6070   -0.6140 c         1 BG3      0.900600
      2 C2          1.3770    0.2400   -1.9010 c3        1 BG3      0.048500
      3 C3          0.0910   -0.2160   -2.6370 c3        1 BG3     -0.063700
      4 C4         -0.5500    1.0740   -3.1450 c3        1 BG3     -0.049400
      5 C5          0.1050    2.2090   -2.3480 c3        1 BG3     -0.008700
      6 C6          0.3970   -1.2010   -3.7350 c3        1 BG3     -0.075100
      7 O1          1.3130   -0.0990    0.5180 o         1 BG3     -0.865800
      8 N1          1.3260    1.6970   -1.7190 n3        1 BG3     -0.746200
      9 S1          0.4070    3.6590   -3.3810 s6        1 BG3      1.413800
     10 O2         -0.9190    4.0580   -3.7440 o         1 BG3     -0.759867
     11 O3          1.1640    3.2790   -4.5170 o         1 BG3     -0.759867
     12 O4          1.0320    4.6340   -2.5630 o         1 BG3     -0.759867
     13 O5          1.9560   -1.8040   -0.7590 o         1 BG3     -0.865800
     14 H2          2.2700    0.0400   -2.5590 h1        1 BG3      0.045700
     15 H3         -0.5930   -0.7060   -1.8930 hc        1 BG3      0.038700
     16 H41        -0.3490    1.2170   -4.2380 hc        1 BG3      0.028200
     17 H42        -1.6560    1.0680   -2.9960 hc        1 BG3      0.028200
     18 H5         -0.6310    2.5450   -1.5640 h2        1 BG3      0.037700
     19 H61         0.9470   -2.0730   -3.3030 hc        1 BG3      0.019367
     20 H62        -0.5450   -1.5630   -4.2140 hc        1 BG3      0.019367
     21 H63         1.0340   -0.7300   -4.5230 hc        1 BG3      0.019367
     22 HN1         1.2940    1.8920   -0.7300 hn        1 BG3      0.356800
@<TRIPOS>BOND
     1    1    2 1   
     2    1    7 1   
     3    1   13 1   
     4    2    3 1   
     5    2    8 1   
     6    2   14 1   
     7    3    4 1   
     8    3    6 1   
     9    3   15 1   
    10    4    5 1   
    11    4   16 1   
    12    4   17 1   
    13    5    8 1   
    14    5    9 1   
    15    5   18 1   
    16    6   19 1   
    17    6   20 1   
    18    6   21 1   
    19    8   22 1   
    20    9   10 1   
    21    9   11 1   
    22    9   12 1   
@<TRIPOS>SUBSTRUCTURE
     1 BG3         1 TEMP              0 ****  ****    0 ROOT
