@<TRIPOS>MOLECULE
BG4
   25    24     1     0     0
SMALL
bcc


@<TRIPOS>ATOM
      1 C1         -2.0900    1.2630   -0.9070 c1        1 BG4      0.788000
      2 C2         -0.6610    1.2390   -0.8880 c2        1 BG4      0.140200
      3 C3         -0.2270    1.2370    0.3770 c3        1 BG4     -0.141000
      4 C4          1.0960    0.2880    0.4290 c3        1 BG4     -0.079400
      5 C5          0.8620   -0.7400   -0.3650 c3        1 BG4      0.192200
      6 C6          0.1370    2.7020    0.8220 c3        1 BG4     -0.078100
      7 N1         -0.1150   -0.2320   -1.4250 nh        1 BG4     -0.374100
      8 O1         -2.7140    2.0450   -1.7280 o         1 BG4     -0.809000
      9 N2          0.2600   -1.8240    0.3930 n3        1 BG4     -0.517100
     10 O2          0.8910   -1.9370    1.6130 oh        1 BG4     -0.427300
     11 C7          0.4000   -3.0500   -0.3310 c3        1 BG4      0.103100
     12 O3         -2.7370    0.5550   -0.1070 o         1 BG4     -0.809000
     13 H2         -0.4480    2.0360   -1.4440 h4        1 BG4     -0.038200
     14 H3         -0.9170    0.8760    0.9640 hc        1 BG4      0.061700
     15 H41         1.2480   -0.0240    1.3470 hc        1 BG4      0.033700
     16 H42         1.8660    0.7780    0.1150 hc        1 BG4      0.033700
     17 H5          1.7350   -1.0540   -0.8060 h2        1 BG4      0.043700
     18 H61         0.7850    3.0710    0.2120 hc        1 BG4      0.026033
     19 H62        -0.6960    3.2740    0.8140 hc        1 BG4      0.026033
     20 H63         0.5150    2.6860    1.7330 hc        1 BG4      0.026033
     21 HN1        -0.8370   -0.8290   -1.5020 hn        1 BG4      0.230700
     22 HO2         0.3660   -2.3600    2.1760 ho        1 BG4      0.393000
     23 H71         0.4060   -2.8610   -1.3000 h1        1 BG4      0.058033
     24 H72         1.2410   -3.4860   -0.0780 h1        1 BG4      0.058033
     25 H73        -0.3670   -3.6550   -0.1140 h1        1 BG4      0.058033
@<TRIPOS>BOND
     1    1    8 2   
     2    1   12 2   
     3    2    3 1   
     4    2    7 2   
     5    2   13 1   
     6    3    4 1   
     7    3    6 1   
     8    3   14 1   
     9    4    5 1   
    10    4   15 1   
    11    4   16 1   
    12    5    7 1   
    13    5    9 1   
    14    5   17 1   
    15    6   18 1   
    16    6   19 1   
    17    6   20 1   
    18    7   21 1   
    19    9   10 1   
    20    9   11 1   
    21   10   22 1   
    22   11   23 1   
    23   11   24 1   
    24   11   25 1   
@<TRIPOS>SUBSTRUCTURE
     1 BG4         1 TEMP              0 ****  ****    0 ROOT
