@<TRIPOS>MOLECULE
BG4
   25    25     1     0     0
SMALL
bcc


@<TRIPOS>ATOM
      1 C1         -0.2130    0.7610    0.6310 c         1 BG4      0.902600
      2 C2         -1.5350    0.8030    1.4560 c3        1 BG4      0.027500
      3 C3         -1.2000    0.9670    2.9580 c3        1 BG4     -0.058700
      4 C4         -1.9440    2.2210    3.4150 c3        1 BG4     -0.070400
      5 C5         -2.4370    2.9130    2.1070 c3        1 BG4      0.352700
      6 C6         -1.5880   -0.2520    3.7570 c3        1 BG4     -0.079100
      7 N1         -2.4730    1.8660    1.0740 n3        1 BG4     -0.795200
      8 O1          0.4640   -0.3000    0.6760 o         1 BG4     -0.842300
      9 N2         -1.5880    4.1450    1.8660 n3        1 BG4     -0.486100
     10 O2         -1.2070    4.2680    0.5860 oh        1 BG4     -0.468300
     11 C7         -2.3480    5.3450    2.2200 c3        1 BG4      0.137100
     12 O3          0.1130    1.7850   -0.0420 o         1 BG4     -0.842300
     13 H2         -2.0710   -0.1720    1.2820 h1        1 BG4      0.054700
     14 H3         -0.0920    1.1270    3.0610 hc        1 BG4      0.067700
     15 H41        -2.8360    1.9570    4.0360 hc        1 BG4      0.032200
     16 H42        -1.2850    2.8850    4.0220 hc        1 BG4      0.032200
     17 H5         -3.5170    3.2330    2.2420 h2        1 BG4      0.024700
     18 H61        -1.3440   -0.1060    4.8370 hc        1 BG4      0.023367
     19 H62        -2.6820   -0.4570    3.6670 hc        1 BG4      0.023367
     20 H63        -1.0290   -1.1430    3.3790 hc        1 BG4      0.023367
     21 HN1        -2.2060    2.2330    0.1730 hn        1 BG4      0.380800
     22 HO2        -0.4580    3.6330    0.4710 ho        1 BG4      0.480000
     23 H71        -1.6980    6.2390    2.0350 h1        1 BG4      0.026700
     24 H72        -2.5930    5.2770    3.3090 h1        1 BG4      0.026700
     25 H73        -3.2970    5.4730    1.6350 h1        1 BG4      0.026700
@<TRIPOS>BOND
     1    1    2 1   
     2    1    8 1   
     3    1   12 1   
     4    2    3 1   
     5    2    7 1   
     6    2   13 1   
     7    3    4 1   
     8    3    6 1   
     9    3   14 1   
    10    4    5 1   
    11    4   15 1   
    12    4   16 1   
    13    5    7 1   
    14    5    9 1   
    15    5   17 1   
    16    6   18 1   
    17    6   19 1   
    18    6   20 1   
    19    7   21 1   
    20    9   10 1   
    21    9   11 1   
    22   10   22 1   
    23   11   23 1   
    24   11   24 1   
    25   11   25 1   
@<TRIPOS>SUBSTRUCTURE
     1 BG4         1 TEMP              0 ****  ****    0 ROOT
