@<TRIPOS>MOLECULE
BG4
   26    26     1     0     0
SMALL
bcc


@<TRIPOS>ATOM
      1 C1         -0.0930   -0.0780    0.0780 c         1 BG4      0.592100
      2 C2          1.4280   -0.0270    0.0790 c3        1 BG4      0.076500
      3 C3          1.9590    0.1610    1.5260 c3        1 BG4     -0.068700
      4 C4          2.8260   -1.0690    1.8060 c3        1 BG4     -0.082400
      5 C5          2.6070   -2.0360    0.6020 c3        1 BG4      0.360700
      6 C6          2.7350    1.4470    1.6620 c3        1 BG4     -0.091100
      7 N1          2.0770   -1.2050   -0.4890 n3        1 BG4     -0.793200
      8 O1         -0.8420    0.6850   -0.5300 o         1 BG4     -0.480000
      9 N2          1.7580   -3.2050    1.0490 n3        1 BG4     -0.527100
     10 O2          1.1360   -3.7510   -0.0110 oh        1 BG4     -0.428300
     11 C7          2.6020   -4.2190    1.6830 c3        1 BG4      0.123100
     12 O3         -0.7450   -1.0560    0.7740 oh        1 BG4     -0.591100
     13 H2          1.7240    0.8510   -0.5700 h1        1 BG4      0.109700
     14 H3          1.0930    0.1820    2.2420 hc        1 BG4      0.059700
     15 H41         3.9090   -0.7930    1.8450 hc        1 BG4      0.063700
     16 H42         2.5520   -1.5350    2.7820 hc        1 BG4      0.063700
     17 H5          3.6050   -2.4210    0.2260 h2        1 BG4      0.071700
     18 H61         3.1400    1.5410    2.6990 hc        1 BG4      0.045700
     19 H62         2.0740    2.3240    1.4580 hc        1 BG4      0.045700
     20 H63         3.5900    1.4730    0.9440 hc        1 BG4      0.045700
     21 HN1         1.4820   -1.7140   -1.1150 hn        1 BG4      0.393800
     22 HO2         0.1850   -3.6830    0.2000 ho        1 BG4      0.425000
     23 H71         1.9370   -5.0410    2.0520 h1        1 BG4      0.049700
     24 H72         3.1230   -3.7390    2.5500 h1        1 BG4      0.049700
     25 H73         3.3640   -4.6600    0.9880 h1        1 BG4      0.049700
     26 H21        -0.1170   -1.5430    1.3260 ho        1 BG4      0.437000
@<TRIPOS>BOND
     1    1    2 1   
     2    1    8 2   
     3    1   12 1   
     4    2    3 1   
     5    2    7 1   
     6    2   13 1   
     7    3    4 1   
     8    3    6 1   
     9    3   14 1   
    10    4    5 1   
    11    4   15 1   
    12    4   16 1   
    13    5    7 1   
    14    5    9 1   
    15    5   17 1   
    16    6   18 1   
    17    6   19 1   
    18    6   20 1   
    19    7   21 1   
    20    9   10 1   
    21    9   11 1   
    22   10   22 1   
    23   11   23 1   
    24   11   24 1   
    25   11   25 1   
    26   12   26 1   
@<TRIPOS>SUBSTRUCTURE
     1 BG4         1 TEMP              0 ****  ****    0 ROOT
