@<TRIPOS>MOLECULE
BG4
   26    26     1     0     0
SMALL
bcc


@<TRIPOS>ATOM
      1 C1         -0.1070    0.1300    0.1380 c         1 BG4      0.636100
      2 C2          1.4090   -0.0250    0.0710 c3        1 BG4      0.082500
      3 C3          2.0040    0.1100    1.5000 c3        1 BG4     -0.077700
      4 C4          2.8840   -1.1240    1.6910 c3        1 BG4     -0.096400
      5 C5          2.5450   -2.0900    0.5200 c3        1 BG4      0.357700
      6 C6          2.7730    1.3970    1.6620 c3        1 BG4     -0.094100
      7 N1          1.7930   -1.3150   -0.4890 n3        1 BG4     -0.828200
      8 O1         -0.7240    1.1220   -0.2470 o         1 BG4     -0.502000
      9 N2          1.7540   -3.2870    0.9970 n3        1 BG4     -0.475100
     10 O2          1.4850   -4.0870   -0.0520 oh        1 BG4     -0.427300
     11 C7          2.5510   -4.0640    1.9540 c3        1 BG4      0.123100
     12 O3         -0.8880   -0.8390    0.6870 oh        1 BG4     -0.575100
     13 H2          1.7780    0.8210   -0.5810 h1        1 BG4      0.084700
     14 H3          1.1660    0.0880    2.2500 hc        1 BG4      0.071700
     15 H41         2.7070   -1.5780    2.6950 hc        1 BG4      0.062200
     16 H42         3.9670   -0.8540    1.6270 hc        1 BG4      0.062200
     17 H5          3.5090   -2.4610    0.0510 h2        1 BG4      0.045700
     18 H61         3.2010    1.4580    2.6920 hc        1 BG4      0.045033
     19 H62         2.0980    2.2740    1.5040 hc        1 BG4      0.045033
     20 H63         3.6110    1.4590    0.9270 hc        1 BG4      0.045033
     21 HN1         2.3250   -1.2120   -1.3280 hn        1 BG4      0.388800
     22 HO2         0.6100   -3.7980   -0.3700 ho        1 BG4      0.429000
     23 H71         3.6530   -4.0370    1.7510 h1        1 BG4      0.050033
     24 H72         2.2120   -5.1330    1.9310 h1        1 BG4      0.050033
     25 H73         2.3480   -3.6370    2.9690 h1        1 BG4      0.050033
     26 H21        -0.3500   -1.6080    0.9280 ho        1 BG4      0.447000
@<TRIPOS>BOND
     1    1    2 1   
     2    1    8 2   
     3    1   12 1   
     4    2    3 1   
     5    2    7 1   
     6    2   13 1   
     7    3    4 1   
     8    3    6 1   
     9    3   14 1   
    10    4    5 1   
    11    4   15 1   
    12    4   16 1   
    13    5    7 1   
    14    5    9 1   
    15    5   17 1   
    16    6   18 1   
    17    6   19 1   
    18    6   20 1   
    19    7   21 1   
    20    9   10 1   
    21    9   11 1   
    22   10   22 1   
    23   11   23 1   
    24   11   24 1   
    25   11   25 1   
    26   12   26 1   
@<TRIPOS>SUBSTRUCTURE
     1 BG4         1 TEMP              0 ****  ****    0 ROOT
