@<TRIPOS>MOLECULE
BG4
   26    26     1     0     0
SMALL
bcc


@<TRIPOS>ATOM
      1 C1         -0.0860    0.1320    0.1160 c         1 BG4      0.636100
      2 C2          1.4300   -0.0280    0.0640 c3        1 BG4      0.082500
      3 C3          2.0110    0.1090    1.4980 c3        1 BG4     -0.077700
      4 C4          2.8850   -1.1280    1.7010 c3        1 BG4     -0.096400
      5 C5          2.5550   -2.0950    0.5290 c3        1 BG4      0.357700
      6 C6          2.7820    1.3930    1.6660 c3        1 BG4     -0.094100
      7 N1          1.8160   -1.3200   -0.4890 n7        1 BG4     -0.828200
      8 O1         -0.6960    1.1260   -0.2780 o         1 BG4     -0.502000
      9 N2          1.7560   -3.2890    1.0000 n3        1 BG4     -0.475100
     10 O2          1.4960   -4.0900   -0.0500 oh        1 BG4     -0.427300
     11 C7          2.5400   -4.0660    1.9660 c3        1 BG4      0.123100
     12 O3         -0.8750   -0.8330    0.6580 oh        1 BG4     -0.575100
     13 H2          1.8080    0.8160   -0.5860 h1        1 BG4      0.084700
     14 H3          1.1650    0.0910    2.2400 hc        1 BG4      0.071700
     15 H41         3.9700   -0.8610    1.6470 hc        1 BG4      0.062200
     16 H42         2.6960   -1.5800    2.7040 hc        1 BG4      0.062200
     17 H5          3.5230   -2.4700    0.0700 h2        1 BG4      0.045700
     18 H61         2.1120    2.2720    1.5000 hc        1 BG4      0.045033
     19 H62         3.2000    1.4550    2.7000 hc        1 BG4      0.045033
     20 H63         3.6280    1.4510    0.9390 hc        1 BG4      0.045033
     21 HN1         2.3560   -1.2190   -1.3230 hn        1 BG4      0.388800
     22 HO2         0.6240   -3.7990   -0.3780 ho        1 BG4      0.429000
     23 H71         2.1990   -5.1340    1.9410 h1        1 BG4      0.050033
     24 H72         2.3280   -3.6380    2.9780 h1        1 BG4      0.050033
     25 H73         3.6450   -4.0430    1.7750 h1        1 BG4      0.050033
     26 H21        -0.3420   -1.6030    0.9060 ho        1 BG4      0.447000
@<TRIPOS>BOND
     1    1    2 1   
     2    1    8 2   
     3    1   12 1   
     4    2    3 1   
     5    2    7 1   
     6    2   13 1   
     7    3    4 1   
     8    3    6 1   
     9    3   14 1   
    10    4    5 1   
    11    4   15 1   
    12    4   16 1   
    13    5    7 1   
    14    5    9 1   
    15    5   17 1   
    16    6   18 1   
    17    6   19 1   
    18    6   20 1   
    19    7   21 1   
    20    9   10 1   
    21    9   11 1   
    22   10   22 1   
    23   11   23 1   
    24   11   24 1   
    25   11   25 1   
    26   12   26 1   
@<TRIPOS>SUBSTRUCTURE
     1 BG4         1 TEMP              0 ****  ****    0 ROOT
