@<TRIPOS>MOLECULE
BG5
   23    23     1     0     0
SMALL
bcc


@<TRIPOS>ATOM
      1 C1         -0.1010   -0.0140    0.1940 c         1 BG5      0.637100
      2 C2          1.4160   -0.0990    0.0770 c3        1 BG5      0.079500
      3 C3          2.0500    0.0450    1.4900 c3        1 BG5     -0.076700
      4 C4          3.0160   -1.1310    1.6220 c3        1 BG5     -0.099400
      5 C5          2.6630   -2.1050    0.4630 c3        1 BG5      0.341700
      6 C6          2.7360    1.3770    1.6590 c3        1 BG5     -0.094100
      7 N1          1.8460   -1.3600   -0.5180 n3        1 BG5     -0.820200
      8 O1         -0.7690    0.9690   -0.1300 o         1 BG5     -0.503000
      9 N2          1.9250   -3.3050    0.9840 n3        1 BG5     -0.561700
     10 O2          1.8470   -4.2470    0.0350 oh        1 BG5     -0.427300
     11 O3         -0.8270   -1.0350    0.7210 oh        1 BG5     -0.574100
     12 H2          1.7250    0.7750   -0.5710 h1        1 BG5      0.084700
     13 H3          1.2410   -0.0510    2.2650 hc        1 BG5      0.072700
     14 H41         2.9270   -1.6070    2.6280 hc        1 BG5      0.061700
     15 H42         4.0750   -0.7930    1.4980 hc        1 BG5      0.061700
     16 H5          3.6150   -2.4510   -0.0470 h2        1 BG5      0.048700
     17 H61         3.1920    1.4450    2.6760 hc        1 BG5      0.045367
     18 H62         2.0000    2.2090    1.5420 hc        1 BG5      0.045367
     19 H63         3.5450    1.5110    0.9000 hc        1 BG5      0.045367
     20 HN1         2.3600   -1.2080   -1.3620 hn        1 BG5      0.385800
     21 HN2         2.5220   -3.6970    1.7140 hn        1 BG5      0.367800
     22 HO2         0.9800   -4.1060   -0.3930 ho        1 BG5      0.432000
     23 H22        -0.2560   -1.7950    0.9060 ho        1 BG5      0.449000
@<TRIPOS>BOND
     1    1    2 1   
     2    1    8 2   
     3    1   11 1   
     4    2    3 1   
     5    2    7 1   
     6    2   12 1   
     7    3    4 1   
     8    3    6 1   
     9    3   13 1   
    10    4    5 1   
    11    4   14 1   
    12    4   15 1   
    13    5    7 1   
    14    5    9 1   
    15    5   16 1   
    16    6   17 1   
    17    6   18 1   
    18    6   19 1   
    19    7   20 1   
    20    9   10 1   
    21    9   21 1   
    22   10   22 1   
    23   11   23 1   
@<TRIPOS>SUBSTRUCTURE
     1 BG5         1 TEMP              0 ****  ****    0 ROOT
