@<TRIPOS>MOLECULE
BG5
   23    23     1     0     0
SMALL
bcc


@<TRIPOS>ATOM
      1 C1         -0.1070   -0.0310    0.2180 c         1 BG5      0.596100
      2 C2          1.4090   -0.0770    0.0920 c3        1 BG5      0.073500
      3 C3          2.0590    0.0310    1.4980 c3        1 BG5     -0.067700
      4 C4          3.0160   -1.1580    1.5950 c3        1 BG5     -0.087400
      5 C5          2.6510   -2.0950    0.4090 c3        1 BG5      0.344700
      6 C6          2.7650    1.3500    1.6820 c3        1 BG5     -0.092100
      7 N1          1.9430   -1.2600   -0.5770 n3        1 BG5     -0.791200
      8 O1         -0.8350    0.8710   -0.1920 o         1 BG5     -0.481000
      9 N2          1.8770   -3.2860    0.8920 n3        1 BG5     -0.613700
     10 O2          1.8410   -4.2180   -0.0720 oh        1 BG5     -0.423300
     11 O3         -0.7790   -1.0540    0.8210 oh        1 BG5     -0.585100
     12 H2          1.7060    0.8100   -0.5450 h1        1 BG5      0.109700
     13 H3          1.2600   -0.0680    2.2840 hc        1 BG5      0.060700
     14 H41         2.9290   -1.6620    2.5870 hc        1 BG5      0.062700
     15 H42         4.0770   -0.8240    1.4710 hc        1 BG5      0.062700
     16 H5          3.5920   -2.4450   -0.1190 h2        1 BG5      0.079700
     17 H61         3.2460    1.3890    2.6890 hc        1 BG5      0.046700
     18 H62         2.0370    2.1940    1.6020 hc        1 BG5      0.046700
     19 H63         3.5560    1.4900    0.9050 hc        1 BG5      0.046700
     20 HN1         1.2400   -1.7640   -1.0830 hn        1 BG5      0.380800
     21 HN2         2.4090   -3.6860    1.6650 hn        1 BG5      0.371800
     22 HO2         0.9000   -4.2810   -0.3250 ho        1 BG5      0.423000
     23 H22        -0.1540   -1.6950    1.1890 ho        1 BG5      0.437000
@<TRIPOS>BOND
     1    1    2 1   
     2    1    8 2   
     3    1   11 1   
     4    2    3 1   
     5    2    7 1   
     6    2   12 1   
     7    3    4 1   
     8    3    6 1   
     9    3   13 1   
    10    4    5 1   
    11    4   14 1   
    12    4   15 1   
    13    5    7 1   
    14    5    9 1   
    15    5   16 1   
    16    6   17 1   
    17    6   18 1   
    18    6   19 1   
    19    7   20 1   
    20    9   10 1   
    21    9   21 1   
    22   10   22 1   
    23   11   23 1   
@<TRIPOS>SUBSTRUCTURE
     1 BG5         1 TEMP              0 ****  ****    0 ROOT
