@<TRIPOS>MOLECULE
BG5
   22    21     1     0     0
SMALL
bcc


@<TRIPOS>ATOM
      1 C1         -1.7410    0.9140   -0.8390 c1        1 BG5      0.822000
      2 C2         -0.2640    0.9180   -0.8900 c2        1 BG5      0.166200
      3 C3          0.3300    0.8710    0.6030 c3        1 BG5     -0.148000
      4 C4          0.7940   -0.5100    0.8250 c3        1 BG5     -0.072400
      5 C5          0.3240   -1.1890   -0.1430 c3        1 BG5      0.169200
      6 C6          1.4530    1.8050    0.7270 c3        1 BG5     -0.075100
      7 N1          0.1540   -0.1930   -1.3660 nh        1 BG5     -0.352100
      8 O1         -2.3960    0.3500   -1.7440 o         1 BG5     -0.804000
      9 N2         -0.9780   -1.7620    0.2270 n3        1 BG5     -0.545700
     10 O2         -1.3260   -2.7550   -0.6890 oh        1 BG5     -0.455300
     11 O3         -2.3380    1.5300    0.0740 o         1 BG5     -0.804000
     12 H2         -0.0960    1.7270   -1.4170 h4        1 BG5     -0.087200
     13 H3         -0.3610    1.0960    1.2420 hc        1 BG5      0.101700
     14 H41         1.7860   -0.5440    0.8200 hc        1 BG5      0.032700
     15 H42         0.4450   -0.8510    1.6800 hc        1 BG5      0.032700
     16 H5          0.9490   -1.9070   -0.3820 h2        1 BG5     -0.021300
     17 H61         2.1260    1.5860    0.0710 hc        1 BG5      0.021700
     18 H62         1.8370    1.7360    1.6230 hc        1 BG5      0.021700
     19 H63         1.1360    2.7230    0.5760 hc        1 BG5      0.021700
     20 HN1         0.9480   -0.0680   -1.7630 hn        1 BG5      0.204700
     21 HN2        -0.9230   -2.1230    1.0560 hn        1 BG5      0.335800
     22 HO2        -1.8600   -3.3560   -0.2900 ho        1 BG5      0.435000
@<TRIPOS>BOND
     1    1    8 2   
     2    1   11 2   
     3    2    3 1   
     4    2    7 2   
     5    2   12 1   
     6    3    4 1   
     7    3    6 1   
     8    3   13 1   
     9    4    5 1   
    10    4   14 1   
    11    4   15 1   
    12    5    7 1   
    13    5    9 1   
    14    5   16 1   
    15    6   17 1   
    16    6   18 1   
    17    6   19 1   
    18    7   20 1   
    19    9   10 1   
    20    9   21 1   
    21   10   22 1   
@<TRIPOS>SUBSTRUCTURE
     1 BG5         1 TEMP              0 ****  ****    0 ROOT
