@<TRIPOS>MOLECULE
BG5
   23    23     1     0     0
SMALL
bcc


@<TRIPOS>ATOM
      1 C1         -0.1010   -0.0320    0.1990 c         1 BG5      0.596100
      2 C2          1.4160   -0.0750    0.0890 c3        1 BG5      0.073500
      3 C3          2.0500    0.0290    1.5040 c3        1 BG5     -0.067700
      4 C4          3.0080   -1.1590    1.6070 c3        1 BG5     -0.087400
      5 C5          2.6580   -2.0930    0.4140 c3        1 BG5      0.344700
      6 C6          2.7530    1.3490    1.6990 c3        1 BG5     -0.092100
      7 N1          1.9590   -1.2560   -0.5770 n7        1 BG5     -0.791200
      8 O1         -0.8260    0.8700   -0.2170 o         1 BG5     -0.481000
      9 N2          1.8790   -3.2870    0.8850 n7        1 BG5     -0.613700
     10 O2          1.8540   -4.2140   -0.0820 oh        1 BG5     -0.423300
     11 O3         -0.7790   -1.0580    0.7920 oh        1 BG5     -0.585100
     12 H2          1.7190    0.8140   -0.5410 h1        1 BG5      0.109700
     13 H3          1.2430   -0.0730    2.2800 hc        1 BG5      0.060700
     14 H41         4.0690   -0.8240    1.4960 hc        1 BG5      0.062700
     15 H42         2.9100   -1.6660    2.5970 hc        1 BG5      0.062700
     16 H5          3.6040   -2.4400   -0.1040 h2        1 BG5      0.079700
     17 H61         3.5520    1.4920    0.9310 hc        1 BG5      0.046700
     18 H62         2.0250    2.1920    1.6130 hc        1 BG5      0.046700
     19 H63         3.2230    1.3850    2.7110 hc        1 BG5      0.046700
     20 HN1         1.2630   -1.7600   -1.0930 hn        1 BG5      0.380800
     21 HN2         2.4030   -3.6880    1.6620 hn        1 BG5      0.371800
     22 HO2         0.9160   -4.2780   -0.3450 ho        1 BG5      0.423000
     23 H22        -0.1570   -1.6980    1.1650 ho        1 BG5      0.437000
@<TRIPOS>BOND
     1    1    2 1   
     2    1    8 2   
     3    1   11 1   
     4    2    3 1   
     5    2    7 1   
     6    2   12 1   
     7    3    4 1   
     8    3    6 1   
     9    3   13 1   
    10    4    5 1   
    11    4   14 1   
    12    4   15 1   
    13    5    7 1   
    14    5    9 1   
    15    5   16 1   
    16    6   17 1   
    17    6   18 1   
    18    6   19 1   
    19    7   20 1   
    20    9   10 1   
    21    9   21 1   
    22   10   22 1   
    23   11   23 1   
@<TRIPOS>SUBSTRUCTURE
     1 BG5         1 TEMP              0 ****  ****    0 ROOT
