@<TRIPOS>MOLECULE
BG5
   22    22     1     0     0
SMALL
bcc


@<TRIPOS>ATOM
      1 C1         -0.0930    0.3220    0.7970 c         1 BG5      0.914600
      2 C2         -1.4190    0.8660    1.4170 c3        1 BG5      0.028500
      3 C3         -1.2040    1.1290    2.9290 c3        1 BG5     -0.070700
      4 C4         -1.9440    2.4280    3.2360 c3        1 BG5     -0.092400
      5 C5         -2.4700    2.9410    1.8630 c3        1 BG5      0.339700
      6 C6         -1.6770   -0.0350    3.7610 c3        1 BG5     -0.081100
      7 N1         -1.9490    2.0780    0.7880 n3        1 BG5     -0.790200
      8 O1          0.1890   -0.8790    1.0610 o         1 BG5     -0.833800
      9 N2         -2.2270    4.4100    1.7200 n3        1 BG5     -0.535700
     10 O2         -2.5750    4.9030    0.5350 oh        1 BG5     -0.403300
     11 O3          0.6120    1.0960    0.0950 o         1 BG5     -0.833800
     12 H2         -2.2040    0.0690    1.2850 h1        1 BG5      0.048700
     13 H3         -0.1040    1.2750    3.1080 hc        1 BG5      0.067700
     14 H41        -2.8070    2.2590    3.9240 hc        1 BG5      0.033700
     15 H42        -1.2580    3.1660    3.7180 hc        1 BG5      0.033700
     16 H5         -3.5980    2.7690    1.8380 h2        1 BG5      0.008700
     17 H61        -1.4460    0.1310    4.8400 hc        1 BG5      0.028033
     18 H62        -2.7790   -0.1840    3.6560 hc        1 BG5      0.028033
     19 H63        -1.1560   -0.9620    3.4110 hc        1 BG5      0.028033
     20 HN1        -1.2090    2.5290    0.2680 hn        1 BG5      0.394800
     21 HN2        -2.8140    4.8380    2.4400 hn        1 BG5      0.311800
     22 HO2        -3.3220    4.4000    0.1510 ho        1 BG5      0.375000
@<TRIPOS>BOND
     1    1    2 1   
     2    1    8 1   
     3    1   11 1   
     4    2    3 1   
     5    2    7 1   
     6    2   12 1   
     7    3    4 1   
     8    3    6 1   
     9    3   13 1   
    10    4    5 1   
    11    4   14 1   
    12    4   15 1   
    13    5    7 1   
    14    5    9 1   
    15    5   16 1   
    16    6   17 1   
    17    6   18 1   
    18    6   19 1   
    19    7   20 1   
    20    9   10 1   
    21    9   21 1   
    22   10   22 1   
@<TRIPOS>SUBSTRUCTURE
     1 BG5         1 TEMP              0 ****  ****    0 ROOT
