@<TRIPOS>MOLECULE
BG6
   27    27     1     0     0
SMALL
bcc


@<TRIPOS>ATOM
      1 C1         -0.3810    0.1170   -1.7910 c3        1 BG6      0.329900
      2 C2          1.1300    0.1560   -1.8630 c3        1 BG6      0.061100
      3 O1         -0.8330    1.3060   -1.2600 oh        1 BG6     -0.680800
      4 O5         -0.8830   -1.0080   -0.9550 os        1 BG6     -0.429600
      5 C3          1.7580    0.1190   -0.5200 c3        1 BG6      0.127100
      6 O2          1.5900   -0.9780   -2.6220 oh        1 BG6     -0.621800
      7 C4          1.2490   -1.0120    0.3110 c3        1 BG6      0.084100
      8 O3          1.4760    1.3680    0.1650 oh        1 BG6     -0.620800
      9 C5         -0.2690   -1.0480    0.3710 c3        1 BG6      0.045100
     10 O4          1.7200   -2.2470   -0.2480 oh        1 BG6     -0.623800
     11 C6         -0.7520    0.1300    1.1660 c3        1 BG6      0.227400
     12 O6         -2.1690    0.0900    1.2570 os        1 BG6     -0.551200
     13 P          -2.8690    0.7590    2.5210 p5        1 BG6      1.309900
     14 O1P        -2.4020    2.1880    2.6560 o         1 BG6     -0.923167
     15 O2P        -4.3700    0.7350    2.3380 o         1 BG6     -0.923167
     16 O3P        -2.5020   -0.0100    3.7660 o         1 BG6     -0.923167
     17 HC1        -0.7380    0.0190   -2.6990 h2        1 BG6      0.044700
     18 HC2         1.4060    0.9800   -2.3210 h1        1 BG6      0.069700
     19 HO1        -1.2960    1.7460   -1.8720 ho        1 BG6      0.498000
     20 HC3         2.7250    0.0260   -0.6240 h1        1 BG6      0.078700
     21 HO2         1.9110   -0.7000   -3.4050 ho        1 BG6      0.394000
     22 HC4         1.6000   -0.9210    1.2200 h1        1 BG6      0.081700
     23 HO3         2.2430    1.7620    0.3920 ho        1 BG6      0.414000
     24 HC5        -0.5460   -1.8660    0.8200 h1        1 BG6      0.145700
     25 HO4         2.0440   -2.7660    0.4050 ho        1 BG6      0.406000
     26 HC61       -0.4770    0.9570    0.7230 h1        1 BG6     -0.009800
     27 HC62       -0.3660    0.0970    2.0670 h1        1 BG6     -0.009800
@<TRIPOS>BOND
     1    1    2 1   
     2    1    3 1   
     3    1    4 1   
     4    1   17 1   
     5    2    5 1   
     6    2    6 1   
     7    2   18 1   
     8    3   19 1   
     9    4    9 1   
    10    5    7 1   
    11    5    8 1   
    12    5   20 1   
    13    6   21 1   
    14    7    9 1   
    15    7   10 1   
    16    7   22 1   
    17    8   23 1   
    18    9   11 1   
    19    9   24 1   
    20   10   25 1   
    21   11   12 1   
    22   11   26 1   
    23   11   27 1   
    24   12   13 1   
    25   13   14 1   
    26   13   15 1   
    27   13   16 1   
@<TRIPOS>SUBSTRUCTURE
     1 BG6         1 TEMP              0 ****  ****    0 ROOT
