@<TRIPOS>MOLECULE
BG6
   27    27     1     0     0
SMALL
bcc


@<TRIPOS>ATOM
      1 C1          0.1690   -0.1710   -0.0880 c3        1 BG6      0.317900
      2 C2          1.6720   -0.1970    0.2420 c3        1 BG6      0.050100
      3 O1         -0.0200   -0.2540   -1.4870 oh        1 BG6     -0.649800
      4 O5         -0.3990    1.0680    0.2540 os        1 BG6     -0.451600
      5 C3          1.8990    0.1420    1.7240 c3        1 BG6      0.117100
      6 O2          2.2220   -1.4880    0.0030 oh        1 BG6     -0.624800
      7 C4          1.1510    1.4460    2.1070 c3        1 BG6      0.171100
      8 O3          3.2880    0.3510    1.9300 oh        1 BG6     -0.586800
      9 C5         -0.3190    1.3480    1.6670 c3        1 BG6      0.057100
     10 O4          1.2940    1.6370    3.4850 oh        1 BG6     -0.669800
     11 C6         -1.0840    2.6840    1.8950 c3        1 BG6      0.235400
     12 O6         -2.2750    2.4720    2.5300 os        1 BG6     -0.558200
     13 P          -2.2170    2.8110    4.2410 p5        1 BG6      1.325900
     14 O1P        -3.6240    2.5880    4.7000 o         1 BG6     -0.917500
     15 O2P        -1.1980    1.7520    4.6170 o         1 BG6     -0.917500
     16 O3P        -1.6820    4.2130    4.2490 o         1 BG6     -0.917500
     17 HC1        -0.3680   -1.0410    0.3820 h2        1 BG6      0.060700
     18 HC2         2.2120    0.5500   -0.4040 h1        1 BG6      0.044700
     19 HO1        -0.2580    0.6280   -1.8040 ho        1 BG6      0.425000
     20 HC3         1.5380   -0.7020    2.3710 h1        1 BG6      0.051700
     21 HO2         1.8760   -1.7700   -0.8520 ho        1 BG6      0.398000
     22 HC4         1.6600    2.3020    1.5800 h1        1 BG6      0.026700
     23 HO3         3.7020   -0.5110    1.7990 ho        1 BG6      0.378000
     24 HC5        -0.8290    0.5200    2.2320 h1        1 BG6      0.088700
     25 HO4         0.3870    1.7400    3.9160 ho        1 BG6      0.521000
     26 HC61       -0.4190    3.3700    2.4960 h1        1 BG6      0.013200
     27 HC62       -1.2690    3.1390    0.8780 h1        1 BG6      0.013200
@<TRIPOS>BOND
     1    1    2 1   
     2    1    3 1   
     3    1    4 1   
     4    1   17 1   
     5    2    5 1   
     6    2    6 1   
     7    2   18 1   
     8    3   19 1   
     9    4    9 1   
    10    5    7 1   
    11    5    8 1   
    12    5   20 1   
    13    6   21 1   
    14    7    9 1   
    15    7   10 1   
    16    7   22 1   
    17    8   23 1   
    18    9   11 1   
    19    9   24 1   
    20   10   25 1   
    21   11   12 1   
    22   11   26 1   
    23   11   27 1   
    24   12   13 1   
    25   13   14 1   
    26   13   15 1   
    27   13   16 1   
@<TRIPOS>SUBSTRUCTURE
     1 BG6         1 TEMP              0 ****  ****    0 ROOT
