@<TRIPOS>MOLECULE
BG6
   27    27     1     0     0
SMALL
bcc


@<TRIPOS>ATOM
      1 C1          1.5390    0.2120   -2.4630 c3        1 BG6      0.319900
      2 C2          0.2950   -0.2620   -3.2320 c3        1 BG6      0.046100
      3 O1          2.6990   -0.4220   -2.9650 oh        1 BG6     -0.648800
      4 O5          1.4840   -0.2070   -1.1250 os        1 BG6     -0.456600
      5 C3         -0.9690    0.3030   -2.5700 c3        1 BG6      0.134100
      6 O2          0.3250    0.2000   -4.5780 oh        1 BG6     -0.625800
      7 C4         -0.9860    0.0230   -1.0480 c3        1 BG6      0.173100
      8 O3         -2.1030   -0.3320   -3.1440 oh        1 BG6     -0.581800
      9 C5          0.3710    0.3440   -0.3920 c3        1 BG6      0.062100
     10 O4         -1.9670    0.8700   -0.5140 oh        1 BG6     -0.683800
     11 C6          0.4910   -0.2590    1.0370 c3        1 BG6      0.243400
     12 O6          0.0820    0.6630    1.9590 os        1 BG6     -0.561200
     13 P          -1.1770    0.0840    3.0120 p5        1 BG6      1.327900
     14 O1P        -1.4000    1.2330    3.9440 o         1 BG6     -0.915500
     15 O2P        -2.2470   -0.1570    1.9640 o         1 BG6     -0.915500
     16 O3P        -0.5630   -1.1680    3.5650 o         1 BG6     -0.915500
     17 HC1         1.6910    1.3210   -2.5700 h2        1 BG6      0.054700
     18 HC2         0.2560   -1.3860   -3.2340 h1        1 BG6      0.051700
     19 HO1         2.8970   -1.1700   -2.3840 ho        1 BG6      0.425000
     20 HC3        -1.0250    1.4130   -2.7480 h1        1 BG6      0.044700
     21 HO2         1.2150    0.0150   -4.9020 ho        1 BG6      0.398000
     22 HC4        -1.2500   -1.0570   -0.8780 h1        1 BG6      0.052700
     23 HO3        -2.1240   -0.0450   -4.0640 ho        1 BG6      0.378000
     24 HC5         0.4990    1.4590   -0.3370 h1        1 BG6      0.053700
     25 HO4        -2.0780    0.6200    0.4620 ho        1 BG6      0.525000
     26 HC61       -0.1170   -1.2050    1.0960 h1        1 BG6      0.007700
     27 HC62        1.5830   -0.5130    1.1850 h1        1 BG6      0.007700
@<TRIPOS>BOND
     1    1    2 1   
     2    1    3 1   
     3    1    4 1   
     4    1   17 1   
     5    2    5 1   
     6    2    6 1   
     7    2   18 1   
     8    3   19 1   
     9    4    9 1   
    10    5    7 1   
    11    5    8 1   
    12    5   20 1   
    13    6   21 1   
    14    7    9 1   
    15    7   10 1   
    16    7   22 1   
    17    8   23 1   
    18    9   11 1   
    19    9   24 1   
    20   10   25 1   
    21   11   12 1   
    22   11   26 1   
    23   11   27 1   
    24   12   13 1   
    25   13   14 1   
    26   13   15 1   
    27   13   16 1   
@<TRIPOS>SUBSTRUCTURE
     1 BG6         1 TEMP              0 ****  ****    0 ROOT
