@<TRIPOS>MOLECULE
BG8
   38    39     1     0     0
SMALL
bcc


@<TRIPOS>ATOM
      1 C01        -0.2360    0.1770    0.2400 c3        1 BG8      0.129100
      2 C02         1.2660    0.1710   -0.1180 c3        1 BG8      0.038500
      3 C03         2.0480    0.1510    1.2330 c3        1 BG8      0.351900
      4 O04         1.7560   -1.0580    1.9000 os        1 BG8     -0.421600
      5 C05         0.3810   -1.2000    2.2730 c3        1 BG8      0.072100
      6 C06        -0.5350   -1.1070    1.0400 c3        1 BG8      0.098100
      7 N07         1.6390    1.3220   -0.9880 n4        1 BG8     -0.658800
      8 O08        -1.8900   -0.9810    1.4210 oh        1 BG8     -0.603800
      9 O09        -0.9550    0.2280   -0.9760 oh        1 BG8     -0.624800
     10 C10         0.2830   -2.5840    2.9370 c3        1 BG8      0.130400
     11 O11         3.4240    0.1030    1.0120 oh        1 BG8     -0.598800
     12 O12        -1.0410   -2.8030    3.3680 oh        1 BG8     -0.595800
     13 C13         2.9450    1.1290   -1.7530 c         1 BG8      0.590700
     14 O15         3.2890   -0.0240   -1.9590 o         1 BG8     -0.417100
     15 C14         5.0240    2.3220   -2.2430 ca        1 BG8     -0.069000
     16 C16         3.6240    2.3690   -2.1330 ca        1 BG8     -0.204600
     17 C17         2.9340    3.5580   -2.4180 ca        1 BG8     -0.069000
     18 C18         3.6460    4.6910   -2.7980 ca        1 BG8     -0.122500
     19 C19         5.0410    4.6490   -2.8950 ca        1 BG8     -0.054000
     20 C20         5.7260    3.4660   -2.6190 ca        1 BG8     -0.122500
     21 H1         -0.5000    1.0780    0.8640 h1        1 BG8      0.071700
     22 H2          1.5060   -0.7760   -0.6940 hx        1 BG8      0.146700
     23 H3          1.8170    1.0580    1.8580 h2        1 BG8      0.087700
     24 H4          0.1060   -0.3930    3.0070 h1        1 BG8      0.071700
     25 H5         -0.3930   -2.0100    0.3830 h1        1 BG8      0.076700
     26 H6          1.7200    2.1700   -0.4180 hn        1 BG8      0.465300
     27 H7         -2.1490   -1.8060    1.8620 ho        1 BG8      0.457000
     28 H8         -1.8660   -0.0500   -0.7860 ho        1 BG8      0.467000
     29 H9          1.0180   -2.6510    3.7800 h1        1 BG8      0.079200
     30 H10         0.4920   -3.3940    2.1880 h1        1 BG8      0.079200
     31 H11         3.7300   -0.8170    1.0790 ho        1 BG8      0.463000
     32 H12        -1.1560   -2.3630    4.2200 ho        1 BG8      0.421000
     33 H14         1.8360    3.6110   -2.3790 ha        1 BG8      0.148500
     34 H15         3.1070    5.6250   -3.0310 ha        1 BG8      0.167500
     35 H16         5.5970    5.5530   -3.1950 ha        1 BG8      0.167000
     36 H17         6.8250    3.4290   -2.7020 ha        1 BG8      0.167500
     37 H072        0.8790    1.4550   -1.6730 hn        1 BG8      0.465300
     38 H13         5.5610    1.3810   -2.0350 ha        1 BG8      0.148500
@<TRIPOS>BOND
     1    1    2 1   
     2    1    6 1   
     3    1    9 1   
     4    1   21 1   
     5    2    3 1   
     6    2    7 1   
     7    2   22 1   
     8    3    4 1   
     9    3   11 1   
    10    3   23 1   
    11    4    5 1   
    12    5    6 1   
    13    5   10 1   
    14    5   24 1   
    15    6    8 1   
    16    6   25 1   
    17    7   13 1   
    18    7   26 1   
    19    7   37 1   
    20    8   27 1   
    21    9   28 1   
    22   10   12 1   
    23   10   29 1   
    24   10   30 1   
    25   11   31 1   
    26   12   32 1   
    27   13   14 2   
    28   13   16 1   
    29   15   16 ar  
    30   15   20 ar  
    31   15   38 1   
    32   16   17 ar  
    33   17   18 ar  
    34   17   33 1   
    35   18   19 ar  
    36   18   34 1   
    37   19   20 ar  
    38   19   35 1   
    39   20   36 1   
@<TRIPOS>SUBSTRUCTURE
     1 BG8         1 TEMP              0 ****  ****    0 ROOT
