@<TRIPOS>MOLECULE
BG8
   38    39     1     0     0
SMALL
bcc


@<TRIPOS>ATOM
      1 C01        -0.2390    0.1980    0.2470 c3        1 BG8      0.129100
      2 C02         1.2600    0.1770   -0.1190 c3        1 BG8      0.038500
      3 C03         2.0490    0.1360    1.2280 c3        1 BG8      0.351900
      4 O04         1.7460   -1.0750    1.8850 os        1 BG8     -0.421600
      5 C05         0.3710   -1.2040    2.2650 c3        1 BG8      0.072100
      6 C06        -0.5490   -1.0890    1.0370 c3        1 BG8      0.098100
      7 N07         1.6420    1.3320   -0.9800 ny        1 BG8     -0.658800
      8 O08        -1.9010   -0.9500    1.4260 oh        1 BG8     -0.603800
      9 O09        -0.9640    0.2690   -0.9640 oh        1 BG8     -0.624800
     10 C10         0.2600   -2.5930    2.9170 c3        1 BG8      0.130400
     11 O11         3.4230    0.0730    0.9990 oh        1 BG8     -0.598800
     12 O12        -1.0640   -2.8000    3.3520 oh        1 BG8     -0.595800
     13 C13         2.9420    1.1300   -1.7540 c         1 BG8      0.590700
     14 O15         3.2720   -0.0250   -1.9720 o         1 BG8     -0.417100
     15 C14         5.0320    2.3020   -2.2490 ca        1 BG8     -0.069000
     16 C16         3.6330    2.3650   -2.1290 ca        1 BG8     -0.204600
     17 C17         2.9560    3.5640   -2.4000 ca        1 BG8     -0.069000
     18 C18         3.6780    4.6920   -2.7750 ca        1 BG8     -0.122500
     19 C19         5.0720    4.6340   -2.8810 ca        1 BG8     -0.054000
     20 C20         5.7440    3.4410   -2.6200 ca        1 BG8     -0.122500
     21 H1         -0.4890    1.0960    0.8810 h1        1 BG8      0.071700
     22 H2          1.4860   -0.7670   -0.7040 hx        1 BG8      0.146700
     23 H3          1.8330    1.0400    1.8620 h2        1 BG8      0.087700
     24 H4          0.1100   -0.4010    3.0070 h1        1 BG8      0.071700
     25 H5         -0.4220   -1.9880    0.3710 h1        1 BG8      0.076700
     26 H6          1.7380    2.1730   -0.4030 hn        1 BG8      0.465300
     27 H7         -2.1680   -1.7760    1.8620 ho        1 BG8      0.457000
     28 H8         -1.8770    0.0000   -0.7720 ho        1 BG8      0.467000
     29 H9          0.4560   -3.3990    2.1590 h1        1 BG8      0.079200
     30 H10         0.9990   -2.6760    3.7550 h1        1 BG8      0.079200
     31 H11         3.7190   -0.8510    1.0560 ho        1 BG8      0.463000
     32 H12        -1.1700   -2.3670    4.2090 ho        1 BG8      0.421000
     33 H14         1.8580    3.6300   -2.3530 ha        1 BG8      0.148500
     34 H15         3.1490    5.6330   -2.9970 ha        1 BG8      0.167500
     35 H16         5.6370    5.5340   -3.1780 ha        1 BG8      0.167000
     36 H17         6.8420    3.3920   -2.7100 ha        1 BG8      0.167500
     37 H072        0.8800    1.4800   -1.6590 hn        1 BG8      0.465300
     38 H13         5.5590    1.3530   -2.0510 ha        1 BG8      0.148500
@<TRIPOS>BOND
     1    1    2 1   
     2    1    6 1   
     3    1    9 1   
     4    1   21 1   
     5    2    3 1   
     6    2    7 1   
     7    2   22 1   
     8    3    4 1   
     9    3   11 1   
    10    3   23 1   
    11    4    5 1   
    12    5    6 1   
    13    5   10 1   
    14    5   24 1   
    15    6    8 1   
    16    6   25 1   
    17    7   13 1   
    18    7   26 1   
    19    7   37 1   
    20    8   27 1   
    21    9   28 1   
    22   10   12 1   
    23   10   29 1   
    24   10   30 1   
    25   11   31 1   
    26   12   32 1   
    27   13   14 2   
    28   13   16 1   
    29   15   16 ar  
    30   15   20 ar  
    31   15   38 1   
    32   16   17 ar  
    33   17   18 ar  
    34   17   33 1   
    35   18   19 ar  
    36   18   34 1   
    37   19   20 ar  
    38   19   35 1   
    39   20   36 1   
@<TRIPOS>SUBSTRUCTURE
     1 BG8         1 TEMP              0 ****  ****    0 ROOT
