@<TRIPOS>MOLECULE
BGC
   24    24     1     0     0
SMALL
bcc


@<TRIPOS>ATOM
      1 C2         -1.0700    0.4230   -1.3570 c3        1 BGC      0.088100
      2 C3          0.4200    0.4230   -1.3570 c3        1 BGC      0.104100
      3 C4          0.9930    0.4230   -0.0410 c3        1 BGC      0.084100
      4 C5          0.4820   -0.6120    0.8330 c3        1 BGC      0.153100
      5 C6          1.0440   -0.3770    2.2550 c3        1 BGC      0.134400
      6 C1         -1.7310   -0.7760   -0.5020 c3        1 BGC      0.311900
      7 O1         -2.9200   -0.6120   -0.3780 oh        1 BGC     -0.611800
      8 O2         -1.5140    0.3230   -2.6790 oh        1 BGC     -0.583800
      9 O3          0.8950    1.6370   -2.0810 oh        1 BGC     -0.585800
     10 O4          2.4940    0.2380   -0.1740 oh        1 BGC     -0.594800
     11 O5         -0.9850   -0.6510    0.9110 os        1 BGC     -0.449600
     12 O6          0.5060   -1.3360    3.1370 oh        1 BGC     -0.597800
     13 H2         -1.3790    1.2720   -0.9890 h1        1 BGC      0.057700
     14 H3          0.7330   -0.3690   -1.8340 h1        1 BGC      0.103700
     15 H4          0.8210    1.2910    0.3720 h1        1 BGC      0.048700
     16 H5          0.8000   -1.4770    0.5100 h1        1 BGC      0.080700
     17 H6C1        0.8000    0.5180    2.5580 h1        1 BGC      0.048200
     18 H6C2        2.0170   -0.4610    2.2380 h1        1 BGC      0.048200
     19 H1         -1.5420   -1.6390   -0.9170 h2        1 BGC      0.059700
     20 HA         -3.2770   -1.3230    0.0150 ho        1 BGC      0.440000
     21 HB         -2.0710    0.9910   -2.8560 ho        1 BGC      0.422000
     22 HC          0.6790    2.3620   -1.6160 ho        1 BGC      0.408000
     23 HD          2.9050    0.9990    0.0240 ho        1 BGC      0.426000
     24 H6          0.9010   -1.2660    3.9290 ho        1 BGC      0.404000
@<TRIPOS>BOND
     1    1    2 1   
     2    1    6 1   
     3    1    8 1   
     4    1   13 1   
     5    2    3 1   
     6    2    9 1   
     7    2   14 1   
     8    3    4 1   
     9    3   10 1   
    10    3   15 1   
    11    4    5 1   
    12    4   11 1   
    13    4   16 1   
    14    5   12 1   
    15    5   17 1   
    16    5   18 1   
    17    6    7 1   
    18    6   11 1   
    19    6   19 1   
    20    7   20 1   
    21    8   21 1   
    22    9   22 1   
    23   10   23 1   
    24   12   24 1   
@<TRIPOS>SUBSTRUCTURE
     1 BGC         1 TEMP              0 ****  ****    0 ROOT
