@<TRIPOS>MOLECULE
BGC
   24    24     1     0     0
SMALL
bcc


@<TRIPOS>ATOM
      1 C2         -1.6490    0.2560   -0.1650 c3        1 BGC      0.078100
      2 C3         -1.0480   -1.0930    0.2510 c3        1 BGC      0.108100
      3 C4          0.3980   -1.1960   -0.2680 c3        1 BGC      0.118100
      4 C5          1.2170    0.0030    0.2430 c3        1 BGC      0.153100
      5 C6          2.6260   -0.0060   -0.3530 c3        1 BGC      0.134400
      6 C1         -0.7170    1.3940    0.2980 c3        1 BGC      0.314900
      7 O1         -1.1340    2.5860   -0.3190 oh        1 BGC     -0.612800
      8 O2         -2.9100    0.3530    0.4730 oh        1 BGC     -0.603800
      9 O3         -1.7600   -2.1700   -0.3320 oh        1 BGC     -0.607800
     10 O4          1.0190   -2.3700    0.2240 oh        1 BGC     -0.595800
     11 O5          0.6040    1.2200   -0.1930 os        1 BGC     -0.449600
     12 O6          3.4560    0.7090    0.5470 oh        1 BGC     -0.597800
     13 H2         -1.7790    0.3010   -1.2810 h1        1 BGC      0.072700
     14 H3         -1.0680   -1.1930    1.3720 h1        1 BGC      0.065700
     15 H4          0.3910   -1.2130   -1.3930 h1        1 BGC      0.061700
     16 H5          1.2710   -0.0120    1.3660 h1        1 BGC      0.080700
     17 H6C1        2.9770   -1.0700   -0.4400 h1        1 BGC      0.048200
     18 H6C2        2.6250    0.4860   -1.3620 h1        1 BGC      0.048200
     19 H1         -0.7240    1.5040    1.4180 h2        1 BGC      0.058700
     20 HA         -0.3460    3.1050   -0.5410 ho        1 BGC      0.440000
     21 HB         -3.2630    1.2260    0.2520 ho        1 BGC      0.427000
     22 HC         -2.6860   -2.0570   -0.0790 ho        1 BGC      0.428000
     23 HD          0.4270   -3.1030    0.0050 ho        1 BGC      0.427000
     24 H6          4.3260    0.7600    0.1350 ho        1 BGC      0.404000
@<TRIPOS>BOND
     1    1    2 1   
     2    1    6 1   
     3    1    8 1   
     4    1   13 1   
     5    2    3 1   
     6    2    9 1   
     7    2   14 1   
     8    3    4 1   
     9    3   10 1   
    10    3   15 1   
    11    4    5 1   
    12    4   11 1   
    13    4   16 1   
    14    5   12 1   
    15    5   17 1   
    16    5   18 1   
    17    6    7 1   
    18    6   11 1   
    19    6   19 1   
    20    7   20 1   
    21    8   21 1   
    22    9   22 1   
    23   10   23 1   
    24   12   24 1   
@<TRIPOS>SUBSTRUCTURE
     1 BGC         1 TEMP              0 ****  ****    0 ROOT
