@<TRIPOS>MOLECULE
BGF
   41    33     1     0     0
SMALL
bcc


@<TRIPOS>ATOM
      1 CA          0.5050   -0.0190   -1.3410 ce        1 BGF     -0.000700
      2 CB          1.8840    0.0140   -1.3310 c1        1 BGF     -0.068900
      3 CB'         2.2970    0.0120   -0.0280 c1        1 BGF     -0.068900
      4 CA'         1.1740   -0.0210    0.7730 ce        1 BGF     -0.000700
      5 O1          0.0720   -0.0410   -0.0410 os        1 BGF     -0.184200
      6 C1         -0.3020   -0.0120   -2.4680 cg        1 BGF      0.020700
      7 C2         -0.6410   -1.2050   -3.0860 c1        1 BGF     -0.033500
      8 C3         -1.4350   -1.1970   -4.2220 c1        1 BGF     -0.033500
      9 C4         -1.8900    0.0050   -4.7400 cg        1 BGF     -0.202200
     10 C5         -1.5510    1.1990   -4.1220 c1        1 BGF     -0.017500
     11 C6         -0.7570    1.1900   -2.9860 c1        1 BGF     -0.049500
     12 C7         -2.7730    0.0130   -5.9690 ce        1 BGF      0.812100
     13 N1         -4.1800   -0.0980   -5.8320 nh        1 BGF     -0.872300
     14 N2         -2.2370    0.1230   -7.1580 n2        1 BGF     -0.842600
     15 C1'         1.1630   -0.0140    2.1590 cg        1 BGF      0.020700
     16 C2'         1.1570   -1.2110    2.8570 c1        1 BGF     -0.033500
     17 C3'         1.2120   -1.2060    4.2420 c1        1 BGF     -0.033500
     18 C4'         1.2720   -0.0040    4.9290 cg        1 BGF     -0.202200
     19 C5'         1.2780    1.1930    4.2310 c1        1 BGF     -0.017500
     20 C6'         1.2230    1.1880    2.8460 c1        1 BGF     -0.049500
     21 C7'         1.3250    0.0020    6.4410 ce        1 BGF      0.812100
     22 N1'         2.5770   -0.0080    7.1070 nh        1 BGF     -0.872300
     23 N2'         0.2150    0.0160    7.1340 n2        1 BGF     -0.842600
     24 HB          2.4640    0.0340   -2.1170 DU        1 BGF      0.235250
     25 HB'         3.2220    0.0320    0.2810 DU        1 BGF      0.235250
     26 H2         -0.3200   -2.0520   -2.7210 ha        1 BGF      0.105500
     27 H3         -1.6740   -2.0380   -4.6570 ha        1 BGF      0.105500
     28 H5         -1.8720    2.0450   -4.4870 ha        1 BGF      0.098500
     29 H6         -0.5190    2.0310   -2.5510 ha        1 BGF      0.112500
     30 HN11       -4.5540   -0.1810   -5.0020 hn        1 BGF      0.485050
     31 HN12       -4.7160   -0.0600   -6.5730 hn        1 BGF      0.485050
     32 HN21       -1.3280    0.1950   -7.2460 DU        1 BGF      0.235250
     33 HN22       -2.7710    0.1280   -7.9020 hn        1 BGF      0.518400
     34 H2'         1.1150   -2.0580    2.3740 ha        1 BGF      0.105500
     35 H3'         1.2090   -2.0490    4.7340 ha        1 BGF      0.105500
     36 H5'         1.3200    2.0400    4.7140 ha        1 BGF      0.098500
     37 H6'         1.2260    2.0310    2.3540 ha        1 BGF      0.112500
     38 H1'1        3.3410   -0.2000    6.6420 hn        1 BGF      0.485050
     39 H1'2        2.6160    0.1420    8.0080 hn        1 BGF      0.485050
     40 H2'1       -0.5940    0.0230    6.7030 DU        1 BGF      0.235250
     41 H2'2        0.2460    0.0200    8.0490 hn        1 BGF      0.518400
@<TRIPOS>BOND
     1    1    2 2   
     2    1    5 1   
     3    1    6 1   
     4    2    3 2   
     5    3    4 2   
     6    4    5 1   
     7    4   15 1   
     8    6   11 3   
     9    7    8 3   
    10    7   26 1   
    11    8   27 1   
    12    9   10 3   
    13    9   12 1   
    14   10   28 1   
    15   11   29 1   
    16   12   13 1   
    17   12   14 2   
    18   13   30 1   
    19   13   31 1   
    20   14   33 1   
    21   15   20 3   
    22   16   17 3   
    23   16   34 1   
    24   17   35 1   
    25   18   19 3   
    26   18   21 1   
    27   19   36 1   
    28   20   37 1   
    29   21   22 1   
    30   21   23 2   
    31   22   38 1   
    32   22   39 1   
    33   23   41 1   
@<TRIPOS>SUBSTRUCTURE
     1 BGF         1 TEMP              0 ****  ****    0 ROOT
