@<TRIPOS>MOLECULE
BGF
   41    43     1     0     0
SMALL
bcc


@<TRIPOS>ATOM
      1 CA          1.1230   -1.2970   -0.0280 cc        1 BGF      0.179700
      2 CB          0.7180   -2.6260   -0.0200 cc        1 BGF     -0.197300
      3 CB'        -0.7190   -2.6260    0.0110 cd        1 BGF     -0.197300
      4 CA'        -1.1230   -1.2960    0.0230 cd        1 BGF      0.179700
      5 O1         -0.0000   -0.4530   -0.0010 os        1 BGF     -0.354800
      6 C1          2.4230   -0.6780   -0.0590 cd        1 BGF      0.054000
      7 C2          2.5670    0.7190   -0.1250 cd        1 BGF     -0.107000
      8 C3          3.8320    1.2960   -0.1630 cc        1 BGF     -0.075000
      9 C4          4.9710    0.4800   -0.1270 cc        1 BGF     -0.172000
     10 C5          4.8400   -0.9130   -0.0560 cc        1 BGF     -0.075000
     11 C6          3.5740   -1.4870   -0.0270 cd        1 BGF     -0.107000
     12 C7          6.3270    1.0930   -0.1640 c2        1 BGF      0.506000
     13 N1          6.5920    2.0200   -1.1110 nh        1 BGF     -0.802100
     14 N2          7.2400    0.6980    0.7500 nh        1 BGF     -0.802100
     15 C1'        -2.4240   -0.6770    0.0570 cc        1 BGF      0.054000
     16 C2'        -2.5670    0.7190    0.1270 cc        1 BGF     -0.107000
     17 C3'        -3.8320    1.2970    0.1680 cd        1 BGF     -0.075000
     18 C4'        -4.9710    0.4810    0.1280 cd        1 BGF     -0.172000
     19 C5'        -4.8400   -0.9120    0.0530 cd        1 BGF     -0.075000
     20 C6'        -3.5740   -1.4860    0.0220 cc        1 BGF     -0.107000
     21 C7'        -6.3270    1.0940    0.1680 c2        1 BGF      0.506000
     22 N1'        -7.2390    0.7030   -0.7490 nh        1 BGF     -0.802100
     23 N2'        -6.5910    2.0180    1.1180 nh        1 BGF     -0.802100
     24 HB          1.3500   -3.5130   -0.0370 ha        1 BGF      0.184000
     25 HB'        -1.3510   -3.5130    0.0250 ha        1 BGF      0.184000
     26 H2          1.6690    1.3580   -0.1450 ha        1 BGF      0.170000
     27 H3          3.9240    2.3940   -0.2030 ha        1 BGF      0.156000
     28 H5          5.7280   -1.5670   -0.0440 ha        1 BGF      0.156000
     29 H6          3.4740   -2.5850    0.0210 ha        1 BGF      0.170000
     30 HN11        5.8830    2.2430   -1.7790 hn        1 BGF      0.485050
     31 HN12        7.4740    2.4790   -1.1930 hn        1 BGF      0.485050
     32 HN21        8.1730    1.0500    0.7770 hn        1 BGF      0.485050
     33 HN22        6.9720    0.0290    1.4420 hn        1 BGF      0.485050
     34 H2'        -1.6680    1.3580    0.1500 ha        1 BGF      0.170000
     35 H3'        -3.9230    2.3940    0.2110 ha        1 BGF      0.156000
     36 H5'        -5.7280   -1.5650    0.0370 ha        1 BGF      0.156000
     37 H6'        -3.4740   -2.5840   -0.0300 ha        1 BGF      0.170000
     38 H1'1       -6.9720    0.0360   -1.4420 hn        1 BGF      0.485050
     39 H1'2       -8.1730    1.0550   -0.7740 hn        1 BGF      0.485050
     40 H2'1       -7.4730    2.4770    1.2010 hn        1 BGF      0.485050
     41 H2'2       -5.8830    2.2380    1.7870 hn        1 BGF      0.485050
@<TRIPOS>BOND
     1    1    2 1   
     2    1    5 1   
     3    1    6 2   
     4    2    3 2   
     5    2   24 1   
     6    3    4 1   
     7    3   25 1   
     8    4    5 1   
     9    4   15 2   
    10    6    7 1   
    11    6   11 1   
    12    7    8 2   
    13    7   26 1   
    14    8    9 1   
    15    8   27 1   
    16    9   10 1   
    17    9   12 2   
    18   10   11 2   
    19   10   28 1   
    20   11   29 1   
    21   12   13 1   
    22   12   14 1   
    23   13   30 1   
    24   13   31 1   
    25   14   32 1   
    26   14   33 1   
    27   15   16 1   
    28   15   20 1   
    29   16   17 2   
    30   16   34 1   
    31   17   18 1   
    32   17   35 1   
    33   18   19 1   
    34   18   21 2   
    35   19   20 2   
    36   19   36 1   
    37   20   37 1   
    38   21   22 1   
    39   21   23 1   
    40   22   38 1   
    41   22   39 1   
    42   23   40 1   
    43   23   41 1   
@<TRIPOS>SUBSTRUCTURE
     1 BGF         1 TEMP              0 ****  ****    0 ROOT
