@<TRIPOS>MOLECULE
BGG
   19    19     1     0     0
SMALL
bcc


@<TRIPOS>ATOM
      1 C1         -0.0230   -0.0110   -0.0130 ca        1 BGG     -0.104000
      2 C2          1.3710   -0.0280   -0.0110 ca        1 BGG     -0.134000
      3 C3          2.0690   -0.0340    1.1960 ca        1 BGG     -0.117000
      4 C4          1.3720   -0.0260    2.4050 ca        1 BGG     -0.134000
      5 C5         -0.0220   -0.0100    2.4070 ca        1 BGG     -0.104000
      6 C6         -0.7240    0.0040    1.1970 ca        1 BGG     -0.131300
      7 C7         -2.2130    0.0570    1.1980 c3        1 BGG      0.185700
      8 O12        -2.6740   -1.3210    1.1980 os        1 BGG     -0.386900
      9 C14        -4.0190   -1.4510    1.1990 c         1 BGG      0.765200
     10 O15        -4.8480   -0.5410    1.2000 o         1 BGG     -0.586000
     11 O16        -4.3240   -2.7660    1.1990 oh        1 BGG     -0.555100
     12 H1         -0.5740   -0.0130   -0.9660 ha        1 BGG      0.140500
     13 H2          1.9200   -0.0380   -0.9650 ha        1 BGG      0.135000
     14 H3          3.1690   -0.0480    1.1960 ha        1 BGG      0.133000
     15 H4          1.9210   -0.0360    3.3570 ha        1 BGG      0.135000
     16 H5         -0.5720   -0.0110    3.3600 ha        1 BGG      0.140500
     17 H71        -2.6170    0.5620    2.1150 h1        1 BGG      0.080700
     18 H72        -2.6180    0.5620    0.2810 h1        1 BGG      0.080700
     19 H16        -5.2950   -2.8390    1.2000 ho        1 BGG      0.457000
@<TRIPOS>BOND
     1    1    2 ar  
     2    1    6 ar  
     3    1   12 1   
     4    2    3 ar  
     5    2   13 1   
     6    3    4 ar  
     7    3   14 1   
     8    4    5 ar  
     9    4   15 1   
    10    5    6 ar  
    11    5   16 1   
    12    6    7 1   
    13    7    8 1   
    14    7   17 1   
    15    7   18 1   
    16    8    9 1   
    17    9   10 2   
    18    9   11 1   
    19   11   19 1   
@<TRIPOS>SUBSTRUCTURE
     1 BGG         1 TEMP              0 ****  ****    0 ROOT
