@<TRIPOS>MOLECULE
BGG
   18    18     1     0     0
SMALL
bcc


@<TRIPOS>ATOM
      1 C1          0.0310    0.4970   -0.0600 ca        1 BGG     -0.127000
      2 C2          1.3830    0.7070    0.2070 ca        1 BGG     -0.143500
      3 C3          1.9630    0.1580    1.3510 ca        1 BGG     -0.161000
      4 C4          1.1840   -0.6010    2.2250 ca        1 BGG     -0.143500
      5 C5         -0.1670   -0.8120    1.9610 ca        1 BGG     -0.127000
      6 C6         -0.7550   -0.2640    0.8140 ca        1 BGG     -0.065300
      7 C7         -2.2080   -0.4700    0.5070 c3        1 BGG      0.186700
      8 O12        -2.7840   -1.4260    1.3610 os        1 BGG     -0.524900
      9 C14        -3.8390   -1.0070    2.2190 c         1 BGG      0.498100
     10 O15        -4.2610    0.1610    2.0590 o         1 BGG     -0.550000
     11 O16        -4.1630   -1.9330    2.9910 o         1 BGG     -0.550000
     12 H1         -0.4260    0.9320   -0.9600 ha        1 BGG      0.144500
     13 H2          1.9910    1.3060   -0.4830 ha        1 BGG      0.111000
     14 H3          3.0270    0.3240    1.5620 ha        1 BGG      0.107000
     15 H4          1.6380   -1.0330    3.1280 ha        1 BGG      0.111000
     16 H5         -0.7980   -1.4110    2.6400 ha        1 BGG      0.144500
     17 H71        -2.7440    0.5190    0.5710 h1        1 BGG      0.044200
     18 H72        -2.3030   -0.8720   -0.5410 h1        1 BGG      0.044200
@<TRIPOS>BOND
     1    1    2 ar  
     2    1    6 ar  
     3    1   12 1   
     4    2    3 ar  
     5    2   13 1   
     6    3    4 ar  
     7    3   14 1   
     8    4    5 ar  
     9    4   15 1   
    10    5    6 ar  
    11    5   16 1   
    12    6    7 1   
    13    7    8 1   
    14    7   17 1   
    15    7   18 1   
    16    8    9 1   
    17    9   10 1   
    18    9   11 1   
@<TRIPOS>SUBSTRUCTURE
     1 BGG         1 TEMP              0 ****  ****    0 ROOT
