@<TRIPOS>MOLECULE
BGG
   19    19     1     0     0
SMALL
bcc


@<TRIPOS>ATOM
      1 C1         -1.5450   -1.2100    0.1830 ca        1 BGG     -0.099000
      2 C2         -2.8770   -1.2080   -0.2300 ca        1 BGG     -0.135000
      3 C3         -3.5430   -0.0010   -0.4380 ca        1 BGG     -0.113000
      4 C4         -2.8770    1.2080   -0.2340 ca        1 BGG     -0.135000
      5 C5         -1.5450    1.2100    0.1790 ca        1 BGG     -0.099000
      6 C6         -0.8760    0.0010    0.3940 ca        1 BGG     -0.105300
      7 C7          0.5360    0.0010    0.8700 c3        1 BGG      0.190700
      8 O12         1.3700   -0.0010   -0.3200 os        1 BGG     -0.381900
      9 C14         2.6960   -0.0000   -0.0610 c         1 BGG      0.760200
     10 O15         3.2320    0.0010    1.0460 o         1 BGG     -0.593000
     11 O16         3.3630   -0.0020   -1.2350 oh        1 BGG     -0.553100
     12 H1         -1.0170   -2.1630    0.3400 ha        1 BGG      0.136000
     13 H2         -3.4000   -2.1620   -0.3950 ha        1 BGG      0.135000
     14 H3         -4.5940   -0.0010   -0.7640 ha        1 BGG      0.134000
     15 H4         -3.4000    2.1600   -0.4010 ha        1 BGG      0.135000
     16 H5         -1.0170    2.1630    0.3340 ha        1 BGG      0.136000
     17 H71         0.7790    0.9190    1.4680 h1        1 BGG      0.064700
     18 H72         0.7790   -0.9150    1.4700 h1        1 BGG      0.064700
     19 H16         4.3150   -0.0020   -1.0280 ho        1 BGG      0.457000
@<TRIPOS>BOND
     1    1    2 ar  
     2    1    6 ar  
     3    1   12 1   
     4    2    3 ar  
     5    2   13 1   
     6    3    4 ar  
     7    3   14 1   
     8    4    5 ar  
     9    4   15 1   
    10    5    6 ar  
    11    5   16 1   
    12    6    7 1   
    13    7    8 1   
    14    7   17 1   
    15    7   18 1   
    16    8    9 1   
    17    9   10 2   
    18    9   11 1   
    19   11   19 1   
@<TRIPOS>SUBSTRUCTURE
     1 BGG         1 TEMP              0 ****  ****    0 ROOT
