@<TRIPOS>MOLECULE
BGG
   19    16     1     0     0
SMALL
bcc


@<TRIPOS>ATOM
      1 C1          1.0270   -0.3660   -1.2150 c1        1 BGG     -0.044500
      2 C2          2.4210   -0.3450   -1.2110 c1        1 BGG     -0.065250
      3 C3          3.1200   -0.3300   -0.0010 c1        1 BGG     -0.065250
      4 C4          2.3970   -0.3380    1.2460 c1        1 BGG     -0.065250
      5 C5          1.0040   -0.3590    1.2410 c1        1 BGG     -0.065250
      6 C6          0.3080   -0.3730    0.0260 c1        1 BGG     -0.097100
      7 C7         -1.2360   -0.4070    0.0270 c3        1 BGG      0.151500
      8 O12        -1.7430    0.9300    0.0680 os        1 BGG     -0.386900
      9 C14        -3.1410    1.0000    0.0730 c         1 BGG      0.765200
     10 O15        -3.8330    0.3590    1.0120 o         1 BGG     -0.586000
     11 O16        -3.7500    1.5420   -0.9000 oh        1 BGG     -0.555100
     12 H1          0.5300   -0.3760   -2.0820 ha        1 BGG      0.086500
     13 H2          2.8560   -0.3400   -1.9660 ha        1 BGG      0.077500
     14 H3          4.1030   -0.3150   -0.0010 ha        1 BGG      0.077500
     15 H4          2.8700   -0.3270    2.0730 ha        1 BGG      0.077500
     16 H5          0.5500   -0.3630    2.0200 ha        1 BGG      0.077500
     17 H71        -1.5110   -0.7880   -0.6680 h1        1 BGG      0.080700
     18 H72        -1.5560   -0.9100    0.8290 h1        1 BGG      0.080700
     19 H16        -4.4160    2.1070   -0.5710 ho        1 BGG      0.457000
@<TRIPOS>BOND
     1    1    6 3   
     2    1   12 1   
     3    2    3 3   
     4    2   13 1   
     5    3   14 1   
     6    4    5 3   
     7    4   15 1   
     8    5   16 1   
     9    6    7 1   
    10    7    8 1   
    11    7   17 1   
    12    7   18 1   
    13    8    9 1   
    14    9   10 2   
    15    9   11 1   
    16   11   19 1   
@<TRIPOS>SUBSTRUCTURE
     1 BGG         1 TEMP              0 ****  ****    0 ROOT
