@<TRIPOS>MOLECULE
BGL
   48    48     1     0     0
SMALL
bcc


@<TRIPOS>ATOM
      1 C1          1.5250    2.7370    2.2040 c3        1 BGL      0.319900
      2 O1          0.7900    2.3350    3.3750 oh        1 BGL     -0.622800
      3 C2          0.6120    2.5780    0.9490 c3        1 BGL      0.136100
      4 O2          0.9410    1.3660    0.2880 os        1 BGL     -0.421600
      5 C3          0.7680    3.7540   -0.0530 c3        1 BGL      0.095100
      6 O3         -0.0100    3.6320   -1.0640 oh        1 BGL     -0.597800
      7 C4          0.2890    4.8740    0.9120 c3        1 BGL      0.079100
      8 O4          0.2820    6.0650    0.2350 oh        1 BGL     -0.595800
      9 C5          1.1870    5.0150    2.1500 c3        1 BGL      0.075100
     10 O5          1.9000    3.9380    2.3460 os        1 BGL     -0.444600
     11 C6          0.2690    5.2820    3.4290 c3        1 BGL      0.113400
     12 O6          1.1010    5.5880    4.5650 oh        1 BGL     -0.590800
     13 C1'        -0.1610    0.4330    0.2010 c3        1 BGL      0.129400
     14 C2'         0.1370   -0.6180   -0.8850 c3        1 BGL     -0.083400
     15 C3'        -0.7000   -1.9280   -0.5970 c3        1 BGL     -0.078400
     16 C4'        -0.5080   -2.9530   -1.7950 c3        1 BGL     -0.078400
     17 C5'        -0.9970   -4.2950   -1.3810 c3        1 BGL     -0.079400
     18 C6'        -0.8050   -5.2700   -2.5040 c3        1 BGL     -0.079400
     19 C7'        -1.1400   -6.6640   -2.0160 c3        1 BGL     -0.080400
     20 C8'        -1.0360   -7.6690   -3.1960 c3        1 BGL     -0.092100
     21 H1          2.2900    2.1800    2.1070 h2        1 BGL      0.095700
     22 HO1         1.3450    2.0060    3.9710 ho        1 BGL      0.417000
     23 H2         -0.3190    2.5330    1.2410 h1        1 BGL      0.083700
     24 H3          1.6980    3.8820   -0.3190 h1        1 BGL      0.059700
     25 HO3         0.3910    3.9970   -1.8010 ho        1 BGL      0.417000
     26 H4         -0.6040    4.6740    1.2000 h1        1 BGL      0.097700
     27 HO4         1.0900    6.2850    0.0320 ho        1 BGL      0.408000
     28 H5          1.8170    5.8140    2.0170 h1        1 BGL      0.098700
     29 H61        -0.2630    4.4860    3.6190 h1        1 BGL      0.058700
     30 H62        -0.3330    6.0440    3.2470 h1        1 BGL      0.058700
     31 HO6         0.6680    6.1350    5.1070 ho        1 BGL      0.408000
     32 H1'1       -0.2800   -0.0170    1.0720 h1        1 BGL      0.044200
     33 H1'2       -0.9880    0.9230   -0.0330 h1        1 BGL      0.044200
     34 H2'1       -0.1090   -0.2600   -1.7580 hc        1 BGL      0.052700
     35 H2'2        1.0840   -0.8310   -0.8780 hc        1 BGL      0.052700
     36 H3'1       -0.3900   -2.3350    0.2320 hc        1 BGL      0.041700
     37 H3'2       -1.6520   -1.6990   -0.5120 hc        1 BGL      0.041700
     38 H4'1        0.4540   -3.0090   -2.0300 hc        1 BGL      0.041200
     39 H4'2       -1.0160   -2.6460   -2.5720 hc        1 BGL      0.041200
     40 H5'1       -1.9400   -4.2400   -1.1580 hc        1 BGL      0.039700
     41 H5'2       -0.5000   -4.5940   -0.6050 hc        1 BGL      0.039700
     42 H6'1        0.1230   -5.2430   -2.8020 hc        1 BGL      0.039700
     43 H6'2       -1.4020   -5.0310   -3.2570 hc        1 BGL      0.039700
     44 H7'1       -2.0640   -6.6740   -1.6540 hc        1 BGL      0.038700
     45 H7'2       -0.5010   -6.9260   -1.2990 hc        1 BGL      0.038700
     46 H8'1       -1.4800   -8.5310   -2.9410 hc        1 BGL      0.032700
     47 H8'2       -0.0840   -7.8380   -3.4020 hc        1 BGL      0.032700
     48 H8'3       -1.4830   -7.2910   -3.9890 hc        1 BGL      0.032700
@<TRIPOS>BOND
     1    1    2 1   
     2    1    3 1   
     3    1   10 1   
     4    1   21 1   
     5    2   22 1   
     6    3    4 1   
     7    3    5 1   
     8    3   23 1   
     9    4   13 1   
    10    5    6 1   
    11    5    7 1   
    12    5   24 1   
    13    6   25 1   
    14    7    8 1   
    15    7    9 1   
    16    7   26 1   
    17    8   27 1   
    18    9   10 1   
    19    9   11 1   
    20    9   28 1   
    21   11   12 1   
    22   11   29 1   
    23   11   30 1   
    24   12   31 1   
    25   13   14 1   
    26   13   32 1   
    27   13   33 1   
    28   14   15 1   
    29   14   34 1   
    30   14   35 1   
    31   15   16 1   
    32   15   36 1   
    33   15   37 1   
    34   16   17 1   
    35   16   38 1   
    36   16   39 1   
    37   17   18 1   
    38   17   40 1   
    39   17   41 1   
    40   18   19 1   
    41   18   42 1   
    42   18   43 1   
    43   19   20 1   
    44   19   44 1   
    45   19   45 1   
    46   20   46 1   
    47   20   47 1   
    48   20   48 1   
@<TRIPOS>SUBSTRUCTURE
     1 BGL         1 TEMP              0 ****  ****    0 ROOT
