@<TRIPOS>MOLECULE
BGL
   48    48     1     0     0
SMALL
bcc


@<TRIPOS>ATOM
      1 C1          1.0730   -0.1240   -2.1350 c3        1 BGL      0.319900
      2 O1          2.0860    0.6410   -1.5290 oh        1 BGL     -0.596800
      3 C2         -0.2880    0.4300   -1.6590 c3        1 BGL      0.127100
      4 O2         -0.5910   -0.1670   -0.4030 os        1 BGL     -0.413600
      5 C3         -1.4190    0.0090   -2.6090 c3        1 BGL      0.149100
      6 O3         -2.5330    0.8280   -2.2990 oh        1 BGL     -0.587800
      7 C4         -1.0180    0.2340   -4.0790 c3        1 BGL      0.075100
      8 O4         -2.0640   -0.3480   -4.8420 oh        1 BGL     -0.597800
      9 C5          0.3270   -0.4340   -4.3810 c3        1 BGL      0.081100
     10 O5          1.3320    0.0930   -3.5180 os        1 BGL     -0.467600
     11 C6          0.8070   -0.1260   -5.8030 c3        1 BGL      0.134400
     12 O6          2.0230   -0.7800   -6.0870 oh        1 BGL     -0.590800
     13 C1'        -0.0890    0.5830    0.7080 c3        1 BGL      0.126400
     14 C2'        -0.3990   -0.2350    1.9490 c3        1 BGL     -0.083400
     15 C3'         0.0760    0.4910    3.1880 c3        1 BGL     -0.078400
     16 C4'        -0.2210   -0.3130    4.4370 c3        1 BGL     -0.078400
     17 C5'         0.2520    0.4100    5.6790 c3        1 BGL     -0.079400
     18 C6'        -0.0440   -0.3930    6.9280 c3        1 BGL     -0.079400
     19 C7'         0.4280    0.3290    8.1720 c3        1 BGL     -0.080400
     20 C8'         0.1350   -0.4670    9.4180 c3        1 BGL     -0.092100
     21 H1          1.1760   -1.2180   -1.8880 h2        1 BGL      0.055700
     22 HO1         2.9000    0.5050   -2.0320 ho        1 BGL      0.425000
     23 H2         -0.2420    1.5500   -1.5820 h1        1 BGL      0.086700
     24 H3         -1.6760   -1.0750   -2.4460 h1        1 BGL      0.070700
     25 HO3        -3.2650    0.5020   -2.8400 ho        1 BGL      0.418000
     26 H4         -0.9540    1.3390   -4.2850 h1        1 BGL      0.064700
     27 HO4        -1.9230   -0.0880   -5.7600 ho        1 BGL      0.409000
     28 H5          0.2500   -1.5470   -4.2320 h1        1 BGL      0.070700
     29 H61         0.0740   -0.5370   -6.5480 h1        1 BGL      0.053200
     30 H62         0.9180    0.9830   -5.9380 h1        1 BGL      0.053200
     31 HO6         2.6650   -0.4830   -5.4290 ho        1 BGL      0.414000
     32 H1'1       -0.6030    1.5800    0.7420 h1        1 BGL      0.042200
     33 H1'2        1.0170    0.7390    0.5850 h1        1 BGL      0.042200
     34 H2'1        0.1000   -1.2350    1.8700 hc        1 BGL      0.053700
     35 H2'2       -1.5040   -0.4180    2.0060 hc        1 BGL      0.053700
     36 H3'1       -0.4270    1.4910    3.2570 hc        1 BGL      0.041200
     37 H3'2        1.1800    0.6790    3.1160 hc        1 BGL      0.041200
     38 H4'1        0.2820   -1.3130    4.3690 hc        1 BGL      0.041200
     39 H4'2       -1.3250   -0.5020    4.5080 hc        1 BGL      0.041200
     40 H5'1       -0.2510    1.4110    5.7470 hc        1 BGL      0.039700
     41 H5'2        1.3550    0.6000    5.6070 hc        1 BGL      0.039700
     42 H6'1        0.4590   -1.3930    6.8600 hc        1 BGL      0.039700
     43 H6'2       -1.1480   -0.5820    7.0000 hc        1 BGL      0.039700
     44 H7'1       -0.0750    1.3300    8.2370 hc        1 BGL      0.038700
     45 H7'2        1.5320    0.5190    8.0970 hc        1 BGL      0.038700
     46 H8'1        0.4910    0.0830   10.3220 hc        1 BGL      0.032700
     47 H8'2       -0.9620   -0.6450    9.5230 hc        1 BGL      0.032700
     48 H8'3        0.6490   -1.4580    9.3830 hc        1 BGL      0.032700
@<TRIPOS>BOND
     1    1    2 1   
     2    1    3 1   
     3    1   10 1   
     4    1   21 1   
     5    2   22 1   
     6    3    4 1   
     7    3    5 1   
     8    3   23 1   
     9    4   13 1   
    10    5    6 1   
    11    5    7 1   
    12    5   24 1   
    13    6   25 1   
    14    7    8 1   
    15    7    9 1   
    16    7   26 1   
    17    8   27 1   
    18    9   10 1   
    19    9   11 1   
    20    9   28 1   
    21   11   12 1   
    22   11   29 1   
    23   11   30 1   
    24   12   31 1   
    25   13   14 1   
    26   13   32 1   
    27   13   33 1   
    28   14   15 1   
    29   14   34 1   
    30   14   35 1   
    31   15   16 1   
    32   15   36 1   
    33   15   37 1   
    34   16   17 1   
    35   16   38 1   
    36   16   39 1   
    37   17   18 1   
    38   17   40 1   
    39   17   41 1   
    40   18   19 1   
    41   18   42 1   
    42   18   43 1   
    43   19   20 1   
    44   19   44 1   
    45   19   45 1   
    46   20   46 1   
    47   20   47 1   
    48   20   48 1   
@<TRIPOS>SUBSTRUCTURE
     1 BGL         1 TEMP              0 ****  ****    0 ROOT
