@<TRIPOS>MOLECULE
BGM
   35    32     1     0     0
SMALL
bcc


@<TRIPOS>ATOM
      1 P           3.5370   -2.1580    2.0870 p3        1 BGM      2.536000
      2 OP1         2.5840   -3.2480    1.6500 o         1 BGM     -0.972000
      3 OP2         4.6280   -1.9970    1.0520 os        1 BGM     -1.182000
      4 O5'         2.7430   -0.7880    2.2390 os        1 BGM     -0.754000
      5 C5'         1.9700   -0.3280    1.1400 c3        1 BGM      0.040000
      6 C4'         2.0870    1.1880    1.0360 c3        1 BGM     -0.036000
      7 O4'         1.6780    1.6740   -0.4440 os        1 BGM     -0.292000
      8 C1'         0.3820    1.7290   -0.4620 c3        1 BGM      0.163000
      9 N9         -0.1700    0.4700   -0.9240 n3        1 BGM     -0.176000
     10 C8          0.6140    0.4020   -2.0340 c1        1 BGM     -0.209000
     11 N7         -0.0810   -0.2600   -3.0010 n2        1 BGM     -0.019000
     12 C5         -1.2910   -0.6000   -2.4900 c1        1 BGM     -0.378000
     13 C4         -1.3470   -0.1480   -1.2020 c1        1 BGM      0.166000
     14 N3         -2.5470   -0.3760   -0.3990 n1        1 BGM     -0.280000
     15 C2         -3.6750   -1.0810   -0.9660 c1        1 BGM      0.209000
     16 N2         -4.8530   -1.2910   -0.1830 n2        1 BGM     -0.380000
     17 N1         -3.6190   -1.5550   -2.3100 n3        1 BGM     -0.412000
     18 C6         -2.4690   -1.3360   -3.0830 c1        1 BGM      0.407000
     19 O6         -2.4340   -1.7100   -4.2420 o         1 BGM     -0.451000
     20 C2'        -0.0310    1.9900    1.0070 c3        1 BGM     -0.189000
     21 C3'         1.2560    1.7540    1.8480 c3        1 BGM      0.025000
     22 O3'         1.8070    3.0550    2.3250 oh        1 BGM     -0.372000
     23 OP3         4.1550   -2.5320    3.4160 o         1 BGM     -0.972000
     24 BR          1.7920    0.6630   -3.5220 br        1 BGM      0.065000
     25 H5'         2.3010   -0.7400    0.3110 h1        1 BGM      0.082000
     26 H5''        1.0300   -0.5750    1.2750 h1        1 BGM      0.082000
     27 H4'         3.0060    1.4710    1.2420 h1        1 BGM      0.085000
     28 H1'         0.0790    2.4680   -1.0380 h2        1 BGM      0.089000
     29 H21        -5.4990   -1.8750   -0.4720 hn        1 BGM      0.157500
     30 H22        -4.9680   -0.8340    0.6040 hn        1 BGM      0.157500
     31 H1         -4.3360   -2.0020   -2.6690 hn        1 BGM      0.203000
     32 H2'        -0.7350    1.3620    1.2790 hc        1 BGM      0.118500
     33 H2''       -0.3420    2.9180    1.1140 hc        1 BGM      0.118500
     34 H3'         1.0640    1.1620    2.6090 h1        1 BGM      0.114000
     35 HO3'        1.6830    3.1260    3.2060 ho        1 BGM      0.254000
@<TRIPOS>BOND
     1    1    2 1   
     2    1    4 1   
     3    1   23 1   
     4    4    5 1   
     5    5    6 1   
     6    5   25 1   
     7    5   26 1   
     8    6    7 1   
     9    6   21 1   
    10    6   27 1   
    11    7    8 1   
    12    8    9 1   
    13    8   20 1   
    14    8   28 1   
    15    9   10 1   
    16    9   13 1   
    17   10   11 1   
    18   11   12 1   
    19   12   13 1   
    20   14   15 1   
    21   15   17 1   
    22   16   29 1   
    23   16   30 1   
    24   17   18 1   
    25   17   31 1   
    26   18   19 1   
    27   20   21 1   
    28   20   32 1   
    29   20   33 1   
    30   21   22 1   
    31   21   34 1   
    32   22   35 1   
@<TRIPOS>SUBSTRUCTURE
     1 BGM         1 TEMP              0 ****  ****    0 ROOT
