@<TRIPOS>MOLECULE
BGM
   35    37     1     0     0
SMALL
bcc


@<TRIPOS>ATOM
      1 P           2.4640   -3.6540   -4.0900 p5        1 BGM      1.425800
      2 OP1         3.2680   -4.8940   -4.1120 o         1 BGM     -0.839000
      3 OP2         2.7220   -3.0240   -5.5780 oh        1 BGM     -0.780400
      4 O5'         3.3150   -2.5300   -3.2290 os        1 BGM     -0.581200
      5 C5'         2.6640   -1.3390   -2.9130 c3        1 BGM      0.188400
      6 C4'         2.5060   -1.2220   -1.3890 c3        1 BGM      0.083100
      7 O4'         2.8390    0.1220   -0.9950 os        1 BGM     -0.441600
      8 C1'         1.7920    0.6480   -0.1350 c3        1 BGM      0.258800
      9 N9          1.7400    2.0810   -0.1630 na        1 BGM     -0.228900
     10 C8          2.8570    2.9090    0.2190 cc        1 BGM      0.383700
     11 N7          2.7360    4.1910   -0.1600 nc        1 BGM     -0.549000
     12 C5          1.5350    4.2570   -0.8530 cd        1 BGM      0.043800
     13 C4          0.8890    2.9410   -0.9070 cd        1 BGM      0.077400
     14 N3         -0.3030    2.6640   -1.4510 nc        1 BGM     -0.510300
     15 C2         -0.9880    3.7660   -2.0240 cc        1 BGM      0.723900
     16 N2         -2.1970    3.5730   -2.5240 n2        1 BGM     -0.912100
     17 N1         -0.3650    5.0720   -2.0500 n         1 BGM     -0.572400
     18 C6          0.8800    5.3740   -1.4790 c         1 BGM      0.660000
     19 O6          1.2890    6.5580   -1.5540 o         1 BGM     -0.724500
     20 C2'         0.5210   -0.1480   -0.4940 c3        1 BGM     -0.144400
     21 C3'         1.0750   -1.5220   -0.8900 c3        1 BGM      0.102100
     22 O3'         1.0830   -2.4050    0.2200 oh        1 BGM     -0.599800
     23 OP3         1.0400   -3.5130   -3.7260 o         1 BGM     -0.839000
     24 BR          4.2840    2.2750    1.2330 br        1 BGM     -0.161200
     25 H5'         3.3080   -0.4820   -3.2640 h1        1 BGM      0.046200
     26 H5''        1.6610   -1.2900   -3.4200 h1        1 BGM      0.046200
     27 H4'         3.2510   -1.8960   -0.8850 h1        1 BGM      0.063700
     28 H1'         2.1030    0.3740    0.9250 h2        1 BGM      0.030700
     29 H21        -2.6020    4.3940   -2.9250 hn        1 BGM      0.337400
     30 H22         3.5120   -3.3740   -5.9710 ho        1 BGM      0.419000
     31 H1         -0.8390    5.8160   -2.5050 hn        1 BGM      0.290500
     32 H2'        -0.0280    0.2940   -1.3620 hc        1 BGM      0.090200
     33 H2''       -0.1690   -0.2100    0.3780 hc        1 BGM      0.090200
     34 H3'         0.4590   -2.0530   -1.6690 h1        1 BGM      0.145700
     35 HO3'        1.6820   -2.0290    0.8760 ho        1 BGM      0.379000
@<TRIPOS>BOND
     1    1    2 1   
     2    1    3 1   
     3    1    4 1   
     4    1   23 1   
     5    3   30 1   
     6    4    5 1   
     7    5    6 1   
     8    5   25 1   
     9    5   26 1   
    10    6    7 1   
    11    6   21 1   
    12    6   27 1   
    13    7    8 1   
    14    8    9 1   
    15    8   20 1   
    16    8   28 1   
    17    9   10 2   
    18    9   13 1   
    19   10   11 1   
    20   10   24 1   
    21   11   12 2   
    22   12   13 1   
    23   12   18 1   
    24   13   14 2   
    25   14   15 1   
    26   15   16 2   
    27   15   17 1   
    28   16   29 1   
    29   17   18 1   
    30   17   31 1   
    31   18   19 2   
    32   20   21 1   
    33   20   32 1   
    34   20   33 1   
    35   21   22 1   
    36   21   34 1   
    37   22   35 1   
@<TRIPOS>SUBSTRUCTURE
     1 BGM         1 TEMP              0 ****  ****    0 ROOT
