@<TRIPOS>MOLECULE
BGN
   36    36     1     0     0
SMALL
bcc


@<TRIPOS>ATOM
      1 C1          1.0380   -0.7160   -0.6860 c3        1 BGN      0.333900
      2 C2         -0.2480   -0.1610   -0.0000 c3        1 BGN      0.045700
      3 C3         -1.4250   -0.5050   -0.9410 c3        1 BGN      0.138100
      4 C4         -1.1690    0.1570   -2.3100 c3        1 BGN      0.077100
      5 C5          0.1970   -0.2660   -2.8690 c3        1 BGN      0.074100
      6 C6          0.5800    0.5580   -4.1040 c3        1 BGN      0.138400
      7 C7          0.1790   -0.0100    2.4090 c         1 BGN      0.662100
      8 C8         -0.2110   -0.4710    3.7980 c3        1 BGN     -0.146400
      9 C9          0.4980    0.3410    4.8600 c3        1 BGN     -0.075400
     10 C10         0.1220   -0.1260    6.2420 c3        1 BGN     -0.095100
     11 N2         -0.4190   -0.6640    1.3380 n         1 BGN     -0.550900
     12 O1          2.2210   -0.4420   -0.0080 oh        1 BGN     -0.570800
     13 O3         -2.6140   -0.0050   -0.3590 oh        1 BGN     -0.600800
     14 O4         -2.2290   -0.2950   -3.1400 oh        1 BGN     -0.603800
     15 O5          1.2280   -0.0150   -1.9180 os        1 BGN     -0.452600
     16 O6          1.7830    0.0920   -4.6710 oh        1 BGN     -0.592800
     17 O7          1.0290    0.8800    2.2040 o         1 BGN     -0.614100
     18 H1          1.0010   -1.8270   -0.8510 h2        1 BGN      0.080700
     19 H2         -0.1420    0.9670    0.0430 h1        1 BGN      0.088700
     20 H3         -1.5150   -1.6200   -1.0790 h1        1 BGN      0.056700
     21 H4         -1.2160    1.2760   -2.2020 h1        1 BGN      0.064700
     22 H5          0.1800   -1.3610   -3.1260 h1        1 BGN      0.067700
     23 H61        -0.1920    0.4260   -4.9070 h1        1 BGN      0.050700
     24 H62         0.6720    1.6410   -3.8270 h1        1 BGN      0.050700
     25 H81         0.0560   -1.5570    3.9080 hc        1 BGN      0.066200
     26 H82        -1.3220   -0.3760    3.9230 hc        1 BGN      0.066200
     27 H91         0.2360    1.4250    4.7340 hc        1 BGN      0.059700
     28 H92         1.6070    0.2580    4.7110 hc        1 BGN      0.059700
     29 H101        0.6530    0.4860    7.0110 hc        1 BGN      0.035033
     30 H102       -0.9780   -0.0250    6.4100 hc        1 BGN      0.035033
     31 H103        0.4030   -1.1970    6.3890 hc        1 BGN      0.035033
     32 HN2        -1.2320   -1.2100    1.5060 hn        1 BGN      0.316500
     33 HO1         2.1870    0.4710    0.3180 ho        1 BGN      0.438000
     34 HO3        -3.3120   -0.1150   -1.0210 ho        1 BGN      0.427000
     35 HO4        -2.1330    0.1490   -3.9910 ho        1 BGN      0.415000
     36 HO6         2.4580    0.1290   -3.9780 ho        1 BGN      0.423000
@<TRIPOS>BOND
     1    1    2 1   
     2    1   12 1   
     3    1   15 1   
     4    1   18 1   
     5    2    3 1   
     6    2   11 1   
     7    2   19 1   
     8    3    4 1   
     9    3   13 1   
    10    3   20 1   
    11    4    5 1   
    12    4   14 1   
    13    4   21 1   
    14    5    6 1   
    15    5   15 1   
    16    5   22 1   
    17    6   16 1   
    18    6   23 1   
    19    6   24 1   
    20    7    8 1   
    21    7   11 1   
    22    7   17 2   
    23    8    9 1   
    24    8   25 1   
    25    8   26 1   
    26    9   10 1   
    27    9   27 1   
    28    9   28 1   
    29   10   29 1   
    30   10   30 1   
    31   10   31 1   
    32   11   32 1   
    33   12   33 1   
    34   13   34 1   
    35   14   35 1   
    36   16   36 1   
@<TRIPOS>SUBSTRUCTURE
     1 BGN         1 TEMP              0 ****  ****    0 ROOT
