@<TRIPOS>MOLECULE
BGN
   36    35     1     0     0
SMALL
bcc


@<TRIPOS>ATOM
      1 C1         -1.7500    0.2850    0.2540 c3        1 BGN      0.149000
      2 C2         -0.2370    0.3030    0.2210 c3        1 BGN     -0.031000
      3 C3          0.3480    0.3270    1.5660 c3        1 BGN     -0.010000
      4 C4         -0.2240    1.4220    2.4110 c3        1 BGN     -0.038000
      5 C5         -1.7540    1.4060    2.4270 c3        1 BGN     -0.033000
      6 C6         -2.2460    2.6540    3.1310 c3        1 BGN     -0.011000
      7 C7          0.9110   -0.7630   -1.7510 c1        1 BGN      0.306000
      8 C8          1.4090   -2.0000   -2.4880 c2        1 BGN     -0.181000
      9 C9          2.2900   -1.5750   -3.6600 c3        1 BGN     -0.158000
     10 C10         2.6610   -2.7910   -4.4810 c3        1 BGN     -0.213000
     11 N2          0.2480   -0.8990   -0.4900 n3        1 BGN     -0.356000
     12 O1         -2.2200    0.4390   -1.0200 oh        1 BGN     -0.296000
     13 O3          1.7930    0.5210    1.4470 oh        1 BGN     -0.327000
     14 O4          0.2550    1.2660    3.7560 oh        1 BGN     -0.317000
     15 O5         -2.3180    1.3770    1.1120 os        1 BGN     -0.304000
     16 O6         -3.6900    2.6130    3.2390 oh        1 BGN     -0.323000
     17 O7          1.0670    0.2980   -2.2180 o         1 BGN     -0.376000
     18 H1         -2.0520   -0.5900    0.6040 h2        1 BGN      0.118000
     19 H2          0.0500    1.0820   -0.2540 h1        1 BGN      0.127000
     20 H3          0.1810   -0.5170    1.9940 h1        1 BGN      0.081000
     21 H4          0.0880    2.3050    2.0550 h1        1 BGN      0.145000
     22 H5         -2.0520    0.6370    2.9100 h1        1 BGN      0.091000
     23 H61        -1.9800    3.4430    2.6160 h1        1 BGN      0.102000
     24 H62        -1.8620    2.7000    4.0040 h1        1 BGN      0.102000
     25 H81         0.6350   -2.5150   -2.8270 ha        1 BGN      0.115500
     26 H82         1.9210   -2.5480   -1.8860 ha        1 BGN      0.115500
     27 H91         1.7990   -0.9350   -4.2270 hc        1 BGN      0.086500
     28 H92         3.1050   -1.1500   -3.3190 hc        1 BGN      0.086500
     29 H101        1.8620   -3.2770   -4.7150 hc        1 BGN      0.077333
     30 H102        3.2590   -3.3760   -3.9520 hc        1 BGN      0.077333
     31 H103        3.1160   -2.5090   -5.2890 hc        1 BGN      0.077333
     32 HN2         0.2060   -1.7080   -0.0870 hn        1 BGN      0.231000
     33 HO1        -3.0520    0.2390   -1.0420 ho        1 BGN      0.238000
     34 HO3         2.1970    0.1130    2.1030 ho        1 BGN      0.225000
     35 HO4         0.0110    0.4400    4.0750 ho        1 BGN      0.205000
     36 HO6        -3.9720    3.2840    3.7800 ho        1 BGN      0.216000
@<TRIPOS>BOND
     1    1    2 1   
     2    1   12 1   
     3    1   15 1   
     4    1   18 1   
     5    2    3 1   
     6    2   11 1   
     7    2   19 1   
     8    3    4 1   
     9    3   13 1   
    10    3   20 1   
    11    4    5 1   
    12    4   14 1   
    13    4   21 1   
    14    5    6 1   
    15    5   15 1   
    16    5   22 1   
    17    6   16 1   
    18    6   23 1   
    19    6   24 1   
    20    7   11 1   
    21    7   17 1   
    22    8    9 1   
    23    8   25 1   
    24    8   26 1   
    25    9   10 1   
    26    9   27 1   
    27    9   28 1   
    28   10   29 1   
    29   10   30 1   
    30   10   31 1   
    31   11   32 1   
    32   12   33 1   
    33   13   34 1   
    34   14   35 1   
    35   16   36 1   
@<TRIPOS>SUBSTRUCTURE
     1 BGN         1 TEMP              0 ****  ****    0 ROOT
