@<TRIPOS>MOLECULE
BGN
   37    37     1     0     0
SMALL
bcc


@<TRIPOS>ATOM
      1 C1          0.3980   -0.4260   -0.1000 c3        1 BGN      0.351900
      2 C2          1.9070   -0.2020    0.2230 c3        1 BGN      0.051500
      3 C3          2.0200   -0.1280    1.7610 c3        1 BGN      0.129100
      4 C4          1.1610    1.0580    2.2430 c3        1 BGN      0.098100
      5 C5         -0.2900    0.9070    1.7560 c3        1 BGN      0.071100
      6 C6         -1.0970    2.1950    1.9970 c3        1 BGN      0.130400
      7 C7          3.0460   -1.0460   -1.8490 c         1 BGN      0.569100
      8 C8          2.4990   -2.1150   -2.7450 c3        1 BGN     -0.153400
      9 C9          3.0800   -1.9890   -4.1430 c3        1 BGN     -0.079400
     10 C10         2.4800   -3.0280   -5.0540 c3        1 BGN     -0.102100
     11 N2          2.7930   -1.2550   -0.3560 n4        1 BGN     -0.670800
     12 O1          0.2030   -0.4460   -1.4840 oh        1 BGN     -0.622800
     13 O3          3.3880    0.0440    2.0690 oh        1 BGN     -0.621800
     14 O4          1.2310    0.9980    3.6530 oh        1 BGN     -0.601800
     15 O5         -0.3340    0.6960    0.3390 os        1 BGN     -0.423600
     16 O6         -1.1130    2.4820    3.3770 oh        1 BGN     -0.593800
     17 O7          3.6560   -0.0310   -2.1330 o         1 BGN     -0.405100
     18 H1          0.0190   -1.3880    0.3470 h2        1 BGN      0.080700
     19 H2          2.2400    0.7860   -0.2210 hx        1 BGN      0.143700
     20 H3          1.6490   -1.0790    2.2400 h1        1 BGN      0.072700
     21 H4          1.5980    2.0260    1.8670 h1        1 BGN      0.077700
     22 H5         -0.7740    0.0360    2.2790 h1        1 BGN      0.073700
     23 H61        -0.5870    3.0720    1.5140 h1        1 BGN      0.079200
     24 H62        -2.1280    2.0790    1.5760 h1        1 BGN      0.079200
     25 H81         1.3770   -1.9840   -2.7800 hc        1 BGN      0.108200
     26 H82         2.7220   -3.1350   -2.3320 hc        1 BGN      0.108200
     27 H91         2.8740   -0.9600   -4.5430 hc        1 BGN      0.069700
     28 H92         4.1940   -2.1130   -4.1000 hc        1 BGN      0.069700
     29 H101        2.9150   -2.9240   -6.0790 hc        1 BGN      0.054367
     30 H102        2.6960   -4.0590   -4.6840 hc        1 BGN      0.054367
     31 H103        1.3720   -2.9020   -5.1290 hc        1 BGN      0.054367
     32 HN2         2.3780   -2.1760   -0.2000 hn        1 BGN      0.464300
     33 HO1        -0.3430    0.3150   -1.7480 ho        1 BGN      0.472000
     34 HO3         3.4420    0.3650    2.9840 ho        1 BGN      0.468000
     35 HO4         0.7870    1.7870    4.0040 ho        1 BGN      0.458000
     36 HO6        -1.8100    1.9540    3.7860 ho        1 BGN      0.422000
     37 H22         3.6940   -1.2020    0.1470 hn        1 BGN      0.464300
@<TRIPOS>BOND
     1    1    2 1   
     2    1   12 1   
     3    1   15 1   
     4    1   18 1   
     5    2    3 1   
     6    2   11 1   
     7    2   19 1   
     8    3    4 1   
     9    3   13 1   
    10    3   20 1   
    11    4    5 1   
    12    4   14 1   
    13    4   21 1   
    14    5    6 1   
    15    5   15 1   
    16    5   22 1   
    17    6   16 1   
    18    6   23 1   
    19    6   24 1   
    20    7    8 1   
    21    7   11 1   
    22    7   17 2   
    23    8    9 1   
    24    8   25 1   
    25    8   26 1   
    26    9   10 1   
    27    9   27 1   
    28    9   28 1   
    29   10   29 1   
    30   10   30 1   
    31   10   31 1   
    32   11   32 1   
    33   11   37 1   
    34   12   33 1   
    35   13   34 1   
    36   14   35 1   
    37   16   36 1   
@<TRIPOS>SUBSTRUCTURE
     1 BGN         1 TEMP              0 ****  ****    0 ROOT
