@<TRIPOS>MOLECULE
BGN
   37    37     1     0     0
SMALL
bcc


@<TRIPOS>ATOM
      1 C1          0.3990   -0.4350   -0.0920 c3        1 BGN      0.351900
      2 C2          1.9090   -0.1980    0.2180 c3        1 BGN      0.051500
      3 C3          2.0350   -0.1250    1.7550 c3        1 BGN      0.129100
      4 C4          1.1700    1.0540    2.2450 c3        1 BGN      0.098100
      5 C5         -0.2850    0.8900    1.7710 c3        1 BGN      0.071100
      6 C6         -1.1000    2.1710    2.0200 c3        1 BGN      0.130400
      7 C7          3.0380   -1.0300   -1.8640 c         1 BGN      0.569100
      8 C8          2.4930   -2.1030   -2.7560 c3        1 BGN     -0.153400
      9 C9          3.0610   -1.9700   -4.1590 c3        1 BGN     -0.079400
     10 C10         2.4620   -3.0140   -5.0660 c3        1 BGN     -0.102100
     11 N2          2.8000   -1.2430   -0.3690 ny        1 BGN     -0.670800
     12 O1          0.1930   -0.4560   -1.4750 oh        1 BGN     -0.622800
     13 O3          3.4040    0.0590    2.0520 oh        1 BGN     -0.621800
     14 O4          1.2520    0.9920    3.6550 oh        1 BGN     -0.601800
     15 O5         -0.3390    0.6800    0.3540 os        1 BGN     -0.423600
     16 O6         -1.1080    2.4570    3.4000 oh        1 BGN     -0.593800
     17 O7          3.6360   -0.0090   -2.1530 o         1 BGN     -0.405100
     18 H1          0.0330   -1.4010    0.3570 h2        1 BGN      0.080700
     19 H2          2.2300    0.7930   -0.2280 hx        1 BGN      0.143700
     20 H3          1.6760   -1.0790    2.2360 h1        1 BGN      0.072700
     21 H4          1.5940    2.0250    1.8670 h1        1 BGN      0.077700
     22 H5         -0.7570    0.0150    2.2970 h1        1 BGN      0.073700
     23 H61        -0.6030    3.0520    1.5330 h1        1 BGN      0.079200
     24 H62        -2.1340    2.0460    1.6070 h1        1 BGN      0.079200
     25 H81         2.7290   -3.1220   -2.3460 hc        1 BGN      0.108200
     26 H82         1.3700   -1.9830   -2.7820 hc        1 BGN      0.108200
     27 H91         2.8420   -0.9430   -4.5560 hc        1 BGN      0.069700
     28 H92         4.1760   -2.0840   -4.1260 hc        1 BGN      0.069700
     29 H101        2.6910   -4.0430   -4.6990 hc        1 BGN      0.054367
     30 H102        2.8880   -2.9060   -6.0950 hc        1 BGN      0.054367
     31 H103        1.3530   -2.8980   -5.1320 hc        1 BGN      0.054367
     32 HN2         2.3940   -2.1680   -0.2100 hn        1 BGN      0.464300
     33 HO1        -0.3620    0.3010   -1.7330 ho        1 BGN      0.472000
     34 HO3         3.4630    0.3800    2.9660 ho        1 BGN      0.468000
     35 HO4         0.8030    1.7770    4.0100 ho        1 BGN      0.458000
     36 HO6        -1.7970    1.9210    3.8140 ho        1 BGN      0.422000
     37 H22         3.7040   -1.1820    0.1260 hn        1 BGN      0.464300
@<TRIPOS>BOND
     1    1    2 1   
     2    1   12 1   
     3    1   15 1   
     4    1   18 1   
     5    2    3 1   
     6    2   11 1   
     7    2   19 1   
     8    3    4 1   
     9    3   13 1   
    10    3   20 1   
    11    4    5 1   
    12    4   14 1   
    13    4   21 1   
    14    5    6 1   
    15    5   15 1   
    16    5   22 1   
    17    6   16 1   
    18    6   23 1   
    19    6   24 1   
    20    7    8 1   
    21    7   11 1   
    22    7   17 2   
    23    8    9 1   
    24    8   25 1   
    25    8   26 1   
    26    9   10 1   
    27    9   27 1   
    28    9   28 1   
    29   10   29 1   
    30   10   30 1   
    31   10   31 1   
    32   11   32 1   
    33   11   37 1   
    34   12   33 1   
    35   13   34 1   
    36   14   35 1   
    37   16   36 1   
@<TRIPOS>SUBSTRUCTURE
     1 BGN         1 TEMP              0 ****  ****    0 ROOT
