@<TRIPOS>MOLECULE
BGN
   37    37     1     0     0
SMALL
bcc


@<TRIPOS>ATOM
      1 C1          0.4060   -0.4680   -0.0720 c3        1 BGN      0.351900
      2 C2          1.9130   -0.1780    0.2070 c3        1 BGN      0.051500
      3 C3          2.0620   -0.0780    1.7410 c3        1 BGN      0.129100
      4 C4          1.1690    1.0800    2.2290 c3        1 BGN      0.098100
      5 C5         -0.2880    0.8630    1.7830 c3        1 BGN      0.071100
      6 C6         -1.1390    2.1210    2.0280 c3        1 BGN      0.130400
      7 C7          3.0330   -1.0040   -1.8820 c         1 BGN      0.569100
      8 C8          2.5060   -2.1050   -2.7500 c3        1 BGN     -0.153400
      9 C9          3.0450   -1.9740   -4.1640 c3        1 BGN     -0.079400
     10 C10         2.4650   -3.0480   -5.0470 c3        1 BGN     -0.102100
     11 N2          2.8260   -1.2030   -0.3810 n4        1 BGN     -0.670800
     12 O1          0.1770   -0.5150   -1.4510 oh        1 BGN     -0.622800
     13 O3          3.4290    0.1530    2.0110 oh        1 BGN     -0.621800
     14 O4          1.2770    1.0420    3.6380 oh        1 BGN     -0.601800
     15 O5         -0.3590    0.6300    0.3710 os        1 BGN     -0.423600
     16 O6         -1.1320    2.4270    3.4040 oh        1 BGN     -0.593800
     17 O7          3.5940    0.0310   -2.1940 o         1 BGN     -0.405100
     18 H1          0.0790   -1.4370    0.3970 h2        1 BGN      0.080700
     19 H2          2.1940    0.8170   -0.2580 hx        1 BGN      0.143700
     20 H3          1.7420   -1.0360    2.2420 h1        1 BGN      0.072700
     21 H4          1.5560    2.0580    1.8300 h1        1 BGN      0.077700
     22 H5         -0.7230   -0.0190    2.3300 h1        1 BGN      0.073700
     23 H61        -0.6780    3.0110    1.5210 h1        1 BGN      0.079200
     24 H62        -2.1760    1.9580    1.6360 h1        1 BGN      0.079200
     25 H81         2.7820   -3.1100   -2.3310 hc        1 BGN      0.108200
     26 H82         1.3800   -2.0220   -2.7570 hc        1 BGN      0.108200
     27 H91         4.1640   -2.0520   -4.1500 hc        1 BGN      0.069700
     28 H92         2.7870   -0.9600   -4.5710 hc        1 BGN      0.069700
     29 H101        2.8680   -2.9400   -6.0840 hc        1 BGN      0.054367
     30 H102        1.3510   -2.9690   -5.0940 hc        1 BGN      0.054367
     31 H103        2.7330   -4.0650   -4.6700 hc        1 BGN      0.054367
     32 HN2         2.4520   -2.1370   -0.2020 hn        1 BGN      0.464300
     33 HO1        -0.4060    0.2200   -1.7100 ho        1 BGN      0.472000
     34 HO3         3.4940    0.4890    2.9200 ho        1 BGN      0.468000
     35 HO4         0.8100    1.8170    3.9900 ho        1 BGN      0.458000
     36 HO6        -1.7970    1.8760    3.8380 ho        1 BGN      0.422000
     37 H22         3.7360   -1.1070    0.0990 hn        1 BGN      0.464300
@<TRIPOS>BOND
     1    1    2 1   
     2    1   12 1   
     3    1   15 1   
     4    1   18 1   
     5    2    3 1   
     6    2   11 1   
     7    2   19 1   
     8    3    4 1   
     9    3   13 1   
    10    3   20 1   
    11    4    5 1   
    12    4   14 1   
    13    4   21 1   
    14    5    6 1   
    15    5   15 1   
    16    5   22 1   
    17    6   16 1   
    18    6   23 1   
    19    6   24 1   
    20    7    8 1   
    21    7   11 1   
    22    7   17 2   
    23    8    9 1   
    24    8   25 1   
    25    8   26 1   
    26    9   10 1   
    27    9   27 1   
    28    9   28 1   
    29   10   29 1   
    30   10   30 1   
    31   10   31 1   
    32   11   32 1   
    33   11   37 1   
    34   12   33 1   
    35   13   34 1   
    36   14   35 1   
    37   16   36 1   
@<TRIPOS>SUBSTRUCTURE
     1 BGN         1 TEMP              0 ****  ****    0 ROOT
