@<TRIPOS>MOLECULE
BGP
   27    27     1     0     0
SMALL
bcc


@<TRIPOS>ATOM
      1 C1         -0.4870   -0.0330   -1.9820 c3        1 BGP      0.371900
      2 C2          1.0110    0.0350   -2.0560 c3        1 BGP      0.033100
      3 C3          1.6400    0.0950   -0.7120 c3        1 BGP      0.123100
      4 C4          1.1530   -1.0050    0.2000 c3        1 BGP      0.138100
      5 C5         -0.3490   -1.0710    0.2660 c3        1 BGP      0.086100
      6 C6         -0.8600    0.1500    0.9960 c3        1 BGP      0.192400
      7 O1         -0.9650    1.1690   -1.5310 oh        1 BGP     -0.656800
      8 O2          1.4980   -1.1390   -2.7490 oh        1 BGP     -0.630800
      9 O3          1.3360    1.3520   -0.1190 oh        1 BGP     -0.660800
     10 O4          1.6720   -0.7690    1.5370 oh        1 BGP     -0.658800
     11 O5         -0.9690   -1.1280   -1.0640 os        1 BGP     -0.472600
     12 O6         -1.1890   -0.1990    2.3240 os        1 BGP     -0.585200
     13 P          -2.3470    0.6020    3.0480 p5        1 BGP      1.333900
     14 O1P        -2.3500    0.2620    4.5250 o         1 BGP     -0.918833
     15 O2P        -2.1180    2.0930    2.8720 o         1 BGP     -0.918833
     16 O3P        -3.6830    0.2220    2.4400 o         1 BGP     -0.918833
     17 H1         -0.8480   -0.2010   -2.9030 h2        1 BGP      0.048700
     18 H2          1.2700    0.8400   -2.5660 h1        1 BGP      0.165700
     19 H3          2.5970    0.0200   -0.8110 h1        1 BGP      0.023700
     20 H4          1.4940   -1.8630   -0.1280 h1        1 BGP      0.009700
     21 H5         -0.6100   -1.8800    0.7740 h1        1 BGP      0.019700
     22 H61        -0.1640    0.8400    1.0030 h1        1 BGP      0.015700
     23 H62        -1.6520    0.4920    0.5450 h1        1 BGP      0.015700
     24 HO1        -1.2810    1.6700   -2.2540 ho        1 BGP      0.465000
     25 HO2         1.9390   -0.8940   -3.4630 ho        1 BGP      0.407000
     26 HO3         2.0800    1.7930    0.0260 ho        1 BGP      0.484000
     27 HO4         2.1800   -1.4550    1.7840 ho        1 BGP      0.490000
@<TRIPOS>BOND
     1    1    2 1   
     2    1    7 1   
     3    1   11 1   
     4    1   17 1   
     5    2    3 1   
     6    2    8 1   
     7    2   18 1   
     8    3    4 1   
     9    3    9 1   
    10    3   19 1   
    11    4    5 1   
    12    4   10 1   
    13    4   20 1   
    14    5    6 1   
    15    5   11 1   
    16    5   21 1   
    17    6   12 1   
    18    6   22 1   
    19    6   23 1   
    20    7   24 1   
    21    8   25 1   
    22    9   26 1   
    23   10   27 1   
    24   12   13 1   
    25   13   14 1   
    26   13   15 1   
    27   13   16 1   
@<TRIPOS>SUBSTRUCTURE
     1 BGP         1 TEMP              0 ****  ****    0 ROOT
