@<TRIPOS>MOLECULE
BGP
   27    27     1     0     0
SMALL
bcc


@<TRIPOS>ATOM
      1 C1          1.4920   -0.1440   -2.4710 c3        1 BGP      0.324900
      2 C2          0.1350    0.0960   -3.1600 c3        1 BGP      0.046100
      3 C3         -0.6790    1.0890   -2.3240 c3        1 BGP      0.136100
      4 C4         -0.8620    0.4950   -0.9090 c3        1 BGP      0.155100
      5 C5          0.5360    0.2700   -0.3100 c3        1 BGP      0.080100
      6 C6          0.4980   -0.4310    1.0770 c3        1 BGP      0.250400
      7 O1          2.1680   -1.2200   -3.0920 oh        1 BGP     -0.650800
      8 O2          0.3300    0.6520   -4.4570 oh        1 BGP     -0.631800
      9 O3         -1.9460    1.3440   -2.9030 oh        1 BGP     -0.577800
     10 O4         -1.5910   -0.7050   -1.0190 oh        1 BGP     -0.660800
     11 O5          1.3640   -0.5730   -1.1410 os        1 BGP     -0.451600
     12 O6          0.1610    0.4680    2.0480 os        1 BGP     -0.561200
     13 P          -1.3480    0.0890    2.8460 p5        1 BGP      1.329900
     14 O1P        -1.0370   -1.2210    3.5090 o         1 BGP     -0.929833
     15 O2P        -1.5760    1.2820    3.7220 o         1 BGP     -0.929833
     16 O3P        -2.2090   -0.0220    1.6030 o         1 BGP     -0.929833
     17 H1          2.1570    0.7580   -2.5670 h2        1 BGP      0.042700
     18 H2         -0.4320   -0.8720   -3.2460 h1        1 BGP      0.078700
     19 H3         -0.1150    2.0620   -2.2510 h1        1 BGP      0.019700
     20 H4         -1.4170    1.2250   -0.2520 h1        1 BGP      0.123700
     21 H5          1.0520    1.2650   -0.2130 h1        1 BGP      0.024700
     22 H61        -0.2230   -1.2940    1.0280 h1        1 BGP      0.004200
     23 H62         1.5420   -0.8290    1.2540 h1        1 BGP      0.004200
     24 HO1         1.9520   -2.0220   -2.5960 ho        1 BGP      0.427000
     25 HO2         0.9700    0.0770   -4.8940 ho        1 BGP      0.398000
     26 HO3        -1.7820    1.5100   -3.8400 ho        1 BGP      0.381000
     27 HO4        -2.0580   -0.8060   -0.1570 ho        1 BGP      0.498000
@<TRIPOS>BOND
     1    1    2 1   
     2    1    7 1   
     3    1   11 1   
     4    1   17 1   
     5    2    3 1   
     6    2    8 1   
     7    2   18 1   
     8    3    4 1   
     9    3    9 1   
    10    3   19 1   
    11    4    5 1   
    12    4   10 1   
    13    4   20 1   
    14    5    6 1   
    15    5   11 1   
    16    5   21 1   
    17    6   12 1   
    18    6   22 1   
    19    6   23 1   
    20    7   24 1   
    21    8   25 1   
    22    9   26 1   
    23   10   27 1   
    24   12   13 1   
    25   13   14 1   
    26   13   15 1   
    27   13   16 1   
@<TRIPOS>SUBSTRUCTURE
     1 BGP         1 TEMP              0 ****  ****    0 ROOT
