@<TRIPOS>MOLECULE
BGS
   32    32     1     0     0
SMALL
bcc


@<TRIPOS>ATOM
      1 C2'         2.3630    1.3560   -0.0960 c3        1 BGS     -0.314600
      2 O2'         2.7490   -0.8810   -1.2270 o         1 BGS     -0.630800
      3 C5         -1.6030    1.0710   -0.4170 c3        1 BGS      0.068100
      4 C6         -1.9670    2.4570    0.1270 c3        1 BGS      0.133400
      5 C2         -0.4030   -1.5110    0.0830 c3        1 BGS      0.144100
      6 C4         -2.4400   -0.0360    0.2340 c3        1 BGS      0.084100
      7 C1          0.3360   -0.3240   -0.5480 c3        1 BGS     -0.020100
      8 S1          2.0730   -0.3200   -0.1420 s6        1 BGS      1.313000
      9 O2          0.1230   -2.6830   -0.5140 oh        1 BGS     -0.596800
     10 C3         -1.9090   -1.4090   -0.2060 c3        1 BGS      0.117100
     11 O3         -2.5260   -2.4480    0.5330 oh        1 BGS     -0.602800
     12 O4         -3.7880    0.0120   -0.2060 oh        1 BGS     -0.596800
     13 O5         -0.2190    0.9000   -0.0910 os        1 BGS     -0.404600
     14 O6         -1.2180    3.4690   -0.5070 oh        1 BGS     -0.586800
     15 CS          3.8310    1.6600    0.0510 c3        1 BGS     -0.077100
     16 O1'         2.2450   -0.8720    1.1280 o         1 BGS     -0.630800
     17 H2'1        1.8080    1.8400    0.7540 h1        1 BGS      0.118700
     18 H2'2        1.9790    1.8670   -1.0190 h1        1 BGS      0.118700
     19 H61        -3.0370    2.6880   -0.1200 h1        1 BGS      0.056200
     20 H62        -1.8080    2.4870    1.2370 h1        1 BGS      0.056200
     21 H2         -0.2290   -1.5290    1.1970 h1        1 BGS      0.085700
     22 H4         -2.3930    0.0490    1.3550 h1        1 BGS      0.064700
     23 H1          0.2230   -0.4000   -1.6670 h2        1 BGS      0.109700
     24 HO2        -0.3390   -3.4280   -0.1060 ho        1 BGS      0.436000
     25 H3         -2.1040   -1.5570   -1.3050 h1        1 BGS      0.068700
     26 HO3        -3.4770   -2.3700    0.3770 ho        1 BGS      0.426000
     27 HO4        -4.1780    0.8140    0.1600 ho        1 BGS      0.411000
     28 HO6        -0.2840    3.2770   -0.3440 ho        1 BGS      0.411000
     29 HS1         4.0020    2.7630    0.0530 hc        1 BGS      0.055367
     30 HS2         4.2240    1.2440    1.0120 hc        1 BGS      0.055367
     31 HS3         4.4100    1.2180   -0.7980 hc        1 BGS      0.055367
     32 H5         -1.7280    1.0440   -1.5350 h1        1 BGS      0.075700
@<TRIPOS>BOND
     1    1    8 1   
     2    1   15 1   
     3    1   17 1   
     4    1   18 1   
     5    2    8 2   
     6    3    4 1   
     7    3    6 1   
     8    3   13 1   
     9    3   32 1   
    10    4   14 1   
    11    4   19 1   
    12    4   20 1   
    13    5    7 1   
    14    5    9 1   
    15    5   10 1   
    16    5   21 1   
    17    6   10 1   
    18    6   12 1   
    19    6   22 1   
    20    7    8 1   
    21    7   13 1   
    22    7   23 1   
    23    8   16 2   
    24    9   24 1   
    25   10   11 1   
    26   10   25 1   
    27   11   26 1   
    28   12   27 1   
    29   14   28 1   
    30   15   29 1   
    31   15   30 1   
    32   15   31 1   
@<TRIPOS>SUBSTRUCTURE
     1 BGS         1 TEMP              0 ****  ****    0 ROOT
