@<TRIPOS>MOLECULE
BGS
   32    32     1     0     0
SMALL
bcc


@<TRIPOS>ATOM
      1 C2'        -2.9550    0.4070   -0.6570 c3        1 BGS     -0.318600
      2 O2'        -0.6390   -0.6510   -1.4230 o         1 BGS     -0.645800
      3 C5          1.9010    0.7960    0.5450 c3        1 BGS      0.096100
      4 C6          1.7330    0.8140   -0.9510 c3        1 BGS      0.117400
      5 C2         -0.1680   -1.0270    1.4430 c3        1 BGS      0.122100
      6 C4          2.2250   -0.5990    0.9760 c3        1 BGS      0.116100
      7 C1         -0.5460    0.4130    0.9850 c3        1 BGS     -0.067100
      8 S1         -1.1630    0.4290   -0.6650 s6        1 BGS      1.274000
      9 O2         -0.0080   -1.0290    2.8470 oh        1 BGS     -0.589800
     10 C3          1.0970   -1.5300    0.8100 c3        1 BGS      0.080100
     11 O3          0.8600   -1.7380   -0.6280 oh        1 BGS     -0.601800
     12 O4          2.6180   -0.5760    2.4090 oh        1 BGS     -0.598800
     13 O5          0.6490    1.3220    1.1700 os        1 BGS     -0.371600
     14 O6          1.6470    2.1570   -1.3990 oh        1 BGS     -0.596800
     15 CS         -3.4770    0.8070   -2.0440 c3        1 BGS     -0.079100
     16 O1'        -0.6610    1.5480   -1.3930 o         1 BGS     -0.645800
     17 H2'1       -3.2850    1.0380    0.0100 h1        1 BGS      0.119200
     18 H2'2       -3.2820   -0.5310   -0.4290 h1        1 BGS      0.119200
     19 H5          2.6660    1.3980    0.7920 h1        1 BGS      0.112700
     20 H61         2.5120    0.3720   -1.3770 h1        1 BGS      0.059700
     21 H62         0.8790    0.3170   -1.2030 h1        1 BGS      0.059700
     22 H2         -0.9210   -1.6530    1.2010 h1        1 BGS      0.095700
     23 H4          2.9710   -0.9210    0.4530 h1        1 BGS      0.071700
     24 H1         -1.3220    0.7560    1.4810 h2        1 BGS      0.124700
     25 HO2        -0.6100   -1.5170    3.2000 ho        1 BGS      0.433000
     26 H3          1.3300   -2.3720    1.2110 h1        1 BGS      0.058700
     27 HO3         0.9690   -2.6180   -0.8280 ho        1 BGS      0.439000
     28 HO4         3.5160   -0.8090    2.4890 ho        1 BGS      0.411000
     29 HO6         2.2420    2.2930   -2.0500 ho        1 BGS      0.429000
     30 HS1        -4.4380    0.6860   -2.0750 hc        1 BGS      0.058367
     31 HS2        -3.2620    1.7400   -2.2150 hc        1 BGS      0.058367
     32 HS3        -3.0790    0.2770   -2.6870 hc        1 BGS      0.058367
@<TRIPOS>BOND
     1    1    8 1   
     2    1   15 1   
     3    1   17 1   
     4    1   18 1   
     5    2    8 2   
     6    3    4 1   
     7    3    6 1   
     8    3   13 1   
     9    3   19 1   
    10    4   14 1   
    11    4   20 1   
    12    4   21 1   
    13    5    7 1   
    14    5    9 1   
    15    5   10 1   
    16    5   22 1   
    17    6   10 1   
    18    6   12 1   
    19    6   23 1   
    20    7    8 1   
    21    7   13 1   
    22    7   24 1   
    23    8   16 2   
    24    9   25 1   
    25   10   11 1   
    26   10   26 1   
    27   11   27 1   
    28   12   28 1   
    29   14   29 1   
    30   15   30 1   
    31   15   31 1   
    32   15   32 1   
@<TRIPOS>SUBSTRUCTURE
     1 BGS         1 TEMP              0 ****  ****    0 ROOT
