@<TRIPOS>MOLECULE
BGT
   34    33     1     0     0
SMALL
bcc


@<TRIPOS>ATOM
      1 CB          0.3110    0.1710    1.1660 c3        1 BGT     -0.101400
      2 CG         -0.2620   -0.6370    0.0100 c3        1 BGT     -0.156400
      3 CD         -1.7540   -0.7340    0.1580 c         1 BGT      0.539100
      4 OE1        -2.4610   -0.2480    1.0230 o         1 BGT     -0.364100
      5 NE2        -2.4840   -1.5300   -0.9000 nz        1 BGT     -0.758400
      6 CT          2.2300    1.7720   -2.5630 c3        1 BGT      0.187800
      7 C1          3.6710    2.2320   -2.4900 c3        1 BGT     -0.124100
      8 C2          1.2580    2.9280   -2.6550 c3        1 BGT     -0.124100
      9 C3          2.0230    0.7670   -3.6870 c3        1 BGT     -0.124100
     10 C           2.0360    1.4730   -0.1370 c         1 BGT      0.625100
     11 O           2.2910    2.6490    0.1160 o         1 BGT     -0.490000
     12 OXT         1.9080    0.9510   -1.3610 os        1 BGT     -0.450900
     13 N           2.4760    0.8880    2.2240 nz        1 BGT     -0.836600
     14 CA          1.8120    0.4130    0.9630 c3        1 BGT      0.051500
     15 HB1         0.1270   -0.3890    2.1240 hc        1 BGT      0.102700
     16 HB2        -0.2270    1.1570    1.2450 hc        1 BGT      0.102700
     17 HG1        -0.0070   -0.1400   -0.9730 hc        1 BGT      0.127700
     18 HG2         0.1850   -1.6700   -0.0040 hc        1 BGT      0.127700
     19 HE21       -2.3190   -1.1270   -1.8300 hn        1 BGT      0.483800
     20 HE22       -3.4990   -1.5170   -0.7090 hn        1 BGT      0.483800
     21 H11         3.9500    2.7090   -3.4620 hc        1 BGT      0.069367
     22 H12         4.3520    1.3660   -2.3110 hc        1 BGT      0.069367
     23 H13         3.8090    2.9860   -1.6770 hc        1 BGT      0.069367
     24 H21         1.4050    3.4500   -3.6340 hc        1 BGT      0.069367
     25 H22         1.4330    3.6650   -1.8340 hc        1 BGT      0.069367
     26 H23         0.2050    2.5630   -2.6020 hc        1 BGT      0.069367
     27 H31         2.2370    1.2750   -4.6600 hc        1 BGT      0.069367
     28 H32         0.9710    0.3980   -3.6950 hc        1 BGT      0.069367
     29 H33         2.7150   -0.1010   -3.5740 hc        1 BGT      0.069367
     30 HN1         3.4950    0.7750    2.1390 hn        1 BGT      0.483133
     31 HN2         2.1400    0.3590    3.0350 hn        1 BGT      0.483133
     32 HA          2.3210   -0.5510    0.6490 hx        1 BGT      0.142700
     33 HE23       -2.1630   -2.5050   -0.9000 hn        1 BGT      0.483800
     34 HN3         2.2770    1.8940    2.3590 hn        1 BGT      0.483133
@<TRIPOS>BOND
     1    1    2 1   
     2    1   14 1   
     3    1   15 1   
     4    1   16 1   
     5    2    3 1   
     6    2   17 1   
     7    2   18 1   
     8    3    4 2   
     9    3    5 1   
    10    5   19 1   
    11    5   20 1   
    12    5   33 1   
    13    6    7 1   
    14    6    8 1   
    15    6    9 1   
    16    6   12 1   
    17    7   21 1   
    18    7   22 1   
    19    7   23 1   
    20    8   24 1   
    21    8   25 1   
    22    8   26 1   
    23    9   27 1   
    24    9   28 1   
    25    9   29 1   
    26   10   11 2   
    27   10   12 1   
    28   10   14 1   
    29   13   14 1   
    30   13   30 1   
    31   13   31 1   
    32   13   34 1   
    33   14   32 1   
@<TRIPOS>SUBSTRUCTURE
     1 BGT         1 TEMP              0 ****  ****    0 ROOT
