@<TRIPOS>MOLECULE
BGT
   34    33     1     0     0
SMALL
bcc


@<TRIPOS>ATOM
      1 CB          0.4200    0.0520    1.1660 c3        1 BGT     -0.101400
      2 CG         -0.2200   -0.6830   -0.0030 c3        1 BGT     -0.156400
      3 CD         -1.7020   -0.7880    0.2220 c         1 BGT      0.539100
      4 OE1        -2.3570   -0.3570    1.1540 o         1 BGT     -0.364100
      5 NE2        -2.4930   -1.5160   -0.8410 n4        1 BGT     -0.758400
      6 CT          2.1380    1.8720   -2.5600 c3        1 BGT      0.187800
      7 C1          3.5830    2.3260   -2.5390 c3        1 BGT     -0.124100
      8 C2          1.1670    3.0330   -2.5300 c3        1 BGT     -0.124100
      9 C3          1.8650    0.9380   -3.7300 c3        1 BGT     -0.124100
     10 C           2.0760    1.4280   -0.1500 c         1 BGT      0.625100
     11 O           2.3500    2.5860    0.1590 o         1 BGT     -0.490000
     12 OXT         1.8790    0.9810   -1.3940 os        1 BGT     -0.450900
     13 N           2.6440    0.7010    2.1440 n4        1 BGT     -0.836600
     14 CA          1.9090    0.3040    0.8950 c3        1 BGT      0.051500
     15 HB1        -0.1080    1.0320    1.3350 hc        1 BGT      0.102700
     16 HB2         0.2870   -0.5650    2.0980 hc        1 BGT      0.102700
     17 HG1         0.2210   -1.7140   -0.1050 hc        1 BGT      0.127700
     18 HG2        -0.0180   -0.1270   -0.9660 hc        1 BGT      0.127700
     19 HE21       -2.1760   -2.4890   -0.9200 hn        1 BGT      0.483800
     20 HE22       -3.4960   -1.5140   -0.5920 hn        1 BGT      0.483800
     21 H11         3.8100    2.8600   -3.4950 hc        1 BGT      0.069367
     22 H12         3.7680    3.0300   -1.6910 hc        1 BGT      0.069367
     23 H13         4.2690    1.4500   -2.4500 hc        1 BGT      0.069367
     24 H21         0.1170    2.6660   -2.4410 hc        1 BGT      0.069367
     25 H22         1.2630    3.6130   -3.4810 hc        1 BGT      0.069367
     26 H23         1.3900    3.7190   -1.6760 hc        1 BGT      0.069367
     27 H31         0.8130    0.5700   -3.7020 hc        1 BGT      0.069367
     28 H32         2.0270    1.5030   -4.6810 hc        1 BGT      0.069367
     29 H33         2.5580    0.0630   -3.7070 hc        1 BGT      0.069367
     30 HN1         2.4570    1.6980    2.3500 hn        1 BGT      0.483133
     31 HN2         2.3500    0.1250    2.9390 hn        1 BGT      0.483133
     32 HA          2.3950   -0.6400    0.4970 hx        1 BGT      0.142700
     33 HE23       -2.3790   -1.0560   -1.7510 hn        1 BGT      0.483800
     34 HN3         3.6560    0.5920    1.9960 hn        1 BGT      0.483133
@<TRIPOS>BOND
     1    1    2 1   
     2    1   14 1   
     3    1   15 1   
     4    1   16 1   
     5    2    3 1   
     6    2   17 1   
     7    2   18 1   
     8    3    4 2   
     9    3    5 1   
    10    5   19 1   
    11    5   20 1   
    12    5   33 1   
    13    6    7 1   
    14    6    8 1   
    15    6    9 1   
    16    6   12 1   
    17    7   21 1   
    18    7   22 1   
    19    7   23 1   
    20    8   24 1   
    21    8   25 1   
    22    8   26 1   
    23    9   27 1   
    24    9   28 1   
    25    9   29 1   
    26   10   11 2   
    27   10   12 1   
    28   10   14 1   
    29   13   14 1   
    30   13   30 1   
    31   13   31 1   
    32   13   34 1   
    33   14   32 1   
@<TRIPOS>SUBSTRUCTURE
     1 BGT         1 TEMP              0 ****  ****    0 ROOT
