@<TRIPOS>MOLECULE
BGT
   34    33     1     0     0
SMALL
bcc


@<TRIPOS>ATOM
      1 CB          0.2840    0.2390    1.1740 c3        1 BGT     -0.101400
      2 CG         -0.2490   -0.6280    0.0440 c3        1 BGT     -0.156400
      3 CD         -1.7420   -0.7500    0.1660 c         1 BGT      0.539100
      4 OE1        -2.4760   -0.2420    0.9960 o         1 BGT     -0.364100
      5 NE2        -2.4330   -1.6080   -0.8690 n4        1 BGT     -0.758400
      6 CT          2.2420    1.7230   -2.5830 c3        1 BGT      0.187800
      7 C1          3.6720    2.2160   -2.5020 c3        1 BGT     -0.124100
      8 C2          1.2480    2.8540   -2.7420 c3        1 BGT     -0.124100
      9 C3          2.0770    0.6680   -3.6670 c3        1 BGT     -0.124100
     10 C           2.0070    1.5220   -0.1500 c         1 BGT      0.625100
     11 O           2.2330    2.7130    0.0570 o         1 BGT     -0.490000
     12 OXT         1.9140    0.9470   -1.3530 os        1 BGT     -0.450900
     13 N           2.4130    1.0470    2.2410 n4        1 BGT     -0.836600
     14 CA          1.7840    0.5050    0.9890 c3        1 BGT      0.051500
     15 HB1         0.0930   -0.2830    2.1520 hc        1 BGT      0.102700
     16 HB2        -0.2750    1.2160    1.2000 hc        1 BGT      0.102700
     17 HG1         0.0150   -0.1690   -0.9550 hc        1 BGT      0.127700
     18 HG2         0.2190   -1.6520    0.0820 hc        1 BGT      0.127700
     19 HE21       -3.4530   -1.6070   -0.6990 hn        1 BGT      0.483800
     20 HE22       -2.0940   -2.5750   -0.8190 hn        1 BGT      0.483800
     21 H11         3.9600    2.6580   -3.4890 hc        1 BGT      0.069367
     22 H12         3.7790    3.0060   -1.7200 hc        1 BGT      0.069367
     23 H13         4.3670    1.3730   -2.2750 hc        1 BGT      0.069367
     24 H21         1.3930    3.6280   -1.9500 hc        1 BGT      0.069367
     25 H22         1.4040    3.3370   -3.7390 hc        1 BGT      0.069367
     26 H23         0.2020    2.4690   -2.6930 hc        1 BGT      0.069367
     27 H31         1.0330    0.2770   -3.6780 hc        1 BGT      0.069367
     28 H32         2.2990    1.1390   -4.6570 hc        1 BGT      0.069367
     29 H33         2.7840   -0.1800   -3.5040 hc        1 BGT      0.069367
     30 HN1         3.4350    0.9530    2.1810 hn        1 BGT      0.483133
     31 HN2         2.1900    2.0540    2.3300 hn        1 BGT      0.483133
     32 HA          2.3180   -0.4600    0.7270 hx        1 BGT      0.142700
     33 HE23       -2.2580   -1.2430   -1.8120 hn        1 BGT      0.483800
     34 HN3         2.0710    0.5450    3.0670 hn        1 BGT      0.483133
@<TRIPOS>BOND
     1    1    2 1   
     2    1   14 1   
     3    1   15 1   
     4    1   16 1   
     5    2    3 1   
     6    2   17 1   
     7    2   18 1   
     8    3    4 2   
     9    3    5 1   
    10    5   19 1   
    11    5   20 1   
    12    5   33 1   
    13    6    7 1   
    14    6    8 1   
    15    6    9 1   
    16    6   12 1   
    17    7   21 1   
    18    7   22 1   
    19    7   23 1   
    20    8   24 1   
    21    8   25 1   
    22    8   26 1   
    23    9   27 1   
    24    9   28 1   
    25    9   29 1   
    26   10   11 2   
    27   10   12 1   
    28   10   14 1   
    29   13   14 1   
    30   13   30 1   
    31   13   31 1   
    32   13   34 1   
    33   14   32 1   
@<TRIPOS>SUBSTRUCTURE
     1 BGT         1 TEMP              0 ****  ****    0 ROOT
