@<TRIPOS>MOLECULE
BGT
   32    31     1     0     0
SMALL
bcc


@<TRIPOS>ATOM
      1 CB         -1.2810    0.1930   -0.1500 c3        1 BGT     -0.066400
      2 CG         -2.6420    0.3200    0.4980 c3        1 BGT     -0.145400
      3 CD         -3.5280   -0.8480    0.1100 c         1 BGT      0.655100
      4 OE1        -3.1340   -1.7840   -0.6160 o         1 BGT     -0.616100
      5 NE2        -4.8150   -0.8580    0.5930 n         1 BGT     -0.681000
      6 CT          2.9050   -0.6300    0.0580 c3        1 BGT      0.171800
      7 C1          3.9780    0.4010    0.3640 c3        1 BGT     -0.112767
      8 C2          2.9290   -1.0440   -1.4040 c3        1 BGT     -0.112767
      9 C3          3.0660   -1.8520    0.9600 c3        1 BGT     -0.112767
     10 C           1.0700    0.9660   -0.1910 c         1 BGT      0.596100
     11 O           1.7070    1.5910   -1.0420 o         1 BGT     -0.558000
     12 OXT         1.5930   -0.1240    0.4230 os        1 BGT     -0.437900
     13 N          -0.7760    2.6300   -0.0380 n3        1 BGT     -0.896800
     14 CA         -0.3340    1.3040    0.3270 c3        1 BGT      0.126500
     15 HB1        -1.3890    0.2190   -1.2660 hc        1 BGT      0.074200
     16 HB2        -0.8250   -0.7980    0.1180 hc        1 BGT      0.074200
     17 HG1        -2.5330    0.3420    1.6150 hc        1 BGT      0.071700
     18 HG2        -3.1330    1.2790    0.1830 hc        1 BGT      0.071700
     19 HE21       -5.1550   -0.1230    1.1550 hn        1 BGT      0.311000
     20 HE22       -5.4220   -1.6010    0.3540 hn        1 BGT      0.311000
     21 H11         3.8900    1.2740   -0.3270 hc        1 BGT      0.051256
     22 H12         3.8750    0.7620    1.4150 hc        1 BGT      0.051256
     23 H13         4.9850   -0.0630    0.2370 hc        1 BGT      0.051256
     24 H21         3.8820   -1.5830   -1.6200 hc        1 BGT      0.051256
     25 H22         2.0710   -1.7220   -1.6250 hc        1 BGT      0.051256
     26 H23         2.8610   -0.1470   -2.0650 hc        1 BGT      0.051256
     27 H31         3.0150   -1.5480    2.0320 hc        1 BGT      0.051256
     28 H32         2.2530   -2.5890    0.7580 hc        1 BGT      0.051256
     29 H33         4.0550   -2.3270    0.7580 hc        1 BGT      0.051256
     30 HN1        -0.0910    3.3120    0.2250 hn        1 BGT      0.363300
     31 HN2        -0.9340    2.6940   -1.0260 hn        1 BGT      0.363300
     32 HA         -0.2770    1.2680    1.4570 h1        1 BGT      0.087700
@<TRIPOS>BOND
     1    1    2 1   
     2    1   14 1   
     3    1   15 1   
     4    1   16 1   
     5    2    3 1   
     6    2   17 1   
     7    2   18 1   
     8    3    4 2   
     9    3    5 1   
    10    5   19 1   
    11    5   20 1   
    12    6    7 1   
    13    6    8 1   
    14    6    9 1   
    15    6   12 1   
    16    7   21 1   
    17    7   22 1   
    18    7   23 1   
    19    8   24 1   
    20    8   25 1   
    21    8   26 1   
    22    9   27 1   
    23    9   28 1   
    24    9   29 1   
    25   10   11 2   
    26   10   12 1   
    27   10   14 1   
    28   13   14 1   
    29   13   30 1   
    30   13   31 1   
    31   14   32 1   
@<TRIPOS>SUBSTRUCTURE
     1 BGT         1 TEMP              0 ****  ****    0 ROOT
