@<TRIPOS>MOLECULE
BGT
   32    30     1     0     0
SMALL
bcc


@<TRIPOS>ATOM
      1 CB         -1.4110   -0.6050    1.2010 c3        1 BGT     -0.145000
      2 CG         -2.1910   -1.9000    1.1540 c3        1 BGT     -0.174000
      3 CD         -3.5580   -1.6880    1.7680 c2        1 BGT      0.299000
      4 OE1        -3.9430   -0.5630    2.0180 o         1 BGT     -0.377000
      5 NE2        -4.3930   -2.8010    2.0420 n         1 BGT     -0.441000
      6 CT          1.7890    1.3950   -1.6480 c3        1 BGT      0.100000
      7 C1          2.9030    1.6280   -0.6520 c3        1 BGT     -0.230667
      8 C2          0.9060    2.6220   -1.7140 c3        1 BGT     -0.230667
      9 C3          2.3810    1.1260   -3.0140 c3        1 BGT     -0.230667
     10 C           0.5580    0.3710    0.0790 c1        1 BGT      0.267000
     11 O           0.5830    1.4350    0.6660 o         1 BGT     -0.369000
     12 OXT         1.0230    0.2880   -1.2440 o         1 BGT     -0.276000
     13 N           0.8120   -1.1560    1.9070 n3        1 BGT     -0.329000
     14 CA          0.0140   -0.8590    0.7670 c3        1 BGT     -0.021000
     15 HB1        -1.8240    0.0470    0.6000 hc        1 BGT      0.113500
     16 HB2        -1.4160   -0.2540    2.1150 hc        1 BGT      0.113500
     17 HG1        -1.7110   -2.5880    1.6570 hc        1 BGT      0.111000
     18 HG2        -2.2930   -2.1860    0.2240 hc        1 BGT      0.111000
     19 HE21       -5.2230   -2.6720    2.4030 hn        1 BGT      0.224500
     20 HE22       -4.1010   -3.6480    1.8570 hn        1 BGT      0.224500
     21 H11         2.5570    2.1310    0.1140 hc        1 BGT      0.090556
     22 H12         3.6220    2.1390   -1.0800 hc        1 BGT      0.090556
     23 H13         3.2540    0.7650   -0.3460 hc        1 BGT      0.090556
     24 H21         0.0050    2.3610   -1.9970 hc        1 BGT      0.090556
     25 H22         0.8620    3.0400   -0.8280 hc        1 BGT      0.090556
     26 H23         1.2790    3.2590   -2.3580 hc        1 BGT      0.090556
     27 H31         2.8970    0.2930   -2.9890 hc        1 BGT      0.090556
     28 H32         2.9700    1.8680   -3.2670 hc        1 BGT      0.090556
     29 H33         1.6590    1.0430   -3.6730 hc        1 BGT      0.090556
     30 HN1         1.5970   -1.5420    1.6380 hn        1 BGT      0.158500
     31 HN2         0.3590   -1.7360    2.4530 hn        1 BGT      0.158500
     32 HA          0.0360   -1.6150    0.1480 h1        1 BGT      0.127000
@<TRIPOS>BOND
     1    1    2 1   
     2    1   14 1   
     3    1   15 1   
     4    1   16 1   
     5    2    3 1   
     6    2   17 1   
     7    2   18 1   
     8    3    4 1   
     9    3    5 1   
    10    5   19 1   
    11    5   20 1   
    12    6    7 1   
    13    6    8 1   
    14    6    9 1   
    15    6   12 1   
    16    7   21 1   
    17    7   22 1   
    18    7   23 1   
    19    8   24 1   
    20    8   25 1   
    21    8   26 1   
    22    9   27 1   
    23    9   28 1   
    24    9   29 1   
    25   10   11 1   
    26   10   14 1   
    27   13   14 1   
    28   13   30 1   
    29   13   31 1   
    30   14   32 1   
@<TRIPOS>SUBSTRUCTURE
     1 BGT         1 TEMP              0 ****  ****    0 ROOT
