@<TRIPOS>MOLECULE
BGU
   25    27     1     0     0
SMALL
bcc


@<TRIPOS>ATOM
      1 N2         -0.0280    0.0880    0.0260 na        1 BGU     -0.295300
      2 C3          1.3670    0.0430    0.0170 ca        1 BGU     -0.068200
      3 C7          2.3070    0.1030    1.0420 ca        1 BGU     -0.045000
      4 C8          3.6540    0.0590    0.6810 ca        1 BGU     -0.168600
      5 C14         4.0660   -0.0410   -0.6870 ca        1 BGU      0.119400
      6 C15         3.1200   -0.0990   -1.7270 ca        1 BGU     -0.038000
      7 C4          1.7660   -0.0590   -1.3850 ca        1 BGU      0.139400
      8 N5          0.6350   -0.0970   -2.2060 nc        1 BGU     -0.613100
      9 C1         -0.4390   -0.0360   -1.3430 cd        1 BGU      0.667700
     10 N6         -1.7700   -0.1500   -1.7030 nv        1 BGU     -0.881800
     11 N13         5.4280   -0.0840   -1.0210 nc        1 BGU     -0.536100
     12 C12         6.3050   -0.0310   -0.0390 cd        1 BGU      0.496800
     13 N16         7.7500   -0.0820   -0.4460 nz        1 BGU     -0.798600
     14 N11         6.0310    0.0670    1.3300 ns        1 BGU     -0.513400
     15 C9          4.6700    0.1160    1.7440 c         1 BGU      0.729100
     16 O10         4.4640    0.2020    2.9600 o         1 BGU     -0.554500
     17 HN2        -0.6040    0.0060    0.8230 hn        1 BGU      0.323700
     18 H7          2.0200    0.1820    2.1040 ha        1 BGU      0.179000
     19 H15         3.4260   -0.1740   -2.7830 ha        1 BGU      0.182000
     20 HN61       -2.4460    0.2560   -1.0970 hn        1 BGU      0.445300
     21 HN62       -1.9600   -0.0890   -2.6800 hn        1 BGU      0.445300
     22 H161        7.8160   -0.1520   -1.4730 hn        1 BGU      0.478133
     23 H162        8.2240    0.7740   -0.1360 hn        1 BGU      0.478133
     24 HN11        6.7440    0.1020    2.0240 hn        1 BGU      0.347500
     25 H163        8.1960   -0.9030   -0.0230 hn        1 BGU      0.478133
@<TRIPOS>BOND
     1    1    2 1   
     2    1    9 1   
     3    1   17 1   
     4    2    3 ar  
     5    2    7 ar  
     6    3    4 ar  
     7    3   18 1   
     8    4    5 ar  
     9    4   15 1   
    10    5    6 ar  
    11    5   11 1   
    12    6    7 ar  
    13    6   19 1   
    14    7    8 1   
    15    8    9 2   
    16    9   10 1   
    17   10   20 1   
    18   10   21 1   
    19   11   12 2   
    20   12   13 1   
    21   12   14 1   
    22   13   22 1   
    23   13   23 1   
    24   13   25 1   
    25   14   15 1   
    26   14   24 1   
    27   15   16 2   
@<TRIPOS>SUBSTRUCTURE
     1 BGU         1 TEMP              0 ****  ****    0 ROOT
