@<TRIPOS>MOLECULE
BGU
   25    27     1     0     0
SMALL
bcc


@<TRIPOS>ATOM
      1 N2         -0.0270    0.0790    0.0350 na        1 BGU     -0.295300
      2 C3          1.3680    0.0370    0.0220 ca        1 BGU     -0.068200
      3 C7          2.3100    0.0910    1.0450 ca        1 BGU     -0.045000
      4 C8          3.6560    0.0530    0.6810 ca        1 BGU     -0.168600
      5 C14         4.0650   -0.0350   -0.6890 ca        1 BGU      0.119400
      6 C15         3.1170   -0.0880   -1.7280 ca        1 BGU     -0.038000
      7 C4          1.7630   -0.0540   -1.3820 ca        1 BGU      0.139400
      8 N5          0.6300   -0.0880   -2.2000 nc        1 BGU     -0.613100
      9 C1         -0.4420   -0.0370   -1.3330 cd        1 BGU      0.667700
     10 N6         -1.7740   -0.1500   -1.6910 nh        1 BGU     -0.881800
     11 N13         5.4260   -0.0730   -1.0270 nc        1 BGU     -0.536100
     12 C12         6.3050   -0.0250   -0.0470 cd        1 BGU      0.496800
     13 N16         7.7500   -0.0690   -0.4580 n4        1 BGU     -0.798600
     14 N11         6.0350    0.0610    1.3230 n         1 BGU     -0.513400
     15 C9          4.6750    0.1040    1.7420 c         1 BGU      0.729100
     16 O10         4.4710    0.1800    2.9580 o         1 BGU     -0.554500
     17 HN2        -0.6020   -0.0110    0.8320 hn        1 BGU      0.323700
     18 H7          2.0250    0.1620    2.1080 ha        1 BGU      0.179000
     19 H15         3.4200   -0.1540   -2.7850 ha        1 BGU      0.182000
     20 HN61       -2.4490    0.2490   -1.0810 hn        1 BGU      0.445300
     21 HN62       -1.9660   -0.0830   -2.6680 hn        1 BGU      0.445300
     22 H161        7.8130   -0.1330   -1.4860 hn        1 BGU      0.478133
     23 H162        8.2000   -0.8920   -0.0420 hn        1 BGU      0.478133
     24 HN11        6.7500    0.0930    2.0160 hn        1 BGU      0.347500
     25 H163        8.2220    0.7860   -0.1440 hn        1 BGU      0.478133
@<TRIPOS>BOND
     1    1    2 1   
     2    1    9 1   
     3    1   17 1   
     4    2    3 ar  
     5    2    7 ar  
     6    3    4 ar  
     7    3   18 1   
     8    4    5 ar  
     9    4   15 1   
    10    5    6 ar  
    11    5   11 1   
    12    6    7 ar  
    13    6   19 1   
    14    7    8 1   
    15    8    9 2   
    16    9   10 1   
    17   10   20 1   
    18   10   21 1   
    19   11   12 2   
    20   12   13 1   
    21   12   14 1   
    22   13   22 1   
    23   13   23 1   
    24   13   25 1   
    25   14   15 1   
    26   14   24 1   
    27   15   16 2   
@<TRIPOS>SUBSTRUCTURE
     1 BGU         1 TEMP              0 ****  ****    0 ROOT
