@<TRIPOS>MOLECULE
BGU
   26    28     1     0     0
SMALL
bcc


@<TRIPOS>ATOM
      1 N2         -0.0220    0.0150    0.0290 na        1 BGU     -0.241300
      2 C3          1.3730    0.0090    0.0150 ca        1 BGU     -0.029200
      3 C7          2.3200    0.0450    1.0500 ca        1 BGU     -0.041000
      4 C8          3.6570    0.0260    0.6810 ca        1 BGU     -0.116600
      5 C14         4.0800   -0.0280   -0.6910 ca        1 BGU      0.132400
      6 C15         3.1400   -0.0650   -1.7320 ca        1 BGU      0.015000
      7 C4          1.7810   -0.0460   -1.3810 ca        1 BGU      0.081400
      8 N5          0.6430   -0.0740   -2.2030 nc        1 BGU     -0.455100
      9 C1         -0.4070   -0.0370   -1.3360 cd        1 BGU      0.423700
     10 N6         -1.8060   -0.0480   -1.7700 n4        1 BGU     -0.758600
     11 N13         5.4460   -0.0460   -1.0220 nc        1 BGU     -0.552100
     12 C12         6.3230   -0.0110   -0.0360 cd        1 BGU      0.550800
     13 N16         7.7710   -0.0320   -0.4390 n4        1 BGU     -0.803600
     14 N11         6.0420    0.0430    1.3320 n         1 BGU     -0.505400
     15 C9          4.6840    0.0640    1.7500 c         1 BGU      0.718100
     16 O10         4.4550    0.1110    2.9600 o         1 BGU     -0.506500
     17 HN2        -0.6060    0.0480    0.8300 hn        1 BGU      0.348700
     18 H7          2.0300    0.0880    2.1160 ha        1 BGU      0.203000
     19 H15         3.4450   -0.1070   -2.7940 ha        1 BGU      0.204000
     20 HN61       -2.2790    0.8100   -1.4540 hn        1 BGU      0.495133
     21 HN62       -2.2850   -0.8760   -1.3890 hn        1 BGU      0.495133
     22 H161        8.2350    0.8230   -0.1030 hn        1 BGU      0.491800
     23 H162        8.2290   -0.8610   -0.0380 hn        1 BGU      0.491800
     24 HN11        6.7520    0.0680    2.0340 hn        1 BGU      0.368500
     25 H63        -1.8360   -0.0880   -2.8050 hn        1 BGU      0.495133
     26 H163        7.8460   -0.0720   -1.4700 hn        1 BGU      0.491800
@<TRIPOS>BOND
     1    1    2 1   
     2    1    9 1   
     3    1   17 1   
     4    2    3 ar  
     5    2    7 ar  
     6    3    4 ar  
     7    3   18 1   
     8    4    5 ar  
     9    4   15 1   
    10    5    6 ar  
    11    5   11 1   
    12    6    7 ar  
    13    6   19 1   
    14    7    8 1   
    15    8    9 2   
    16    9   10 1   
    17   10   20 1   
    18   10   21 1   
    19   10   25 1   
    20   11   12 2   
    21   12   13 1   
    22   12   14 1   
    23   13   22 1   
    24   13   23 1   
    25   13   26 1   
    26   14   15 1   
    27   14   24 1   
    28   15   16 2   
@<TRIPOS>SUBSTRUCTURE
     1 BGU         1 TEMP              0 ****  ****    0 ROOT
