@<TRIPOS>MOLECULE
BGU
   24    26     1     0     0
SMALL
bcc


@<TRIPOS>ATOM
      1 N2          2.9660    1.0530   -0.0680 na        1 BGU     -0.284300
      2 C3          1.6160    0.6450   -0.0030 ca        1 BGU     -0.121200
      3 C7          0.4350    1.3670   -0.0240 ca        1 BGU     -0.047000
      4 C8         -0.7630    0.6430   -0.0180 ca        1 BGU     -0.202600
      5 C14        -0.7950   -0.7830   -0.0060 ca        1 BGU      0.201400
      6 C15         0.4160   -1.5160    0.0080 ca        1 BGU     -0.098000
      7 C4          1.6150   -0.8130    0.0160 ca        1 BGU      0.140400
      8 N5          2.9420   -1.2890    0.0300 nc        1 BGU     -0.619100
      9 C1          3.7250   -0.1710    0.0400 cd        1 BGU      0.604700
     10 N6          5.1220   -0.1500    0.1690 nh        1 BGU     -0.861800
     11 N13        -2.0000   -1.4890    0.0000 nc        1 BGU     -0.674100
     12 C12        -3.1460   -0.8010   -0.0420 cd        1 BGU      0.656800
     13 N16        -4.3780   -1.4970   -0.1710 nh        1 BGU     -0.882800
     14 N11        -3.2120    0.6120   -0.0210 n         1 BGU     -0.505400
     15 C9         -2.0370    1.3800   -0.0340 c         1 BGU      0.720100
     16 O10        -2.1490    2.6200   -0.0470 o         1 BGU     -0.630500
     17 HN2         3.2740    1.9000    0.3410 hn        1 BGU      0.292700
     18 H7          0.4100    2.4680   -0.0460 ha        1 BGU      0.162000
     19 H15         0.4080   -2.6160    0.0100 ha        1 BGU      0.168000
     20 HN61        5.5410   -1.0460    0.0260 hn        1 BGU      0.411800
     21 HN62        5.5660    0.5770   -0.3510 hn        1 BGU      0.411800
     22 H161       -4.2820   -2.4910   -0.1160 hn        1 BGU      0.410800
     23 H162       -5.1090   -1.1440    0.4080 hn        1 BGU      0.410800
     24 HN11       -4.0860    1.0820   -0.1060 hn        1 BGU      0.335500
@<TRIPOS>BOND
     1    1    2 1   
     2    1    9 1   
     3    1   17 1   
     4    2    3 ar  
     5    2    7 ar  
     6    3    4 ar  
     7    3   18 1   
     8    4    5 ar  
     9    4   15 1   
    10    5    6 ar  
    11    5   11 1   
    12    6    7 ar  
    13    6   19 1   
    14    7    8 1   
    15    8    9 2   
    16    9   10 1   
    17   10   20 1   
    18   10   21 1   
    19   11   12 2   
    20   12   13 1   
    21   12   14 1   
    22   13   22 1   
    23   13   23 1   
    24   14   15 1   
    25   14   24 1   
    26   15   16 2   
@<TRIPOS>SUBSTRUCTURE
     1 BGU         1 TEMP              0 ****  ****    0 ROOT
