@<TRIPOS>MOLECULE
BGU
   24    19     1     0     0
SMALL
bcc


@<TRIPOS>ATOM
      1 N2         -3.0790    0.0060    0.1400 n2        1 BGU     -0.241000
      2 C3         -1.7240    0.0060    0.1400 c1        1 BGU     -0.076000
      3 C7         -0.7790    0.0060    1.1870 c1        1 BGU     -0.047000
      4 C8          0.5940    0.0060    0.8950 c1        1 BGU     -0.182000
      5 C14         1.0170    0.0060   -0.4110 c1        1 BGU      0.062000
      6 C15         0.0760    0.0060   -1.4540 c1        1 BGU     -0.098000
      7 C4         -1.3030    0.0060   -1.1600 c1        1 BGU      0.001000
      8 N5         -2.4010    0.0060   -1.9550 n1        1 BGU     -0.192000
      9 C1         -3.5000    0.0060   -1.1540 c1        1 BGU      0.126000
     10 N6         -4.7720    0.0040   -1.7830 n2        1 BGU     -0.300000
     11 N13         2.4440    0.0060   -0.7150 n2        1 BGU     -0.247000
     12 C12         3.4130    0.0060    0.3570 c1        1 BGU      0.210000
     13 N16         4.7990   -0.0190    0.0590 n3        1 BGU     -0.321000
     14 N11         2.9760    0.0060    1.7170 n2        1 BGU     -0.345000
     15 C9          1.6060    0.0060    2.0130 c2        1 BGU      0.357000
     16 O10         1.2340   -0.0510    3.1680 o         1 BGU     -0.355000
     17 HN2        -3.6150    0.0060    0.8780 DU        1 BGU      0.243000
     18 H7         -1.0810    0.0070    2.1160 ha        1 BGU      0.162000
     19 H15         0.3760    0.0060   -2.3830 ha        1 BGU      0.168000
     20 HN61       -5.1800    0.7930   -1.9870 hn        1 BGU      0.207000
     21 HN62       -5.1790   -0.7860   -1.9870 hn        1 BGU      0.207000
     22 H161        5.0790   -0.0220   -0.8080 hn        1 BGU      0.206000
     23 H162        5.4110   -0.0220    0.7360 hn        1 BGU      0.206000
     24 HN11        3.5880    0.0060    2.3920 hn        1 BGU      0.249000
@<TRIPOS>BOND
     1    1    2 1   
     2    1    9 1   
     3    2    7 1   
     4    3    4 1   
     5    3   18 1   
     6    4   15 1   
     7    5    6 1   
     8    5   11 1   
     9    6   19 1   
    10    8    9 1   
    11   10   20 1   
    12   10   21 1   
    13   11   12 1   
    14   12   13 1   
    15   13   22 1   
    16   13   23 1   
    17   14   15 1   
    18   14   24 1   
    19   15   16 1   
@<TRIPOS>SUBSTRUCTURE
     1 BGU         1 TEMP              0 ****  ****    0 ROOT
