@<TRIPOS>MOLECULE
BGV
   42    40     1     0     0
SMALL
bcc


@<TRIPOS>ATOM
      1 CAA        -3.5550    0.4360    0.1740 c1        1 BGV     -0.098000
      2 CAB        -1.3590    3.1210    2.8700 c3        1 BGV     -0.219000
      3 CAC         2.7570   -0.2400   -2.5400 c3        1 BGV     -0.212000
      4 CAD         0.6840   -1.9300    0.6540 c3        1 BGV     -0.210000
      5 OAE        -1.5490    0.7710    3.0800 o         1 BGV     -0.347000
      6 OAF         1.1530   -0.3120    3.1750 o         1 BGV     -0.288000
      7 OAG        -4.2240   -1.5290   -2.0150 o         1 BGV     -0.287000
      8 CAH         2.7410    0.4360    1.5410 c1        1 BGV     -0.166500
      9 CAI         2.8070    0.4360    0.1740 c1        1 BGV     -0.166500
     10 CAJ         0.3730   -0.8640   -2.3470 c3        1 BGV     -0.164000
     11 OAK        -0.6680    1.4520    1.1010 os        1 BGV     -0.297000
     12 OAL        -1.8430   -1.8470   -2.1890 os        1 BGV     -0.251000
     13 CAM        -1.1980    1.6990    2.3790 c2        1 BGV      0.324000
     14 CAN        -2.7070   -0.2800   -0.5900 c1        1 BGV     -0.189000
     15 CAO         1.4120    0.0430    2.0430 c1        1 BGV      0.273000
     16 CAP        -3.0940   -1.1980   -1.7180 c1        1 BGV      0.333000
     17 CAQ         1.6800   -0.7480   -1.5950 c3        1 BGV     -0.093000
     18 CAR        -0.7470   -1.2620   -1.4200 c3        1 BGV      0.030000
     19 CAS         1.5480    0.2110   -0.4280 c2        1 BGV     -0.089000
     20 CAT        -0.6700    0.0780    0.7310 c3        1 BGV      0.066000
     21 CAU        -1.3040   -0.0710   -0.7050 c3        1 BGV     -0.103000
     22 CAV         0.6780   -0.4180    0.7490 c3        1 BGV     -0.110000
     23 HAB        -1.2830    3.7360    2.1160 hc        1 BGV      0.120333
     24 HABA       -2.2360    3.2240    3.2860 hc        1 BGV      0.120333
     25 HABB       -0.6630    3.3200    3.5240 hc        1 BGV      0.120333
     26 HAC         3.6330   -0.5280   -2.2200 hc        1 BGV      0.079667
     27 HACA        2.7270    0.7350   -2.5730 hc        1 BGV      0.079667
     28 HACB        2.6020   -0.6000   -3.4340 hc        1 BGV      0.079667
     29 HAD         0.9240   -2.1980   -0.2530 hc        1 BGV      0.091333
     30 HADA       -0.2040   -2.2730    0.8710 hc        1 BGV      0.091333
     31 HADB        1.3350   -2.2930    1.2840 hc        1 BGV      0.091333
     32 HAH         3.5390    0.2410    2.0680 ha        1 BGV      0.158500
     33 HAI         3.4760    0.9800   -0.2820 ha        1 BGV      0.158500
     34 HAJ         0.1610   -0.0040   -2.7570 hc        1 BGV      0.103500
     35 HAJA        0.4640   -1.5390   -3.0470 hc        1 BGV      0.103500
     36 HAQ         1.9370   -1.6280   -1.2600 hc        1 BGV      0.101000
     37 HAR        -0.4200   -1.9110   -0.7690 h1        1 BGV      0.108000
     38 HAS         1.1580    1.0560   -0.7240 ha        1 BGV      0.117000
     39 HAT        -1.2060   -0.4270    1.3720 h1        1 BGV      0.139000
     40 HAU        -1.1330    0.7370   -1.2260 hc        1 BGV      0.126000
     41 HAA        -4.5170    0.3840    0.0160 DU        1 BGV      0.141000
     42 HAAA       -3.2080    1.0060    0.8860 ha        1 BGV      0.133000
@<TRIPOS>BOND
     1    1   14 1   
     2    1   42 1   
     3    2   13 1   
     4    2   23 1   
     5    2   24 1   
     6    2   25 1   
     7    3   17 1   
     8    3   26 1   
     9    3   27 1   
    10    3   28 1   
    11    4   22 1   
    12    4   29 1   
    13    4   30 1   
    14    4   31 1   
    15    5   13 1   
    16    6   15 1   
    17    7   16 1   
    18    8    9 1   
    19    8   32 1   
    20    9   33 1   
    21   10   17 1   
    22   10   18 1   
    23   10   34 1   
    24   10   35 1   
    25   11   13 1   
    26   11   20 1   
    27   12   16 1   
    28   12   18 1   
    29   14   21 1   
    30   15   22 1   
    31   17   19 1   
    32   17   36 1   
    33   18   21 1   
    34   18   37 1   
    35   19   22 1   
    36   19   38 1   
    37   20   21 1   
    38   20   22 1   
    39   20   39 1   
    40   21   40 1   
@<TRIPOS>SUBSTRUCTURE
     1 BGV         1 TEMP              0 ****  ****    0 ROOT
