@<TRIPOS>MOLECULE
BGV
   42    44     1     0     0
SMALL
bcc


@<TRIPOS>ATOM
      1 CAA         2.9900    1.5460    0.5490 c2        1 BGV     -0.098000
      2 CAB        -0.7350    3.9960    1.0130 c3        1 BGV     -0.151100
      3 CAC        -1.7450   -3.7220    0.8970 c3        1 BGV     -0.094100
      4 CAD        -1.2900   -0.5810   -1.9780 c3        1 BGV     -0.092100
      5 OAE         0.5380    3.1810   -0.9220 o         1 BGV     -0.536000
      6 CAH        -3.5250    0.0100    0.2740 ce        1 BGV     -0.260200
      7 CAI        -3.0210   -1.1550    0.7230 c2        1 BGV     -0.096200
      8 CAJ         0.4850   -2.7240    0.5250 c3        1 BGV     -0.085400
      9 OAK        -0.1860    1.7150    0.6170 os        1 BGV     -0.458900
     10 OAL         2.7060   -2.0120   -0.0510 os        1 BGV     -0.412900
     11 CAM        -0.0760    2.9970    0.1280 c         1 BGV      0.653100
     12 CAN         2.5600    0.2950    0.4100 ce        1 BGV     -0.212400
     13 CAO        -2.4600    0.8120   -0.3730 c         1 BGV      0.581300
     14 CAP         3.4480   -0.8740    0.2110 c         1 BGV      0.717800
     15 CAQ        -0.9950   -2.6260    0.1640 c3        1 BGV     -0.053700
     16 CAR         1.3040   -1.6540   -0.1670 c3        1 BGV      0.141100
     17 CAS        -1.5320   -1.2450    0.5060 c3        1 BGV     -0.045500
     18 CAT         0.1030    0.6130   -0.2650 c3        1 BGV      0.177100
     19 CAU         1.1550   -0.2400    0.4470 c3        1 BGV     -0.059500
     20 CAV        -1.2300   -0.1170   -0.5280 c3        1 BGV     -0.160000
     21 HAB        -1.8190    4.0360    0.7330 hc        1 BGV      0.081033
     22 HABA       -0.6460    3.6970    2.0850 hc        1 BGV      0.081033
     23 HABB       -0.2690    4.9980    0.8550 hc        1 BGV      0.081033
     24 HACA       -1.8130   -3.4950    1.9880 hc        1 BGV      0.040367
     25 HACB       -2.7770   -3.8340    0.4870 hc        1 BGV      0.040367
     26 HAD        -1.3040    0.3120   -2.6520 hc        1 BGV      0.052033
     27 HADA       -0.4170   -1.2120   -2.2600 hc        1 BGV      0.052033
     28 HADB       -2.2230   -1.1720   -2.1510 hc        1 BGV      0.052033
     29 HAH        -4.5510    0.3760    0.3420 ha        1 BGV      0.165000
     30 HAI        -3.5650   -1.9480    1.2410 ha        1 BGV      0.152000
     31 HAJ         0.6150   -2.6470    1.6360 hc        1 BGV      0.064200
     32 HAJA        0.8780   -3.7280    0.2130 hc        1 BGV      0.064200
     33 HAQ        -1.1080   -2.8110   -0.9410 hc        1 BGV      0.061700
     34 HAR         1.0950   -1.6370   -1.2700 h1        1 BGV      0.068700
     35 HAS        -1.0740   -0.9350    1.4930 hc        1 BGV      0.077700
     36 HAT         0.5170    0.9950   -1.2410 h1        1 BGV      0.099700
     37 HAU         0.8630   -0.3290    1.5330 hc        1 BGV      0.086700
     38 HAA         4.0620    1.7930    0.5240 ha        1 BGV      0.137000
     39 HAAA        2.3000    2.3910    0.6790 ha        1 BGV      0.137000
     40 HAC        -1.2140   -4.6970    0.7730 hc        1 BGV      0.040367
     41 OAF        -2.5310    1.9840   -0.7350 o         1 BGV     -0.527100
     42 OAG         4.6650   -1.0160    0.2430 o         1 BGV     -0.562500
@<TRIPOS>BOND
     1    1   12 2   
     2    1   38 1   
     3    1   39 1   
     4    2   11 1   
     5    2   21 1   
     6    2   22 1   
     7    2   23 1   
     8    3   15 1   
     9    3   24 1   
    10    3   25 1   
    11    3   40 1   
    12    4   20 1   
    13    4   26 1   
    14    4   27 1   
    15    4   28 1   
    16    5   11 2   
    17    6    7 2   
    18    6   13 1   
    19    6   29 1   
    20    7   17 1   
    21    7   30 1   
    22    8   15 1   
    23    8   16 1   
    24    8   31 1   
    25    8   32 1   
    26    9   11 1   
    27    9   18 1   
    28   10   14 1   
    29   10   16 1   
    30   12   14 1   
    31   12   19 1   
    32   13   20 1   
    33   13   41 2   
    34   14   42 2   
    35   15   17 1   
    36   15   33 1   
    37   16   19 1   
    38   16   34 1   
    39   17   20 1   
    40   17   35 1   
    41   18   19 1   
    42   18   20 1   
    43   18   36 1   
    44   19   37 1   
@<TRIPOS>SUBSTRUCTURE
     1 BGV         1 TEMP              0 ****  ****    0 ROOT
