@<TRIPOS>MOLECULE
BGV
   42    62     1     0     0
SMALL
bcc


@<TRIPOS>ATOM
      1 CAA         0.0000    0.0000    0.0000 c2        1 BGV     -0.062000
      2 CAB         1.8150    2.5210    2.7250 c3        1 BGV     -0.303000
      3 CAC         6.4290   -1.0140   -2.5970 c3        1 BGV      0.596000
      4 CAD         4.5230   -2.3980    0.6740 c3        1 BGV     -0.169000
      5 OAE         1.6350    0.1760    2.8620 o         1 BGV     -0.435000
      6 CAH         6.5190    0.0000    1.3340 c2        1 BGV     -0.246000
      7 CAI         6.5580    0.0000    0.0000 c3        1 BGV     -0.165000
      8 CAJ         4.0100   -1.4240   -2.4170 DU        1 BGV      0.027000
      9 OAK         2.8310    0.9090    1.1560 os        1 BGV     -0.206000
     10 OAL         1.6910   -2.2370   -2.2540 os        1 BGV     -0.171000
     11 CAM         2.0870    1.1160    2.2530 DU        1 BGV      0.433000
     12 CAN         0.8700   -0.7280   -0.6950 DU        1 BGV      0.088000
     13 CAO         5.1690   -0.2950    1.8300 c2        1 BGV      0.257000
     14 CAP         0.5740   -1.8680   -1.5860 c2        1 BGV      0.349000
     15 CAQ         5.2830   -1.3860   -1.6550 DU        1 BGV      0.265000
     16 CAR         2.8470   -1.7690   -1.5010 c3        1 BGV     -0.182000
     17 CAS         5.1900   -0.3530   -0.5360 DU        1 BGV     -0.589000
     18 CAT         2.9440   -0.4590    0.6840 c3        1 BGV     -0.172000
     19 CAU         2.3780   -0.5660   -0.7410 DU        1 BGV     -0.505000
     20 CAV         4.4230   -0.8720    0.6390 c3        1 BGV     -0.377000
     21 HAB         2.5850    1.7620    2.7990 DU        1 BGV      0.135500
     22 HABA        1.4510    1.7280    2.0830 DU        1 BGV      0.135500
     23 HABB        2.4460    2.7440    3.5770 hc        1 BGV      0.142000
     24 HACA        5.8010   -0.4100   -1.9530 DU        1 BGV      0.133000
     25 HACB        5.7280   -0.5650   -1.9030 DU        1 BGV      0.244000
     26 HAD         5.0940   -1.8200   -0.0420 DU        1 BGV      0.183500
     27 HADA        5.2010   -2.2550   -0.1580 DU        1 BGV      0.183500
     28 HADB        5.2200   -2.6970    1.4470 hc        1 BGV      0.030000
     29 HAH         6.0240   -0.8310    0.8450 DU        1 BGV      0.069000
     30 HAI         5.7840   -0.7240    0.2270 DU        1 BGV      0.286000
     31 HAJ         4.6640   -1.2100   -1.5810 DU        1 BGV      0.018000
     32 HAJA        4.8140   -0.8800   -1.9380 DU        1 BGV     -0.576000
     33 HAQ         4.5390   -0.9040   -2.2770 DU        1 BGV     -0.007000
     34 HAR         3.4730   -1.9770   -2.3610 DU        1 BGV      0.229000
     35 HAS         5.1140   -0.3890   -1.6160 DU        1 BGV      0.404000
     36 HAT         3.0340   -1.3380    0.0570 DU        1 BGV      0.421000
     37 HAU         3.3530   -0.0990   -0.8140 ha        1 BGV      0.217000
     38 HAA         0.8740   -0.4110    0.4910 DU        1 BGV      0.090000
     39 HAAA        0.9650    0.1230   -0.4770 DU        1 BGV      0.090000
     40 HAC         5.4150   -0.9150   -2.2290 DU        1 BGV     -0.458000
     41 OAF         4.7400   -0.1150    2.9510 o         1 BGV     -0.162000
     42 OAG        -0.5140   -2.3970   -1.7040 o         1 BGV     -0.239000
@<TRIPOS>BOND
     1    1   12 1   
     2    1   38 1   
     3    1   39 1   
     4    2   11 1   
     5    2   21 1   
     6    2   22 1   
     7    2   23 1   
     8    3   15 1   
     9    3   24 1   
    10    3   25 1   
    11    3   40 1   
    12    4   20 1   
    13    4   26 1   
    14    4   27 1   
    15    4   28 1   
    16    5   11 1   
    17    6    7 1   
    18    6   13 1   
    19    6   29 1   
    20    7   17 1   
    21    7   29 1   
    22    7   30 1   
    23    8   15 1   
    24    8   16 1   
    25    8   31 1   
    26    8   32 1   
    27    8   33 1   
    28    8   34 1   
    29    9   11 1   
    30    9   18 1   
    31   10   14 1   
    32   10   16 1   
    33   11   21 1   
    34   11   22 1   
    35   12   14 1   
    36   12   19 1   
    37   12   38 1   
    38   12   39 1   
    39   13   20 1   
    40   13   41 1   
    41   14   42 1   
    42   15   17 1   
    43   15   24 1   
    44   15   25 1   
    45   15   31 1   
    46   16   19 1   
    47   16   34 1   
    48   17   20 1   
    49   17   30 1   
    50   17   35 1   
    51   18   19 1   
    52   18   20 1   
    53   18   36 1   
    54   19   36 1   
    55   19   37 1   
    56   25   40 1   
    57   26   27 1   
    58   29   30 1   
    59   31   32 1   
    60   32   33 1   
    61   32   35 1   
    62   32   40 1   
@<TRIPOS>SUBSTRUCTURE
     1 BGV         1 TEMP              0 ****  ****    0 ROOT
