@<TRIPOS>MOLECULE
BGX
   17    17     1     0     0
SMALL
bcc


@<TRIPOS>ATOM
      1 C1         -0.0090    0.0870    0.0210 c         1 BGX      0.906600
      2 C2          1.5430   -0.0120   -0.0280 c3        1 BGX      0.032500
      3 C3          2.1470   -0.0010    1.4150 c3        1 BGX     -0.023500
      4 C4          2.9370   -1.2830    1.4560 c2        1 BGX     -0.283200
      5 C5          2.7970   -1.9460    0.2790 c2        1 BGX     -0.002000
      6 C6          3.0000    1.2170    1.6610 c3        1 BGX     -0.071100
      7 O1         -0.6890   -0.8350   -0.5150 o         1 BGX     -0.840300
      8 N1          2.0630   -1.2270   -0.6980 nh        1 BGX     -0.696000
      9 O2         -0.5010    1.1000    0.5890 o         1 BGX     -0.840300
     10 HC2         1.9210    0.8700   -0.6120 h1        1 BGX      0.050700
     11 HC3         1.3130   -0.0250    2.1660 hc        1 BGX      0.069700
     12 HC4         3.5230   -1.5770    2.3210 ha        1 BGX      0.117000
     13 HC5         3.2220   -2.9160    0.0010 h4        1 BGX      0.121000
     14 HC61        3.4380    1.1850    2.6870 hc        1 BGX      0.021033
     15 HC62        2.3750    2.1390    1.5650 hc        1 BGX      0.021033
     16 HC63        3.8360    1.2750    0.9230 hc        1 BGX      0.021033
     17 HN1         1.3040   -1.7620   -1.0890 hn        1 BGX      0.397800
@<TRIPOS>BOND
     1    1    2 1   
     2    1    7 1   
     3    1    9 1   
     4    2    3 1   
     5    2    8 1   
     6    2   10 1   
     7    3    4 1   
     8    3    6 1   
     9    3   11 1   
    10    4    5 2   
    11    4   12 1   
    12    5    8 1   
    13    5   13 1   
    14    6   14 1   
    15    6   15 1   
    16    6   16 1   
    17    8   17 1   
@<TRIPOS>SUBSTRUCTURE
     1 BGX         1 TEMP              0 ****  ****    0 ROOT
