@<TRIPOS>MOLECULE
BGX
   17    17     1     0     0
SMALL
bcc


@<TRIPOS>ATOM
      1 C1          0.0080    0.0830   -0.0000 c         1 BGX      0.906600
      2 C2          1.5600   -0.0250   -0.0350 c3        1 BGX      0.032500
      3 C3          2.1510   -0.0060    1.4130 c3        1 BGX     -0.023500
      4 C4          2.9340   -1.2930    1.4690 c2        1 BGX     -0.283200
      5 C5          2.8000   -1.9640    0.2970 c2        1 BGX     -0.002000
      6 C6          3.0080    1.2080    1.6580 c3        1 BGX     -0.071100
      7 O1         -0.6720   -0.8390   -0.5350 o         1 BGX     -0.840300
      8 N1          2.0780   -1.2470   -0.6920 nh        1 BGX     -0.696000
      9 O2         -0.4830    1.1040    0.5550 o         1 BGX     -0.840300
     10 HC2         1.9480    0.8510   -0.6220 h1        1 BGX      0.050700
     11 HC3         1.3100   -0.0210    2.1570 hc        1 BGX      0.069700
     12 HC4         3.5100   -1.5850    2.3420 ha        1 BGX      0.117000
     13 HC5         3.2220   -2.9380    0.0290 h4        1 BGX      0.121000
     14 HC61        3.4380    1.1810    2.6890 hc        1 BGX      0.021033
     15 HC62        2.3900    2.1320    1.5500 hc        1 BGX      0.021033
     16 HC63        3.8510    1.2560    0.9270 hc        1 BGX      0.021033
     17 HN1         1.3200   -1.7810   -1.0860 hn        1 BGX      0.397800
@<TRIPOS>BOND
     1    1    2 1   
     2    1    7 1   
     3    1    9 1   
     4    2    3 1   
     5    2    8 1   
     6    2   10 1   
     7    3    4 1   
     8    3    6 1   
     9    3   11 1   
    10    4    5 2   
    11    4   12 1   
    12    5    8 1   
    13    5   13 1   
    14    6   14 1   
    15    6   15 1   
    16    6   16 1   
    17    8   17 1   
@<TRIPOS>SUBSTRUCTURE
     1 BGX         1 TEMP              0 ****  ****    0 ROOT
