@<TRIPOS>MOLECULE
BGX
   17    17     1     0     0
SMALL
bcc


@<TRIPOS>ATOM
      1 C1         -1.3500   -3.9420    1.1420 c         1 BGX      0.906600
      2 C2         -1.8700   -2.6480    0.4510 c3        1 BGX      0.032500
      3 C3         -2.5050   -1.6750    1.4990 c3        1 BGX     -0.023500
      4 C4         -1.7060   -0.4120    1.3080 c2        1 BGX     -0.283200
      5 C5         -0.7550   -0.6090    0.3590 c2        1 BGX     -0.002000
      6 C6         -3.9790   -1.4740    1.2610 c3        1 BGX     -0.071100
      7 O1         -0.1270   -4.2400    1.0200 o         1 BGX     -0.840300
      8 N1         -0.8330   -1.8770   -0.2730 nh        1 BGX     -0.696000
      9 O2         -2.1940   -4.6300    1.7790 o         1 BGX     -0.840300
     10 HC2        -2.6390   -2.9540   -0.3080 h1        1 BGX      0.050700
     11 HC3        -2.3510   -2.0900    2.5310 hc        1 BGX      0.069700
     12 HC4        -1.9110    0.4950    1.8670 ha        1 BGX      0.117000
     13 HC5         0.0010    0.1010    0.0090 h4        1 BGX      0.121000
     14 HC61       -4.3990   -0.7550    2.0060 hc        1 BGX      0.021033
     15 HC62       -4.1670   -1.0690    0.2380 hc        1 BGX      0.021033
     16 HC63       -4.5130   -2.4500    1.3620 hc        1 BGX      0.021033
     17 HN1         0.0440   -2.3730   -0.2620 hn        1 BGX      0.397800
@<TRIPOS>BOND
     1    1    2 1   
     2    1    7 1   
     3    1    9 1   
     4    2    3 1   
     5    2    8 1   
     6    2   10 1   
     7    3    4 1   
     8    3    6 1   
     9    3   11 1   
    10    4    5 2   
    11    4   12 1   
    12    5    8 1   
    13    5   13 1   
    14    6   14 1   
    15    6   15 1   
    16    6   16 1   
    17    8   17 1   
@<TRIPOS>SUBSTRUCTURE
     1 BGX         1 TEMP              0 ****  ****    0 ROOT
