@<TRIPOS>MOLECULE
BGX
   17    15     1     0     0
SMALL
bcc


@<TRIPOS>ATOM
      1 C1         -1.7420    0.3350   -0.7780 c1        1 BGX      0.326000
      2 C2         -0.4740    0.3350   -0.7780 c2        1 BGX     -0.115000
      3 C3          0.0570    0.3350    0.6820 c3        1 BGX     -0.067000
      4 C4          0.4650   -1.0560    0.8210 c2        1 BGX     -0.279000
      5 C5          0.2930   -1.7980   -0.2820 c1        1 BGX     -0.084000
      6 C6          1.1840    1.3650    0.9550 c3        1 BGX     -0.189000
      7 O1         -2.3720   -0.7310   -1.0110 o         1 BGX     -0.575000
      8 N1          0.0970   -1.1390   -1.3170 n2        1 BGX     -0.251000
      9 O2         -2.3720    1.4100   -0.5910 o         1 BGX     -0.575000
     10 HC2        -0.2860    1.1200   -1.3260 h4        1 BGX      0.090000
     11 HC3        -0.6230    0.5960    1.3310 hc        1 BGX      0.109000
     12 HC4         0.4620   -1.4800    1.7000 ha        1 BGX      0.117000
     13 HC5         0.5870   -2.7280   -0.3070 ha        1 BGX      0.121000
     14 HC61        1.4800    1.2850    1.8820 hc        1 BGX      0.060333
     15 HC62        1.9360    1.1910    0.3570 hc        1 BGX      0.060333
     16 HC63        0.8460    2.2670    0.7970 hc        1 BGX      0.060333
     17 HN1         0.4620   -1.3050   -2.1360 hn        1 BGX      0.193000
@<TRIPOS>BOND
     1    1    7 1   
     2    1    9 1   
     3    2    3 1   
     4    2    8 1   
     5    2   10 1   
     6    3    4 1   
     7    3    6 1   
     8    3   11 1   
     9    4    5 1   
    10    4   12 1   
    11    5   13 1   
    12    6   14 1   
    13    6   15 1   
    14    6   16 1   
    15    8   17 1   
@<TRIPOS>SUBSTRUCTURE
     1 BGX         1 TEMP              0 ****  ****    0 ROOT
