@<TRIPOS>MOLECULE
BGX
   17    17     1     0     0
SMALL
bcc


@<TRIPOS>ATOM
      1 C1          0.0070    0.0830    0.0020 c         1 BGX      0.906600
      2 C2          1.5590   -0.0230   -0.0350 c3        1 BGX      0.032500
      3 C3          2.1510   -0.0080    1.4130 c3        1 BGX     -0.023500
      4 C4          2.9360   -1.2940    1.4660 c2        1 BGX     -0.283200
      5 C5          2.8020   -1.9620    0.2910 c2        1 BGX     -0.002000
      6 C6          3.0070    1.2070    1.6610 c3        1 BGX     -0.071100
      7 O1         -0.6720   -0.8380   -0.5360 o         1 BGX     -0.840300
      8 N1          2.0780   -1.2430   -0.6950 nu        1 BGX     -0.696000
      9 O2         -0.4850    1.1010    0.5610 o         1 BGX     -0.840300
     10 HC2         1.9460    0.8550   -0.6190 h1        1 BGX      0.050700
     11 HC3         1.3110   -0.0260    2.1580 hc        1 BGX      0.069700
     12 HC4         3.5120   -1.5880    2.3370 ha        1 BGX      0.117000
     13 HC5         3.2240   -2.9350    0.0210 h4        1 BGX      0.121000
     14 HC61        3.8500    1.2580    0.9300 hc        1 BGX      0.021033
     15 HC62        3.4370    1.1770    2.6920 hc        1 BGX      0.021033
     16 HC63        2.3880    2.1300    1.5560 hc        1 BGX      0.021033
     17 HN1         1.3210   -1.7770   -1.0900 hn        1 BGX      0.397800
@<TRIPOS>BOND
     1    1    2 1   
     2    1    7 1   
     3    1    9 1   
     4    2    3 1   
     5    2    8 1   
     6    2   10 1   
     7    3    4 1   
     8    3    6 1   
     9    3   11 1   
    10    4    5 2   
    11    4   12 1   
    12    5    8 1   
    13    5   13 1   
    14    6   14 1   
    15    6   15 1   
    16    6   16 1   
    17    8   17 1   
@<TRIPOS>SUBSTRUCTURE
     1 BGX         1 TEMP              0 ****  ****    0 ROOT
