@<TRIPOS>MOLECULE
BH0
   73    66     1     0     0
SMALL
bcc


@<TRIPOS>ATOM
      1 C1         -0.3450   -0.2220   -1.5930 c3        1 BH0     -0.019000
      2 C2         -0.9980   -1.8020   -1.7560 c3        1 BH0     -0.130000
      3 C3         -1.4800   -2.0140   -3.2130 c2        1 BH0     -0.076000
      4 C4         -2.8370   -1.9670   -3.5060 c2        1 BH0     -0.115000
      5 C5         -3.2880   -2.2960   -4.7860 c1        1 BH0     -0.133000
      6 C6         -2.3810   -2.6700   -5.7670 c1        1 BH0     -0.128125
      7 C7         -1.0240   -2.7170   -5.4760 c1        1 BH0     -0.128125
      8 C8         -0.5720   -2.3880   -4.1960 c1        1 BH0     -0.130000
      9 C9          1.2030   -0.3120   -1.5860 c3        1 BH0     -0.033000
     10 O1          1.5590   -1.3680   -2.1650 oh        1 BH0     -0.321000
     11 C10         1.8390   -0.3100    0.0760 c3        1 BH0     -0.041000
     12 N1          0.8210    0.5470    1.0820 n3        1 BH0     -0.733000
     13 S1          1.2390    1.9720    1.8710 s4        1 BH0      2.076800
     14 O2          0.1910    2.4070    2.7510 o         1 BH0     -0.527900
     15 N2         -0.3800   -0.0800    1.2060 n         1 BH0     -0.184000
     16 N3         -0.6980    0.2190   -0.6630 n         1 BH0     -0.295000
     17 C11        -0.6210   -0.6140    0.2800 c2        1 BH0      0.366000
     18 O3         -0.2310   -1.7460    0.0960 o         1 BH0     -0.308000
     19 C14        -1.3710    1.5200   -0.5660 c3        1 BH0     -0.010000
     20 C15        -1.0800   -0.2660    2.4660 c3        1 BH0     -0.013000
     21 C12         2.8100    1.7610    2.7690 c1        1 BH0     -0.827000
     22 C17        -0.2020    2.5910   -2.8920 c1        1 BH0     -0.091000
     23 C18        -0.4190    3.6860   -3.7340 c1        1 BH0     -0.163000
     24 C19        -1.4890    4.5400   -3.5010 c1        1 BH0      0.086000
     25 C20        -2.3450    4.3050   -2.4290 c1        1 BH0     -0.128125
     26 C21        -2.1300    3.2140   -1.5900 c1        1 BH0     -0.128125
     27 C22        -1.0580    2.3580   -1.8230 c1        1 BH0     -0.131000
     28 C23        -0.0250   -2.3800    3.3980 c1        1 BH0     -0.082000
     29 C24        -0.1140   -3.6930    3.8460 c1        1 BH0     -0.163000
     30 C25        -1.3040   -4.3950    3.7090 c1        1 BH0      0.086000
     31 C26        -2.4060   -3.7860    3.1240 c1        1 BH0     -0.128125
     32 C27        -2.3200   -2.4750    2.6760 c1        1 BH0     -0.128125
     33 C28        -1.1280   -1.7700    2.8130 c1        1 BH0     -0.158000
     34 O4         -1.7300    5.6270   -4.3730 oh        1 BH0     -0.250000
     35 O5         -1.3840   -5.7390    4.1370 oh        1 BH0     -0.250000
     36 C31         3.0300    1.1020    3.9700 c2        1 BH0      0.023000
     37 C32         3.7910    2.6000    2.2460 c1        1 BH0      0.002000
     38 O8          1.3080    3.0730    0.9540 o         1 BH0     -0.527900
     39 C33         4.2340    1.2790    4.6530 c1        1 BH0     -0.034000
     40 C34         4.9950    2.7760    2.9290 c1        1 BH0     -0.128125
     41 C13         5.2140    2.1150    4.1320 c1        1 BH0     -0.128125
     42 C16         4.4770    0.5510    5.9680 c1        1 BH0     -0.106000
     43 N4          4.6580    0.0040    6.9560 n1        1 BH0     -0.015000
     44 H11        -0.6390    0.3360   -2.3530 h1        1 BH0      0.122000
     45 H21        -0.3100   -2.4620   -1.5410 hc        1 BH0      0.104500
     46 H22        -1.7480   -1.9070   -1.1480 hc        1 BH0      0.104500
     47 H44        -3.4730   -1.7050   -2.8190 ha        1 BH0      0.156000
     48 H55        -4.2480   -2.2620   -4.9930 ha        1 BH0      0.133000
     49 H66        -2.6980   -2.9010   -6.6690 ha        1 BH0      0.144250
     50 H77        -0.3800   -2.9820   -6.1730 ha        1 BH0      0.144250
     51 H88         0.3790   -2.4210   -3.9920 ha        1 BH0      0.127000
     52 H99         1.5700    0.4560   -2.0690 h1        1 BH0      0.095000
     53 H101        2.6750    0.1970    0.0440 h1        1 BH0      0.118000
     54 H102        1.7990   -1.2500    0.3850 h1        1 BH0      0.118000
     55 H141       -2.3420    1.3830   -0.4980 h1        1 BH0      0.104500
     56 H142       -1.0520    1.9950    0.2310 h1        1 BH0      0.104500
     57 H151       -0.6080    0.2180    3.1760 h1        1 BH0      0.126000
     58 H152       -1.9870    0.0780    2.3870 h1        1 BH0      0.126000
     59 H117        0.5500    1.9900   -3.0560 ha        1 BH0      0.145000
     60 H118        0.1820    3.8500   -4.4850 ha        1 BH0      0.152500
     61 H220       -3.0990    4.9070   -2.2650 ha        1 BH0      0.144250
     62 H221       -2.7350    3.0490   -0.8340 ha        1 BH0      0.144250
     63 H223        0.8080   -1.8890    3.4950 ha        1 BH0      0.131000
     64 H224        0.6620   -4.1220    4.2580 ha        1 BH0      0.152500
     65 H226       -3.2450   -4.2810    3.0270 ha        1 BH0      0.144250
     66 H227       -3.0950   -2.0470    2.2650 ha        1 BH0      0.144250
     67 H331        2.3410    0.5140    4.3370 ha        1 BH0      0.163000
     68 H332        3.6370    3.0630    1.4040 ha        1 BH0      0.165000
     69 H334        5.6830    3.3640    2.5630 ha        1 BH0      0.144250
     70 H113        6.0620    2.2390    4.6140 ha        1 BH0      0.144250
     71 HO1        -1.7410   -5.7700    4.9550 ho        1 BH0      0.220000
     72 HO2        -1.2680    6.3380   -4.0970 ho        1 BH0      0.220000
     73 HO3         2.3090   -1.2130   -2.6390 ho        1 BH0      0.211000
@<TRIPOS>BOND
     1    1    2 1   
     2    1    9 1   
     3    1   16 1   
     4    1   44 1   
     5    2    3 1   
     6    2   45 1   
     7    2   46 1   
     8    3    4 1   
     9    3    8 1   
    10    4    5 1   
    11    4   47 1   
    12    5   48 1   
    13    6    7 1   
    14    6   49 1   
    15    7   50 1   
    16    8   51 1   
    17    9   10 1   
    18    9   11 1   
    19    9   52 1   
    20   10   73 1   
    21   11   12 1   
    22   11   53 1   
    23   11   54 1   
    24   12   13 1   
    25   12   15 1   
    26   13   14 1   
    27   13   38 1   
    28   15   17 1   
    29   15   20 1   
    30   16   17 1   
    31   16   19 1   
    32   17   18 1   
    33   19   27 1   
    34   19   55 1   
    35   19   56 1   
    36   20   33 1   
    37   20   57 1   
    38   20   58 1   
    39   21   36 1   
    40   21   37 1   
    41   22   27 1   
    42   22   59 1   
    43   23   24 1   
    44   23   60 1   
    45   24   34 1   
    46   25   26 1   
    47   25   61 1   
    48   26   62 1   
    49   28   33 1   
    50   28   63 1   
    51   29   30 1   
    52   29   64 1   
    53   30   35 1   
    54   31   32 1   
    55   31   65 1   
    56   32   66 1   
    57   34   72 1   
    58   35   71 1   
    59   36   39 1   
    60   36   67 1   
    61   37   68 1   
    62   39   42 1   
    63   40   41 1   
    64   40   69 1   
    65   41   70 1   
    66   42   43 1   
@<TRIPOS>SUBSTRUCTURE
     1 BH0         1 TEMP              0 ****  ****    0 ROOT
