@<TRIPOS>MOLECULE
BH0
   73    77     1     0     0
SMALL
bcc


@<TRIPOS>ATOM
      1 C1         -0.1070    0.2480    0.1800 c3        1 BH0      0.075700
      2 C2         -0.8430   -0.9340    0.8460 c3        1 BH0     -0.067100
      3 C3         -2.1960   -1.1560    0.2680 ca        1 BH0     -0.093300
      4 C4         -3.2990   -0.4380    0.7460 ca        1 BH0     -0.128000
      5 C5         -4.5690   -0.6710    0.2210 ca        1 BH0     -0.128500
      6 C6         -4.7490   -1.6210   -0.7840 ca        1 BH0     -0.127000
      7 C7         -3.6540   -2.3370   -1.2660 ca        1 BH0     -0.128500
      8 C8         -2.3820   -2.1070   -0.7430 ca        1 BH0     -0.128000
      9 C9          1.4150    0.0690    0.3850 c3        1 BH0      0.116100
     10 O1          2.1620    0.8760   -0.5010 oh        1 BH0     -0.617800
     11 C10         1.8620    0.2610    1.8430 c3        1 BH0      0.164800
     12 N1          1.6290    1.5800    2.3880 n3        1 BH0     -0.578500
     13 S1          2.7080    2.8650    2.2250 sy        1 BH0      1.525200
     14 O2          2.5880    3.7520    3.3030 o         1 BH0     -0.636300
     15 N2          0.3890    1.9400    2.8330 n         1 BH0     -0.226200
     16 N3         -0.5920    1.5620    0.5620 n         1 BH0     -0.461800
     17 C11        -0.7560    1.8550    1.9450 c         1 BH0      0.776500
     18 O3         -1.8650    2.1970    2.4110 o         1 BH0     -0.640500
     19 C14        -1.5540    2.1850   -0.3390 c3        1 BH0      0.128300
     20 C15         0.0700    1.6170    4.2400 c3        1 BH0      0.109300
     21 C12         4.2060    2.0870    2.3620 ca        1 BH0     -0.386500
     22 C17         0.0310    2.8780   -2.1770 ca        1 BH0     -0.079000
     23 C18         0.5610    3.8320   -3.0370 ca        1 BH0     -0.182500
     24 C19         0.1130    5.1600   -2.9400 ca        1 BH0      0.131100
     25 C20        -0.8510    5.5250   -1.9890 ca        1 BH0     -0.182500
     26 C21        -1.3670    4.5530   -1.1360 ca        1 BH0     -0.079000
     27 C22        -0.9400    3.2260   -1.2300 ca        1 BH0     -0.132300
     28 C23         0.8880   -0.5840    5.1430 ca        1 BH0     -0.082000
     29 C24         0.6780   -1.9080    5.5110 ca        1 BH0     -0.190000
     30 C25        -0.5920   -2.4780    5.3110 ca        1 BH0      0.133100
     31 C26        -1.6360   -1.7280    4.7500 ca        1 BH0     -0.190000
     32 C27        -1.4040   -0.4040    4.3890 ca        1 BH0     -0.082000
     33 C28        -0.1450    0.1760    4.5800 ca        1 BH0     -0.166300
     34 O5         -0.7400   -3.7910    5.6900 oh        1 BH0     -0.495100
     35 C31         4.8580    2.0170    3.5970 ca        1 BH0      0.023000
     36 C32         4.8530    1.5830    1.2240 ca        1 BH0      0.004000
     37 O8          2.6080    3.3890    0.9300 o         1 BH0     -0.636300
     38 C33         6.1330    1.4480    3.6960 ca        1 BH0     -0.045000
     39 C34         6.1250    1.0220    1.3160 ca        1 BH0     -0.162000
     40 C13         6.7690    0.9500    2.5490 ca        1 BH0     -0.029000
     41 C16         6.7840    1.3760    4.9570 cg        1 BH0      0.226800
     42 N4          7.3190    1.3140    5.9890 n1        1 BH0     -0.345800
     43 H11        -0.2650    0.1580   -0.9410 h1        1 BH0      0.083700
     44 H21        -0.2230   -1.8600    0.7040 hc        1 BH0      0.060700
     45 H22        -0.9300   -0.7590    1.9540 hc        1 BH0      0.060700
     46 H44        -3.1570    0.3220    1.5340 ha        1 BH0      0.140000
     47 H55        -5.4310   -0.1030    0.6030 ha        1 BH0      0.134500
     48 H66        -5.7520   -1.8040   -1.1970 ha        1 BH0      0.133000
     49 H77        -3.7910   -3.0860   -2.0600 ha        1 BH0      0.134500
     50 H88        -1.5220   -2.6780   -1.1230 ha        1 BH0      0.140000
     51 H99         1.6880   -0.9850    0.0810 h1        1 BH0      0.080700
     52 H101        2.9690    0.0540    1.8970 h1        1 BH0      0.072200
     53 H102        1.3390   -0.5150    2.4770 h1        1 BH0      0.072200
     54 H141       -2.0330    1.3930   -0.9880 h1        1 BH0      0.068200
     55 H142       -2.3850    2.6590    0.2630 h1        1 BH0      0.068200
     56 H151       -0.8670    2.2040    4.4750 h1        1 BH0      0.091700
     57 H152        0.9090    2.0370    4.8680 h1        1 BH0      0.091700
     58 H117        0.3900    1.8370   -2.2380 ha        1 BH0      0.136000
     59 H118        1.3260    3.5700   -3.7810 ha        1 BH0      0.142000
     60 H220       -1.1880    6.5680   -1.9130 ha        1 BH0      0.142000
     61 H221       -2.1170    4.8390   -0.3820 ha        1 BH0      0.136000
     62 H223        1.8770   -0.1280    5.3040 ha        1 BH0      0.145500
     63 H224        1.4790   -2.5120    5.9580 ha        1 BH0      0.147000
     64 H226       -2.6270   -2.1800    4.6010 ha        1 BH0      0.147000
     65 H227       -2.2170    0.1990    3.9490 ha        1 BH0      0.145500
     66 H331        4.3680    2.4340    4.4960 ha        1 BH0      0.169000
     67 H332        4.3370    1.6370    0.2440 ha        1 BH0      0.178000
     68 H334        6.6220    0.6370    0.4120 ha        1 BH0      0.153000
     69 H113        7.7750    0.5070    2.6250 ha        1 BH0      0.152000
     70 HO1        -1.6600   -4.0480    5.5270 ho        1 BH0      0.423000
     71 HO2         0.3140    6.9380   -3.6100 ho        1 BH0      0.419000
     72 HO3         1.8550    1.7950   -0.4300 ho        1 BH0      0.443000
     73 O4          0.6640    6.0610   -3.8230 oh        1 BH0     -0.498100
@<TRIPOS>BOND
     1    1    2 1   
     2    1    9 1   
     3    1   16 1   
     4    1   43 1   
     5    2    3 1   
     6    2   44 1   
     7    2   45 1   
     8    3    4 ar  
     9    3    8 ar  
    10    4    5 ar  
    11    4   46 1   
    12    5    6 ar  
    13    5   47 1   
    14    6    7 ar  
    15    6   48 1   
    16    7    8 ar  
    17    7   49 1   
    18    8   50 1   
    19    9   10 1   
    20    9   11 1   
    21    9   51 1   
    22   10   72 1   
    23   11   12 1   
    24   11   52 1   
    25   11   53 1   
    26   12   13 1   
    27   12   15 1   
    28   13   14 2   
    29   13   21 1   
    30   13   37 2   
    31   15   17 1   
    32   15   20 1   
    33   16   17 1   
    34   16   19 1   
    35   17   18 2   
    36   19   27 1   
    37   19   54 1   
    38   19   55 1   
    39   20   33 1   
    40   20   56 1   
    41   20   57 1   
    42   21   35 ar  
    43   21   36 ar  
    44   22   23 ar  
    45   22   27 ar  
    46   22   58 1   
    47   23   24 ar  
    48   23   59 1   
    49   24   25 ar  
    50   24   73 1   
    51   25   26 ar  
    52   25   60 1   
    53   26   27 ar  
    54   26   61 1   
    55   28   29 ar  
    56   28   33 ar  
    57   28   62 1   
    58   29   30 ar  
    59   29   63 1   
    60   30   31 ar  
    61   30   34 1   
    62   31   32 ar  
    63   31   64 1   
    64   32   33 ar  
    65   32   65 1   
    66   34   70 1   
    67   35   38 ar  
    68   35   66 1   
    69   36   39 ar  
    70   36   67 1   
    71   38   40 ar  
    72   38   41 1   
    73   39   40 ar  
    74   39   68 1   
    75   40   69 1   
    76   41   42 3   
    77   71   73 1   
@<TRIPOS>SUBSTRUCTURE
     1 BH0         1 TEMP              0 ****  ****    0 ROOT
