@<TRIPOS>MOLECULE
BH0
   73    77     1     0     0
SMALL
bcc


@<TRIPOS>ATOM
      1 C1         -0.4760   -3.6500    0.5380 c3        1 BH0      0.110700
      2 C2         -1.2460   -3.6260    1.8730 c3        1 BH0     -0.067100
      3 C3         -1.8610   -4.9430    2.1930 ca        1 BH0     -0.087300
      4 C4         -3.1370   -5.2700    1.7170 ca        1 BH0     -0.128000
      5 C5         -3.7170   -6.4940    2.0440 ca        1 BH0     -0.130500
      6 C6         -3.0290   -7.4030    2.8490 ca        1 BH0     -0.131000
      7 C7         -1.7570   -7.0840    3.3230 ca        1 BH0     -0.130500
      8 C8         -1.1750   -5.8600    2.9980 ca        1 BH0     -0.128000
      9 C9          0.5720   -2.5080    0.5000 c3        1 BH0      0.109100
     10 O1          1.3630   -2.6460    1.6710 oh        1 BH0     -0.592800
     11 C10        -0.0620   -1.1040    0.4860 c3        1 BH0      0.150800
     12 N1         -0.8510   -0.8400   -0.7010 n3        1 BH0     -0.571500
     13 S1         -0.0770   -0.3560   -2.1080 sy        1 BH0      1.516200
     14 O2         -0.1170   -1.3530   -3.0900 o         1 BH0     -0.645800
     15 N2         -2.1300   -1.2930   -0.8250 n         1 BH0     -0.227200
     16 N3         -1.3130   -3.6490   -0.6500 n         1 BH0     -0.461800
     17 C11        -2.3850   -2.7280   -0.7480 c         1 BH0      0.772500
     18 O3         -3.5610   -3.1050   -0.9400 o         1 BH0     -0.635500
     19 C14        -1.5290   -4.9410   -1.2880 c3        1 BH0      0.136300
     20 C15        -3.1970   -0.4780   -0.2080 c3        1 BH0      0.108300
     21 C12        -1.0060    0.9560   -2.6170 ca        1 BH0     -0.373500
     22 C17         0.1750   -6.7530   -1.5930 ca        1 BH0     -0.079500
     23 C18         1.2860   -7.2980   -2.2320 ca        1 BH0     -0.190500
     24 C19         1.9350   -6.5540   -3.2280 ca        1 BH0      0.126100
     25 C20         1.4770   -5.2740   -3.5850 ca        1 BH0     -0.190500
     26 C21         0.3640   -4.7490   -2.9400 ca        1 BH0     -0.079500
     27 C22        -0.2940   -5.4850   -1.9440 ca        1 BH0     -0.144300
     28 C23        -2.6750    0.5830    2.0100 ca        1 BH0     -0.079500
     29 C24        -2.8240    0.6600    3.3920 ca        1 BH0     -0.188500
     30 C25        -3.5990   -0.3050    4.0520 ca        1 BH0      0.137100
     31 C26        -4.2200   -1.3430    3.3360 ca        1 BH0     -0.188500
     32 C27        -4.0580   -1.4020    1.9570 ca        1 BH0     -0.079500
     33 C28        -3.2890   -0.4420    1.2840 ca        1 BH0     -0.167300
     34 O5         -3.7980   -0.2940    5.4120 oh        1 BH0     -0.492100
     35 C31        -2.1190    0.7650   -3.4430 ca        1 BH0      0.031000
     36 C32        -0.6420    2.2620   -2.2610 ca        1 BH0      0.001000
     37 O8          1.2040    0.1100   -1.7430 o         1 BH0     -0.645800
     38 C33        -2.8590    1.8620   -3.9010 ca        1 BH0     -0.041000
     39 C34        -1.3740    3.3560   -2.7130 ca        1 BH0     -0.163000
     40 C13        -2.4850    3.1630   -3.5330 ca        1 BH0     -0.030000
     41 C16        -3.9880    1.6600   -4.7400 cg        1 BH0      0.225800
     42 N4         -4.9120    1.4980   -5.4280 n1        1 BH0     -0.341800
     43 H11         0.1240   -4.6130    0.5140 h1        1 BH0      0.091700
     44 H21        -2.0420   -2.8320    1.8500 hc        1 BH0      0.070200
     45 H22        -0.5170   -3.3470    2.6840 hc        1 BH0      0.070200
     46 H44        -3.6790   -4.5560    1.0730 ha        1 BH0      0.141000
     47 H55        -4.7200   -6.7420    1.6670 ha        1 BH0      0.132500
     48 H66        -3.4890   -8.3670    3.1080 ha        1 BH0      0.131000
     49 H77        -1.2120   -7.7980    3.9580 ha        1 BH0      0.132500
     50 H88        -0.1720   -5.6100    3.3770 ha        1 BH0      0.141000
     51 H99         1.2220   -2.6440   -0.4120 h1        1 BH0      0.057700
     52 H101       -0.6920   -0.9790    1.4130 h1        1 BH0      0.080200
     53 H102        0.7640   -0.3360    0.5290 h1        1 BH0      0.080200
     54 H141       -2.3260   -4.8160   -2.0790 h1        1 BH0      0.066200
     55 H142       -1.9180   -5.6820   -0.5260 h1        1 BH0      0.066200
     56 H151       -4.1600   -0.8930   -0.6300 h1        1 BH0      0.083200
     57 H152       -3.0680    0.5740   -0.5960 h1        1 BH0      0.083200
     58 H117       -0.3360   -7.3330   -0.8080 ha        1 BH0      0.153500
     59 H118        1.6510   -8.2970   -1.9580 ha        1 BH0      0.143000
     60 H220        2.0020   -4.7070   -4.3670 ha        1 BH0      0.143000
     61 H221        0.0020   -3.7400   -3.2120 ha        1 BH0      0.153500
     62 H223       -2.0730    1.3410    1.4860 ha        1 BH0      0.143500
     63 H224       -2.3420    1.4680    3.9600 ha        1 BH0      0.147000
     64 H226       -4.8210   -2.0900    3.8740 ha        1 BH0      0.147000
     65 H227       -4.5360   -2.2120    1.3810 ha        1 BH0      0.143500
     66 H331       -2.4060   -0.2600   -3.7420 ha        1 BH0      0.174000
     67 H332        0.2500    2.4190   -1.6260 ha        1 BH0      0.161000
     68 H334       -1.0730    4.3760   -2.4290 ha        1 BH0      0.150000
     69 H113       -3.0650    4.0270   -3.8940 ha        1 BH0      0.152000
     70 HO1        -3.3200    0.4640    5.7800 ho        1 BH0      0.421000
     71 HO2         3.2370   -7.9100   -3.5680 ho        1 BH0      0.417000
     72 HO3         2.1470   -2.0990    1.5380 ho        1 BH0      0.411000
     73 O4          3.0390   -7.0230   -3.9020 oh        1 BH0     -0.498100
@<TRIPOS>BOND
     1    1    2 1   
     2    1    9 1   
     3    1   16 1   
     4    1   43 1   
     5    2    3 1   
     6    2   44 1   
     7    2   45 1   
     8    3    4 ar  
     9    3    8 ar  
    10    4    5 ar  
    11    4   46 1   
    12    5    6 ar  
    13    5   47 1   
    14    6    7 ar  
    15    6   48 1   
    16    7    8 ar  
    17    7   49 1   
    18    8   50 1   
    19    9   10 1   
    20    9   11 1   
    21    9   51 1   
    22   10   72 1   
    23   11   12 1   
    24   11   52 1   
    25   11   53 1   
    26   12   13 1   
    27   12   15 1   
    28   13   14 2   
    29   13   21 1   
    30   13   37 2   
    31   15   17 1   
    32   15   20 1   
    33   16   17 1   
    34   16   19 1   
    35   17   18 2   
    36   19   27 1   
    37   19   54 1   
    38   19   55 1   
    39   20   33 1   
    40   20   56 1   
    41   20   57 1   
    42   21   35 ar  
    43   21   36 ar  
    44   22   23 ar  
    45   22   27 ar  
    46   22   58 1   
    47   23   24 ar  
    48   23   59 1   
    49   24   25 ar  
    50   24   73 1   
    51   25   26 ar  
    52   25   60 1   
    53   26   27 ar  
    54   26   61 1   
    55   28   29 ar  
    56   28   33 ar  
    57   28   62 1   
    58   29   30 ar  
    59   29   63 1   
    60   30   31 ar  
    61   30   34 1   
    62   31   32 ar  
    63   31   64 1   
    64   32   33 ar  
    65   32   65 1   
    66   34   70 1   
    67   35   38 ar  
    68   35   66 1   
    69   36   39 ar  
    70   36   67 1   
    71   38   40 ar  
    72   38   41 1   
    73   39   40 ar  
    74   39   68 1   
    75   40   69 1   
    76   41   42 3   
    77   71   73 1   
@<TRIPOS>SUBSTRUCTURE
     1 BH0         1 TEMP              0 ****  ****    0 ROOT
