@<TRIPOS>MOLECULE
BH2
   15    14     1     0     0
SMALL
bcc


@<TRIPOS>ATOM
      1 C          -1.9880   -0.1420   -0.0050 c         1 BH2      0.924600
      2 N          -0.2400   -1.7540    0.6800 n3        1 BH2     -0.910800
      3 O          -2.3510   -0.7220   -1.0730 o         1 BH2     -0.873800
      4 CA         -0.5230   -0.3400    0.4950 c3        1 BH2      0.039500
      5 CB          0.4630    0.3860   -0.4570 c3        1 BH2      0.012100
      6 OB          0.2880    1.7930   -0.3690 oh        1 BH2     -0.623800
      7 CG          1.9380    0.0350   -0.1660 c         1 BH2      0.879600
      8 OD1         2.4130   -1.0730   -0.5590 o         1 BH2     -0.873800
      9 OD2         2.6390    0.8930    0.4570 o         1 BH2     -0.873800
     10 HA         -0.4350    0.1510    1.5060 h1        1 BH2      0.036700
     11 HB          0.2050    0.1250   -1.5190 h1        1 BH2      0.061700
     12 H1N        -0.6450   -2.2600   -0.0890 hn        1 BH2      0.339300
     13 HOB         0.8350    2.0840    0.3750 ho        1 BH2      0.398000
     14 OXT        -2.7730    0.5610    0.6950 o         1 BH2     -0.873800
     15 HN          0.7540   -1.9070    0.6490 hn        1 BH2      0.339300
@<TRIPOS>BOND
     1    1    3 1   
     2    1    4 1   
     3    1   14 1   
     4    2    4 1   
     5    2   12 1   
     6    2   15 1   
     7    4    5 1   
     8    4   10 1   
     9    5    6 1   
    10    5    7 1   
    11    5   11 1   
    12    6   13 1   
    13    7    8 1   
    14    7    9 1   
@<TRIPOS>SUBSTRUCTURE
     1 BH2         1 TEMP              0 ****  ****    0 ROOT
