@<TRIPOS>MOLECULE
BH3
   67    67     1     0     0
SMALL
bcc


@<TRIPOS>ATOM
      1 OAD         0.2060   -1.1730   -2.3510 o         1 BH3     -0.920000
      2 PBC         1.4490   -1.8670   -1.9290 p5        1 BH3      2.152000
      3 OAE         0.7250   -3.0110   -0.7870 os        1 BH3     -0.756000
      4 OAB         2.0230   -2.8460   -2.9040 o         1 BH3     -0.920000
      5 CAZ         2.5130   -1.1590   -0.9630 c2        1 BH3     -1.486000
      6 PBD         3.6860    0.7230   -1.0300 p3        1 BH3      2.569000
      7 OAF         4.8080    0.2820   -0.1410 o         1 BH3     -1.227000
      8 OAG         4.0290    0.8930   -2.4720 o         1 BH3     -1.227000
      9 OAC         2.7890    1.7560   -0.4270 o         1 BH3     -1.227000
     10 CAY         1.9880   -0.8410    0.3800 c3        1 BH3      0.020000
     11 NBB         1.6860   -1.9890    1.2570 n3        1 BH3     -0.265000
     12 CAJ         0.8990   -3.0910    0.5610 c3        1 BH3      0.262000
     13 CAI         2.7710   -2.6480    1.8700 c2        1 BH3     -0.079000
     14 CAH         2.6790   -4.0140    1.7760 c2        1 BH3     -0.269000
     15 NBA         1.5220   -4.4240    1.0380 n3        1 BH3     -0.254000
     16 CAX         1.7590   -5.4200    0.0170 c3        1 BH3     -0.035000
     17 CAW         2.8930   -5.1700   -0.9710 c3        1 BH3     -0.221000
     18 CAV         2.9320   -6.2190   -2.0620 c3        1 BH3     -0.114000
     19 CAU         3.5310   -5.6320   -3.3220 c3        1 BH3     -0.204000
     20 CAT         3.4070   -6.5740   -4.5000 c3        1 BH3     -0.138000
     21 CAS         3.9410   -5.9280   -5.7600 c3        1 BH3     -0.165000
     22 CAR         3.7620   -6.8240   -6.9680 c3        1 BH3     -0.152000
     23 CAQ         4.2910   -6.1660   -8.2240 c3        1 BH3     -0.161000
     24 CAP         4.1020   -7.0510   -9.4370 c3        1 BH3     -0.155000
     25 CAO         4.6300   -6.3880  -10.6910 c3        1 BH3     -0.160000
     26 CAN         4.4390   -7.2710  -11.9060 c3        1 BH3     -0.156000
     27 CAM         4.9670   -6.6060  -13.1590 c3        1 BH3     -0.159000
     28 CAL         4.7760   -7.4870  -14.3740 c3        1 BH3     -0.157000
     29 CAK         5.3040   -6.8220  -15.6280 c3        1 BH3     -0.160000
     30 CAA         5.1170   -7.6960  -16.8410 c3        1 BH3     -0.208000
     31 H3          3.5170   -1.6140   -0.9700 ha        1 BH3      0.136000
     32 H6          0.9870   -0.3250    0.2610 h1        1 BH3      0.090000
     33 H7          2.6770   -0.1680    0.9680 h1        1 BH3      0.090000
     34 H8         -0.1220   -3.0980    1.0660 h3        1 BH3      0.046000
     35 H9          3.5500   -2.0590    2.3600 h4        1 BH3      0.141000
     36 H10         3.3490   -4.7630    2.1950 h4        1 BH3      0.103000
     37 H11         1.9450   -6.4020    0.5450 h1        1 BH3      0.044000
     38 H12         0.7990   -5.5080   -0.5670 h1        1 BH3      0.044000
     39 H13         2.7120   -4.1490   -1.4490 hc        1 BH3      0.129000
     40 H14         3.8750   -5.1330   -0.4370 hc        1 BH3      0.129000
     41 H15         1.8900   -6.5750   -2.2830 hc        1 BH3      0.028500
     42 H16         3.5180   -7.1190   -1.7320 hc        1 BH3      0.028500
     43 H17         4.6100   -5.3880   -3.1480 hc        1 BH3      0.140000
     44 H18         2.9990   -4.6480   -3.5360 hc        1 BH3      0.140000
     45 H19         2.3290   -6.8460   -4.6490 hc        1 BH3      0.045000
     46 H20         3.9630   -7.5290   -4.3000 hc        1 BH3      0.045000
     47 H21         5.0290   -5.6890   -5.6280 hc        1 BH3      0.096000
     48 H22         3.4080   -4.9530   -5.9230 hc        1 BH3      0.096000
     49 H23         2.6730   -7.0610   -7.0990 hc        1 BH3      0.062000
     50 H24         4.2940   -7.7980   -6.8010 hc        1 BH3      0.062000
     51 H25         3.7610   -5.1890   -8.3820 hc        1 BH3      0.084500
     52 H26         5.3800   -5.9320   -8.0950 hc        1 BH3      0.084500
     53 H27         4.6300   -8.0280   -9.2770 hc        1 BH3      0.069000
     54 H28         3.0110   -7.2830   -9.5650 hc        1 BH3      0.069000
     55 H29         4.1000   -5.4110  -10.8480 hc        1 BH3      0.081500
     56 H30         5.7190   -6.1550  -10.5620 hc        1 BH3      0.081500
     57 H31         4.9680   -8.2480  -11.7480 hc        1 BH3      0.073000
     58 H32         3.3490   -7.5030  -12.0340 hc        1 BH3      0.073000
     59 H33         4.4370   -5.6290  -13.3160 hc        1 BH3      0.079500
     60 H34         6.0560   -6.3730  -13.0300 hc        1 BH3      0.079500
     61 H35         3.6860   -7.7200  -14.5030 hc        1 BH3      0.074500
     62 H36         5.3050   -8.4640  -14.2170 hc        1 BH3      0.074500
     63 H37         6.3930   -6.5880  -15.4960 hc        1 BH3      0.078500
     64 H38         4.7740   -5.8450  -15.7820 hc        1 BH3      0.078500
     65 H39         4.0340   -7.9190  -17.0030 hc        1 BH3      0.066000
     66 H40         5.6580   -8.6650  -16.7160 hc        1 BH3      0.066000
     67 H41         5.5110   -7.1860  -17.7530 hc        1 BH3      0.066000
@<TRIPOS>BOND
     1    1    2 1   
     2    2    3 1   
     3    2    4 1   
     4    2    5 1   
     5    3   12 1   
     6    5   10 1   
     7    5   31 1   
     8    6    7 1   
     9    6    8 1   
    10    6    9 1   
    11   10   11 1   
    12   10   32 1   
    13   10   33 1   
    14   11   12 1   
    15   11   13 1   
    16   12   15 1   
    17   12   34 1   
    18   13   14 1   
    19   13   35 1   
    20   14   15 1   
    21   14   36 1   
    22   15   16 1   
    23   16   17 1   
    24   16   37 1   
    25   16   38 1   
    26   17   18 1   
    27   17   39 1   
    28   17   40 1   
    29   18   19 1   
    30   18   41 1   
    31   18   42 1   
    32   19   20 1   
    33   19   43 1   
    34   19   44 1   
    35   20   21 1   
    36   20   45 1   
    37   20   46 1   
    38   21   22 1   
    39   21   47 1   
    40   21   48 1   
    41   22   23 1   
    42   22   49 1   
    43   22   50 1   
    44   23   24 1   
    45   23   51 1   
    46   23   52 1   
    47   24   25 1   
    48   24   53 1   
    49   24   54 1   
    50   25   26 1   
    51   25   55 1   
    52   25   56 1   
    53   26   27 1   
    54   26   57 1   
    55   26   58 1   
    56   27   28 1   
    57   27   59 1   
    58   27   60 1   
    59   28   29 1   
    60   28   61 1   
    61   28   62 1   
    62   29   30 1   
    63   29   63 1   
    64   29   64 1   
    65   30   65 1   
    66   30   66 1   
    67   30   67 1   
@<TRIPOS>SUBSTRUCTURE
     1 BH3         1 TEMP              0 ****  ****    0 ROOT
