@<TRIPOS>MOLECULE
BH4
   32    33     1     0     0
SMALL
bcc


@<TRIPOS>ATOM
      1 N1         -1.3780    0.4560   -2.3860 nc        1 BH4     -0.696300
      2 C2         -0.3300    0.6220   -3.2090 cd        1 BH4      0.662800
      3 N8         -2.2720   -0.4320   -0.3540 nh        1 BH4     -0.725000
      4 C7         -2.0690   -1.0160    0.9480 c3        1 BH4      0.202800
      5 C6         -0.6050   -1.0120    1.4670 c3        1 BH4      0.135500
      6 N5          0.3010   -1.4160    0.4020 nh        1 BH4     -0.651000
      7 C4          1.2450   -0.4660   -1.6880 c         1 BH4      0.710700
      8 N3          0.9620    0.1500   -2.9240 n         1 BH4     -0.490400
      9 C10        -1.1620   -0.2070   -1.1720 cc        1 BH4      0.376600
     10 C9          0.1110   -0.6740   -0.7900 cd        1 BH4     -0.178200
     11 C17         1.2480    1.6010    3.6930 c3        1 BH4     -0.128100
     12 O16         2.1310   -0.0740    2.1850 oh        1 BH4     -0.589800
     13 C15         1.0130    0.2840    2.9760 c3        1 BH4      0.108100
     14 N11        -0.5010    1.3750   -4.4020 nh        1 BH4     -0.882800
     15 O12         2.4320   -0.7670   -1.4490 o         1 BH4     -0.646500
     16 C13        -0.2820    0.3480    2.1410 c3        1 BH4      0.067100
     17 O14        -1.3590    0.7640    2.9640 oh        1 BH4     -0.588800
     18 HN8        -3.0230    0.2200   -0.4300 hn        1 BH4      0.429800
     19 H71        -2.4020   -2.0930    0.8800 h1        1 BH4      0.061200
     20 H72        -2.7210   -0.4890    1.7000 h1        1 BH4      0.061200
     21 H6         -0.5290   -1.8100    2.2630 h1        1 BH4      0.069700
     22 HN5         1.2650   -1.4040    0.6950 hn        1 BH4      0.418800
     23 HN3         1.7240    0.3340   -3.5400 hn        1 BH4      0.336500
     24 H172        2.1660    1.5310    4.3230 hc        1 BH4      0.049367
     25 H173        1.3830    2.4270    2.9550 hc        1 BH4      0.049367
     26 H16         2.3170    0.6610    1.5870 ho        1 BH4      0.409000
     27 H15         0.9330   -0.5580    3.7230 h1        1 BH4      0.072700
     28 H111       -1.4540    1.6080   -4.5950 hn        1 BH4      0.412300
     29 H112       -0.0250    0.9980   -5.1940 hn        1 BH4      0.412300
     30 H13        -0.2000    1.1570    1.3620 h1        1 BH4      0.083700
     31 H14        -1.4270    0.1300    3.6890 ho        1 BH4      0.399000
     32 H171        0.3720    1.8430    4.3400 hc        1 BH4      0.049367
@<TRIPOS>BOND
     1    1    2 2   
     2    1    9 1   
     3    2    8 1   
     4    2   14 1   
     5    3    4 1   
     6    3    9 1   
     7    3   18 1   
     8    4    5 1   
     9    4   19 1   
    10    4   20 1   
    11    5    6 1   
    12    5   16 1   
    13    5   21 1   
    14    6   10 1   
    15    6   22 1   
    16    7    8 1   
    17    7   10 1   
    18    7   15 2   
    19    8   23 1   
    20    9   10 2   
    21   11   13 1   
    22   11   24 1   
    23   11   25 1   
    24   11   32 1   
    25   12   13 1   
    26   12   26 1   
    27   13   16 1   
    28   13   27 1   
    29   14   28 1   
    30   14   29 1   
    31   16   17 1   
    32   16   30 1   
    33   17   31 1   
@<TRIPOS>SUBSTRUCTURE
     1 BH4         1 TEMP              0 ****  ****    0 ROOT
