@<TRIPOS>MOLECULE
BH4
   32    31     1     0     0
SMALL
bcc


@<TRIPOS>ATOM
      1 N1          1.2530   -0.8430   -2.6880 n1        1 BH4     -0.276000
      2 C2          2.6430   -0.7270   -2.6870 c1        1 BH4      0.450400
      3 N8         -0.9210   -1.1700   -1.4570 nh        1 BH4     -0.725000
      4 C7         -1.4210   -1.4740   -0.2710 c3        1 BH4      0.168800
      5 C6         -0.8530   -0.7650    0.8900 c3        1 BH4      0.127500
      6 N5          0.5010   -0.7950    1.0200 nh        1 BH4     -0.658000
      7 C4          2.6700   -0.6590   -0.2560 c1        1 BH4      0.663600
      8 N3          3.3540   -0.6340   -1.4500 n2        1 BH4     -0.802800
      9 C10         0.5790   -0.8680   -1.5260 ce        1 BH4      0.241000
     10 C9          1.3120   -0.7730   -0.2500 ce        1 BH4     -0.238100
     11 C17        -2.2310    2.7060    2.0430 c3        1 BH4     -0.129100
     12 O16        -0.5060    1.3030    2.9540 oh        1 BH4     -0.611800
     13 C15        -1.6560    1.2820    2.1520 c3        1 BH4      0.125100
     14 N11         3.3630   -0.6780   -3.9380 n3        1 BH4     -0.425400
     15 O12         3.2800   -0.5850    0.7990 o         1 BH4     -0.592500
     16 C13        -1.3040    0.7820    0.7930 c3        1 BH4      0.116100
     17 O14        -2.3870    0.8910   -0.0270 oh        1 BH4     -0.605800
     18 HN8        -1.1250   -1.8280   -2.0510 hn        1 BH4      0.433800
     19 H71        -1.2930   -2.4360   -0.1290 h1        1 BH4      0.063700
     20 H72        -2.3830   -1.2950   -0.2940 h1        1 BH4      0.063700
     21 H6         -1.2440   -1.1460    1.6970 h1        1 BH4      0.074700
     22 HN5         0.7450   -1.5260    1.5290 hn        1 BH4      0.381800
     23 HN3         4.2690   -0.5580   -1.4520 hn        1 BH4      0.492400
     24 H171       -1.9160    3.2460    2.8030 hc        1 BH4      0.052700
     25 H172       -3.2120    2.6640    2.0550 hc        1 BH4      0.052700
     26 H173       -1.9320    3.1160    1.2050 hc        1 BH4      0.052700
     27 H16        -0.7390    1.4300    3.8010 ho        1 BH4      0.416000
     28 H15        -2.3250    0.6900    2.5550 h1        1 BH4      0.072700
     29 H111        4.2760   -0.7500   -3.9440 hn        1 BH4      0.261200
     30 H112        2.9010   -0.5890   -4.7350 hn        1 BH4      0.261200
     31 H13        -0.5680    1.3130    0.4320 h1        1 BH4      0.083700
     32 H14        -3.1290    0.6760    0.4280 ho        1 BH4      0.408000
@<TRIPOS>BOND
     1    1    9 2   
     2    2    8 2   
     3    2   14 2   
     4    3    4 1   
     5    3    9 1   
     6    3   18 1   
     7    4    5 1   
     8    4   19 1   
     9    4   20 1   
    10    5    6 1   
    11    5   16 1   
    12    5   21 1   
    13    6   10 1   
    14    6   22 1   
    15    7   10 2   
    16    7   15 2   
    17    8   23 1   
    18    9   10 1   
    19   11   13 1   
    20   11   24 1   
    21   11   25 1   
    22   11   26 1   
    23   12   13 1   
    24   12   27 1   
    25   13   16 1   
    26   13   28 1   
    27   14   29 1   
    28   14   30 1   
    29   16   17 1   
    30   16   31 1   
    31   17   32 1   
@<TRIPOS>SUBSTRUCTURE
     1 BH4         1 TEMP              0 ****  ****    0 ROOT
