@<TRIPOS>MOLECULE
BH4
   33    34     1     0     0
SMALL
bcc


@<TRIPOS>ATOM
      1 N1          0.0840   -0.1860   -0.2320 nc        1 BH4     -0.508300
      2 C2          1.4020   -0.3390   -0.1650 cd        1 BH4      0.406800
      3 N8         -2.0320   -0.0060    0.8850 nh        1 BH4     -0.683000
      4 C7         -2.7190   -0.1370    2.1480 c3        1 BH4      0.168800
      5 C6         -2.0070    0.4940    3.3750 c3        1 BH4      0.176500
      6 N5         -0.6070    0.1230    3.3970 nh        1 BH4     -0.672000
      7 C4          1.5370   -0.1580    2.2430 c         1 BH4      0.693700
      8 N3          2.1780   -0.3450    1.0030 n         1 BH4     -0.474400
      9 C10        -0.6150   -0.0310    0.9570 cc        1 BH4      0.196600
     10 C9          0.0590    0.0130    2.2070 cd        1 BH4      0.074800
     11 C17        -2.2800    4.0490    4.9580 c3        1 BH4     -0.142100
     12 O16        -0.3970    2.5270    4.8330 oh        1 BH4     -0.626800
     13 C15        -1.8180    2.6140    4.7910 c3        1 BH4      0.106100
     14 N11         2.1110   -0.5050   -1.4680 n4        1 BH4     -0.777600
     15 O12         2.2380   -0.1390    3.2640 o         1 BH4     -0.562500
     16 C13        -2.2380    2.0310    3.4240 c3        1 BH4      0.122100
     17 O14        -3.6290    2.2040    3.2140 oh        1 BH4     -0.595800
     18 HN8        -2.3800    0.7280    0.2990 hn        1 BH4      0.413800
     19 H71        -3.7480    0.3150    2.0570 h1        1 BH4      0.096200
     20 H72        -2.8340   -1.2420    2.3470 h1        1 BH4      0.096200
     21 H6         -2.4760    0.0520    4.3060 h1        1 BH4      0.103700
     22 HN5        -0.0760    0.3980    4.2050 hn        1 BH4      0.480800
     23 HN3         3.1650   -0.4810    0.9930 hn        1 BH4      0.350500
     24 H173       -1.8120    4.4990    5.8670 hc        1 BH4      0.057033
     25 H16        -0.1040    3.0000    5.6210 ho        1 BH4      0.428000
     26 H15        -2.2490    1.9780    5.6160 h1        1 BH4      0.056700
     27 H111        2.7930    0.2510   -1.5910 hn        1 BH4      0.475467
     28 H112        1.4230   -0.4710   -2.2360 hn        1 BH4      0.475467
     29 H13        -1.6570    2.5440    2.6090 h1        1 BH4      0.050700
     30 H14        -3.8030    3.1550    3.2060 ho        1 BH4      0.425000
     31 H171       -1.9890    4.6630    4.0730 hc        1 BH4      0.057033
     32 H113        2.5860   -1.4140   -1.4830 hn        1 BH4      0.475467
     33 H172       -3.3890    4.0870    5.0850 hc        1 BH4      0.057033
@<TRIPOS>BOND
     1    1    2 2   
     2    1    9 1   
     3    2    8 1   
     4    2   14 1   
     5    3    4 1   
     6    3    9 1   
     7    3   18 1   
     8    4    5 1   
     9    4   19 1   
    10    4   20 1   
    11    5    6 1   
    12    5   16 1   
    13    5   21 1   
    14    6   10 1   
    15    6   22 1   
    16    7    8 1   
    17    7   10 1   
    18    7   15 2   
    19    8   23 1   
    20    9   10 2   
    21   11   13 1   
    22   11   24 1   
    23   11   31 1   
    24   11   33 1   
    25   12   13 1   
    26   12   25 1   
    27   13   16 1   
    28   13   26 1   
    29   14   27 1   
    30   14   28 1   
    31   14   32 1   
    32   16   17 1   
    33   16   29 1   
    34   17   30 1   
@<TRIPOS>SUBSTRUCTURE
     1 BH4         1 TEMP              0 ****  ****    0 ROOT
