@<TRIPOS>MOLECULE
BH4
   32    33     1     0     0
SMALL
bcc


@<TRIPOS>ATOM
      1 N1          0.0530   -0.2810   -0.0380 nc        1 BH4     -0.709300
      2 C2          1.3980   -0.2880   -0.0140 cd        1 BH4      0.682800
      3 N8         -2.0030   -0.4410    1.1650 nu        1 BH4     -0.733000
      4 C7         -2.7310   -0.3510    2.4020 c3        1 BH4      0.174800
      5 C6         -2.0120    0.4540    3.5200 c3        1 BH4      0.161500
      6 N5         -0.5990    0.1410    3.6460 nu        1 BH4     -0.666000
      7 C4          1.5180   -0.1400    2.4290 c         1 BH4      0.728700
      8 N3          2.1520   -0.2230    1.1670 ns        1 BH4     -0.498400
      9 C10        -0.6200   -0.2720    1.1890 cc        1 BH4      0.389600
     10 C9          0.0570   -0.1100    2.4150 cd        1 BH4     -0.201200
     11 C17        -2.3380    4.0990    4.6890 c3        1 BH4     -0.102100
     12 O16        -0.2820    3.2390    3.9520 oh        1 BH4     -0.607800
     13 C15        -1.5680    2.8250    4.3870 c3        1 BH4      0.131100
     14 N11         2.1040   -0.4260   -1.2340 nv        1 BH4     -0.889800
     15 O12         2.2550   -0.1110    3.4320 o         1 BH4     -0.634500
     16 C13        -2.2350    1.9730    3.2860 c3        1 BH4      0.109100
     17 O14        -3.6480    2.1310    3.2770 oh        1 BH4     -0.610800
     18 HN8        -2.4850   -0.1780    0.3350 hn        1 BH4      0.434800
     19 H71        -3.7420    0.1090    2.2160 h1        1 BH4      0.064700
     20 H72        -2.8860   -1.4040    2.7800 h1        1 BH4      0.064700
     21 H6         -2.5250    0.1940    4.4930 h1        1 BH4      0.077700
     22 HN5        -0.4440   -0.6180    4.2870 hn        1 BH4      0.386800
     23 HN3         3.1460   -0.2830    1.1480 hn        1 BH4      0.336500
     24 H172       -2.4720    4.7060    3.7630 hc        1 BH4      0.046367
     25 H173       -1.7670    4.7120    5.4270 hc        1 BH4      0.046367
     26 H16         0.2850    2.4570    3.9370 ho        1 BH4      0.427000
     27 H15        -1.4770    2.2140    5.3290 h1        1 BH4      0.044700
     28 H111        2.9420    0.1090   -1.3000 hn        1 BH4      0.417300
     29 H112        1.5290   -0.3760   -2.0490 hn        1 BH4      0.417300
     30 H13        -1.8120    2.2760    2.2870 h1        1 BH4      0.053700
     31 H14        -3.8240    3.0460    3.0270 ho        1 BH4      0.411000
     32 H171       -3.3370    3.8450    5.1170 hc        1 BH4      0.046367
@<TRIPOS>BOND
     1    1    2 2   
     2    1    9 1   
     3    2    8 1   
     4    2   14 1   
     5    3    4 1   
     6    3    9 1   
     7    3   18 1   
     8    4    5 1   
     9    4   19 1   
    10    4   20 1   
    11    5    6 1   
    12    5   16 1   
    13    5   21 1   
    14    6   10 1   
    15    6   22 1   
    16    7    8 1   
    17    7   10 1   
    18    7   15 2   
    19    8   23 1   
    20    9   10 2   
    21   11   13 1   
    22   11   24 1   
    23   11   25 1   
    24   11   32 1   
    25   12   13 1   
    26   12   26 1   
    27   13   16 1   
    28   13   27 1   
    29   14   28 1   
    30   14   29 1   
    31   16   17 1   
    32   16   30 1   
    33   17   31 1   
@<TRIPOS>SUBSTRUCTURE
     1 BH4         1 TEMP              0 ****  ****    0 ROOT
