@<TRIPOS>MOLECULE
BH5
   68    68     1     0     0
SMALL
bcc


@<TRIPOS>ATOM
      1 OAE        -0.2520    1.3500   -0.5170 o         1 BH5     -0.908500
      2 PBD         0.9020    0.5790    0.0330 p5        1 BH5      2.091000
      3 OAF         1.2430   -0.6920   -0.6590 o         1 BH5     -0.908500
      4 OAB         2.1670    1.6550   -0.5180 os        1 BH5     -0.704000
      5 CBC         1.1580    0.6510    1.6420 c2        1 BH5     -1.226000
      6 PBE         0.1220   -0.0120    3.4480 p3        1 BH5      2.564000
      7 OAG         0.9230    0.5790    4.5690 o         1 BH5     -1.222667
      8 OAH        -1.2540    0.5570    3.3330 o         1 BH5     -1.222667
      9 OAC         0.2680   -1.4920    3.2750 o         1 BH5     -1.222667
     10 OAD         2.2570   -0.1860    1.9820 oh        1 BH5     -0.349000
     11 CAZ         1.3080    2.0000    2.2490 c3        1 BH5      0.004000
     12 NBB         1.9540    3.0400    1.4560 n3        1 BH5     -0.299000
     13 CAK         1.9750    2.9310   -0.0560 c3        1 BH5      0.235000
     14 CAJ         3.1340    3.6670    1.8170 c2        1 BH5     -0.009000
     15 CAI         3.7640    4.2340    0.7280 c2        1 BH5     -0.364000
     16 NBA         3.1360    3.8450   -0.5110 n3        1 BH5     -0.184000
     17 CAY         2.6710    4.9560   -1.3100 c3        1 BH5     -0.048000
     18 CAX         1.7780    6.0110   -0.6480 c3        1 BH5     -0.204000
     19 CAW         1.4060    7.0980   -1.6310 c3        1 BH5     -0.147000
     20 CAV         0.5030    8.1330   -0.9920 c3        1 BH5     -0.161000
     21 CAU         0.1180    9.2190   -1.9740 c3        1 BH5     -0.156000
     22 CAT        -0.7890   10.2470   -1.3330 c3        1 BH5     -0.159000
     23 CAS        -1.1770   11.3320   -2.3150 c3        1 BH5     -0.156000
     24 CAR        -2.0860   12.3570   -1.6720 c3        1 BH5     -0.159000
     25 CAQ        -2.4760   13.4420   -2.6530 c3        1 BH5     -0.157000
     26 CAP        -3.3850   14.4670   -2.0100 c3        1 BH5     -0.158000
     27 CAO        -3.7740   15.5520   -2.9910 c3        1 BH5     -0.157000
     28 CAN        -4.6830   16.5760   -2.3460 c3        1 BH5     -0.158000
     29 CAM        -5.0730   17.6610   -3.3270 c3        1 BH5     -0.157000
     30 CAL        -5.9820   18.6860   -2.6840 c3        1 BH5     -0.159000
     31 CAA        -6.3730   19.7690   -3.6560 c3        1 BH5     -0.209000
     32 H5          1.8640   -1.0720    2.0460 ho        1 BH5      0.212000
     33 H6          1.8710    1.9090    3.2280 h1        1 BH5      0.108000
     34 H7          0.2730    2.4030    2.4830 h1        1 BH5      0.108000
     35 H8          0.9710    3.3200   -0.4190 h3        1 BH5      0.101000
     36 H9          3.4520    3.7060    2.8630 h4        1 BH5      0.123000
     37 H10         4.6720    4.8290    0.7040 h4        1 BH5      0.104000
     38 H11         3.5850    5.4880   -1.7060 h1        1 BH5      0.052500
     39 H12         2.1150    4.5230   -2.1880 h1        1 BH5      0.052500
     40 H13         2.3140    6.4550    0.2300 hc        1 BH5      0.095500
     41 H14         0.8500    5.5150   -0.2560 hc        1 BH5      0.095500
     42 H15         2.3340    7.5980   -2.0160 hc        1 BH5      0.061000
     43 H16         0.8850    6.6420   -2.5140 hc        1 BH5      0.061000
     44 H17         1.0230    8.5900   -0.1100 hc        1 BH5      0.082500
     45 H18        -0.4210    7.6280   -0.6050 hc        1 BH5      0.082500
     46 H19        -0.4000    8.7580   -2.8560 hc        1 BH5      0.069500
     47 H20         1.0430    9.7230   -2.3610 hc        1 BH5      0.069500
     48 H21        -1.7120    9.7400   -0.9470 hc        1 BH5      0.080000
     49 H22        -0.2710   10.7060   -0.4500 hc        1 BH5      0.080000
     50 H23        -1.6950   10.8710   -3.1970 hc        1 BH5      0.073500
     51 H24        -0.2540   11.8370   -2.7020 hc        1 BH5      0.073500
     52 H25        -1.5690   12.8170   -0.7890 hc        1 BH5      0.079000
     53 H26        -3.0090   11.8500   -1.2860 hc        1 BH5      0.079000
     54 H27        -1.5520   13.9480   -3.0400 hc        1 BH5      0.075000
     55 H28        -2.9930   12.9820   -3.5360 hc        1 BH5      0.075000
     56 H29        -2.8670   14.9260   -1.1270 hc        1 BH5      0.079000
     57 H30        -4.3080   13.9600   -1.6230 hc        1 BH5      0.079000
     58 H31        -2.8510   16.0580   -3.3770 hc        1 BH5      0.076500
     59 H32        -4.2920   15.0920   -3.8730 hc        1 BH5      0.076500
     60 H33        -5.6060   16.0690   -1.9600 hc        1 BH5      0.078500
     61 H34        -4.1650   17.0350   -1.4630 hc        1 BH5      0.078500
     62 H35        -4.1500   18.1680   -3.7130 hc        1 BH5      0.077000
     63 H36        -5.5910   17.2020   -4.2100 hc        1 BH5      0.077000
     64 H37        -5.4630   19.1430   -1.8000 hc        1 BH5      0.077500
     65 H38        -6.9040   18.1770   -2.2970 hc        1 BH5      0.077500
     66 H39        -5.4690   20.3040   -4.0340 hc        1 BH5      0.068000
     67 H40        -7.0430   20.5130   -3.1620 hc        1 BH5      0.068000
     68 H41        -6.9140   19.3350   -4.5320 hc        1 BH5      0.068000
@<TRIPOS>BOND
     1    1    2 1   
     2    2    3 1   
     3    2    4 1   
     4    2    5 1   
     5    4   13 1   
     6    5   10 1   
     7    5   11 1   
     8    6    7 1   
     9    6    8 1   
    10    6    9 1   
    11   10   32 1   
    12   11   12 1   
    13   11   33 1   
    14   11   34 1   
    15   12   13 1   
    16   12   14 1   
    17   13   16 1   
    18   13   35 1   
    19   14   15 1   
    20   14   36 1   
    21   15   16 1   
    22   15   37 1   
    23   16   17 1   
    24   17   18 1   
    25   17   38 1   
    26   17   39 1   
    27   18   19 1   
    28   18   40 1   
    29   18   41 1   
    30   19   20 1   
    31   19   42 1   
    32   19   43 1   
    33   20   21 1   
    34   20   44 1   
    35   20   45 1   
    36   21   22 1   
    37   21   46 1   
    38   21   47 1   
    39   22   23 1   
    40   22   48 1   
    41   22   49 1   
    42   23   24 1   
    43   23   50 1   
    44   23   51 1   
    45   24   25 1   
    46   24   52 1   
    47   24   53 1   
    48   25   26 1   
    49   25   54 1   
    50   25   55 1   
    51   26   27 1   
    52   26   56 1   
    53   26   57 1   
    54   27   28 1   
    55   27   58 1   
    56   27   59 1   
    57   28   29 1   
    58   28   60 1   
    59   28   61 1   
    60   29   30 1   
    61   29   62 1   
    62   29   63 1   
    63   30   31 1   
    64   30   64 1   
    65   30   65 1   
    66   31   66 1   
    67   31   67 1   
    68   31   68 1   
@<TRIPOS>SUBSTRUCTURE
     1 BH5         1 TEMP              0 ****  ****    0 ROOT
