@<TRIPOS>MOLECULE
BH5
   68    68     1     0     0
SMALL
bcc


@<TRIPOS>ATOM
      1 OAE        -0.2270    1.3460   -0.5270 o         1 BH5     -0.908500
      2 PBD         0.9260    0.5800    0.0320 p5        1 BH5      2.091000
      3 OAF         1.2780   -0.6880   -0.6590 o         1 BH5     -0.908500
      4 OAB         2.1900    1.6630   -0.5070 os        1 BH5     -0.704000
      5 CBC         1.1680    0.6510    1.6430 c2        1 BH5     -1.226000
      6 PBE         0.1190   -0.0210    3.4390 p3        1 BH5      2.564000
      7 OAG         0.9080    0.5720    4.5680 o         1 BH5     -1.222667
      8 OAH        -1.2580    0.5410    3.3130 o         1 BH5     -1.222667
      9 OAC         0.2740   -1.5000    3.2650 o         1 BH5     -1.222667
     10 OAD         2.2680   -0.1820    1.9910 oh        1 BH5     -0.349000
     11 CAZ         1.3050    1.9990    2.2530 c3        1 BH5      0.004000
     12 NBB         1.9530    3.0440    1.4670 n3        1 BH5     -0.299000
     13 CAK         1.9870    2.9370   -0.0440 c3        1 BH5      0.235000
     14 CAJ         3.1270    3.6760    1.8400 c2        1 BH5     -0.009000
     15 CAI         3.7640    4.2470    0.7570 c2        1 BH5     -0.364000
     16 NBA         3.1480    3.8580   -0.4880 n3        1 BH5     -0.184000
     17 CAY         2.6840    4.9680   -1.2880 c3        1 BH5     -0.048000
     18 CAX         1.7800    6.0170   -0.6330 c3        1 BH5     -0.204000
     19 CAW         1.4130    7.1050   -1.6170 c3        1 BH5     -0.147000
     20 CAV         0.4990    8.1340   -0.9840 c3        1 BH5     -0.161000
     21 CAU         0.1210    9.2220   -1.9670 c3        1 BH5     -0.156000
     22 CAT        -0.7970   10.2440   -1.3320 c3        1 BH5     -0.159000
     23 CAS        -1.1770   11.3320   -2.3140 c3        1 BH5     -0.156000
     24 CAR        -2.0970   12.3520   -1.6770 c3        1 BH5     -0.159000
     25 CAQ        -2.4770   13.4410   -2.6580 c3        1 BH5     -0.157000
     26 CAP        -3.3970   14.4600   -2.0210 c3        1 BH5     -0.158000
     27 CAO        -3.7760   15.5500   -3.0010 c3        1 BH5     -0.157000
     28 CAN        -4.6960   16.5680   -2.3640 c3        1 BH5     -0.158000
     29 CAM        -5.0740   17.6580   -3.3430 c3        1 BH5     -0.157000
     30 CAL        -5.9950   18.6780   -2.7070 c3        1 BH5     -0.159000
     31 CAA        -6.3740   19.7650   -3.6780 c3        1 BH5     -0.209000
     32 H5          1.8780   -1.0700    2.0500 ho        1 BH5      0.212000
     33 H6          0.2660    2.3960    2.4790 h1        1 BH5      0.108000
     34 H7          1.8600    1.9090    3.2370 h1        1 BH5      0.108000
     35 H8          0.9840    3.3220   -0.4160 h3        1 BH5      0.101000
     36 H9          3.4350    3.7140    2.8890 h4        1 BH5      0.123000
     37 H10         4.6680    4.8470    0.7420 h4        1 BH5      0.104000
     38 H11         3.5990    5.5050   -1.6750 h1        1 BH5      0.052500
     39 H12         2.1380    4.5330   -2.1730 h1        1 BH5      0.052500
     40 H13         2.3060    6.4620    0.2510 hc        1 BH5      0.095500
     41 H14         0.8510    5.5160   -0.2510 hc        1 BH5      0.095500
     42 H15         0.9030    6.6490   -2.5060 hc        1 BH5      0.061000
     43 H16         2.3420    7.6110   -1.9910 hc        1 BH5      0.061000
     44 H17        -0.4270    7.6240   -0.6090 hc        1 BH5      0.082500
     45 H18         1.0080    8.5910   -0.0940 hc        1 BH5      0.082500
     46 H19        -0.3850    8.7630   -2.8560 hc        1 BH5      0.069500
     47 H20         1.0480    9.7310   -2.3410 hc        1 BH5      0.069500
     48 H21        -1.7240    9.7330   -0.9590 hc        1 BH5      0.080000
     49 H22        -0.2910   10.7010   -0.4410 hc        1 BH5      0.080000
     50 H23        -1.6830   10.8730   -3.2040 hc        1 BH5      0.073500
     51 H24        -0.2510   11.8420   -2.6870 hc        1 BH5      0.073500
     52 H25        -1.5920   12.8080   -0.7860 hc        1 BH5      0.079000
     53 H26        -3.0240   11.8400   -1.3060 hc        1 BH5      0.079000
     54 H27        -1.5500   13.9520   -3.0300 hc        1 BH5      0.075000
     55 H28        -2.9820   12.9830   -3.5500 hc        1 BH5      0.075000
     56 H29        -2.8930   14.9150   -1.1290 hc        1 BH5      0.079000
     57 H30        -4.3240   13.9480   -1.6510 hc        1 BH5      0.079000
     58 H31        -4.2800   15.0930   -3.8940 hc        1 BH5      0.076500
     59 H32        -2.8480   16.0600   -3.3720 hc        1 BH5      0.076500
     60 H33        -4.1910   17.0230   -1.4710 hc        1 BH5      0.078500
     61 H34        -5.6230   16.0570   -1.9940 hc        1 BH5      0.078500
     62 H35        -4.1470   18.1690   -3.7140 hc        1 BH5      0.077000
     63 H36        -5.5790   17.2030   -4.2360 hc        1 BH5      0.077000
     64 H37        -6.9200   18.1640   -2.3360 hc        1 BH5      0.077500
     65 H38        -5.4890   19.1300   -1.8130 hc        1 BH5      0.077500
     66 H39        -5.4650   20.3050   -4.0400 hc        1 BH5      0.068000
     67 H40        -6.9010   19.3360   -4.5640 hc        1 BH5      0.068000
     68 H41        -7.0520   20.5050   -3.1890 hc        1 BH5      0.068000
@<TRIPOS>BOND
     1    1    2 1   
     2    2    3 1   
     3    2    4 1   
     4    2    5 1   
     5    4   13 1   
     6    5   10 1   
     7    5   11 1   
     8    6    7 1   
     9    6    8 1   
    10    6    9 1   
    11   10   32 1   
    12   11   12 1   
    13   11   33 1   
    14   11   34 1   
    15   12   13 1   
    16   12   14 1   
    17   13   16 1   
    18   13   35 1   
    19   14   15 1   
    20   14   36 1   
    21   15   16 1   
    22   15   37 1   
    23   16   17 1   
    24   17   18 1   
    25   17   38 1   
    26   17   39 1   
    27   18   19 1   
    28   18   40 1   
    29   18   41 1   
    30   19   20 1   
    31   19   42 1   
    32   19   43 1   
    33   20   21 1   
    34   20   44 1   
    35   20   45 1   
    36   21   22 1   
    37   21   46 1   
    38   21   47 1   
    39   22   23 1   
    40   22   48 1   
    41   22   49 1   
    42   23   24 1   
    43   23   50 1   
    44   23   51 1   
    45   24   25 1   
    46   24   52 1   
    47   24   53 1   
    48   25   26 1   
    49   25   54 1   
    50   25   55 1   
    51   26   27 1   
    52   26   56 1   
    53   26   57 1   
    54   27   28 1   
    55   27   58 1   
    56   27   59 1   
    57   28   29 1   
    58   28   60 1   
    59   28   61 1   
    60   29   30 1   
    61   29   62 1   
    62   29   63 1   
    63   30   31 1   
    64   30   64 1   
    65   30   65 1   
    66   31   66 1   
    67   31   67 1   
    68   31   68 1   
@<TRIPOS>SUBSTRUCTURE
     1 BH5         1 TEMP              0 ****  ****    0 ROOT
