@<TRIPOS>MOLECULE
BH7
   50    51     1     0     0
SMALL
bcc


@<TRIPOS>ATOM
      1 N1         -4.4380   -2.9610   -4.8120 n         1 BH7     -0.512900
      2 C2         -3.1130   -3.0410   -4.7550 c3        1 BH7      0.054700
      3 C3         -2.7460   -3.6460   -3.2810 c3        1 BH7      0.060700
      4 N4         -3.7100   -3.2380   -2.4450 n         1 BH7     -0.515900
      5 C5         -4.9350   -2.9060   -3.3310 c         1 BH7      0.748500
      6 C6         -2.5430   -1.6850   -4.8100 c3        1 BH7     -0.046300
      7 S7         -1.2640   -1.6960   -3.7460 ss        1 BH7     -0.284200
      8 C8         -1.4130   -3.1190   -2.9160 c3        1 BH7     -0.009600
      9 O9         -5.9770   -2.4440   -2.9520 o         1 BH7     -0.614500
     10 C10        -1.3410   -2.8520   -1.3630 c3        1 BH7     -0.072400
     11 C11         0.1150   -2.9030   -0.9030 c3        1 BH7     -0.082400
     12 C12         0.2090   -2.4300    0.5760 c3        1 BH7     -0.075400
     13 C13         1.6440   -1.9130    0.8640 c3        1 BH7     -0.157400
     14 C14         1.6260   -1.0110    2.1230 c         1 BH7      0.650100
     15 O15         1.0110   -1.3660    3.1200 o         1 BH7     -0.617100
     16 N16         2.4200    0.1960    2.1570 n         1 BH7     -0.558900
     17 C17         2.1980    1.1720    3.1920 c3        1 BH7      0.078000
     18 C18         2.9100    2.4600    2.8330 c3        1 BH7     -0.100400
     19 C19         2.2310    3.6480    3.5690 c3        1 BH7     -0.077400
     20 C20         2.6250    4.9730    2.8820 c3        1 BH7     -0.066400
     21 C21         1.7460    6.1150    3.4290 c3        1 BH7     -0.195400
     22 C22         1.7930    7.3040    2.4640 c         1 BH7      0.908600
     23 O23         2.7490    8.1160    2.5160 o         1 BH7     -0.851800
     24 O24         0.8410    7.5030    1.6610 o         1 BH7     -0.851800
     25 HN1        -4.9290   -2.7660   -5.5460 hn        1 BH7      0.309500
     26 H21A       -2.7590   -3.6060   -5.4690 h1        1 BH7      0.086700
     27 H31        -2.7230   -4.6280   -3.3160 h1        1 BH7      0.086700
     28 HN4        -3.7150   -3.3440   -1.5380 hn        1 BH7      0.319500
     29 H61        -2.2310   -1.4870   -5.7090 h1        1 BH7      0.081200
     30 H62        -3.2170   -1.0200   -4.5270 h1        1 BH7      0.081200
     31 H81        -0.7180   -3.7410   -3.1850 h1        1 BH7      0.082700
     32 H10        -1.8580   -3.5380   -0.8890 hc        1 BH7      0.058200
     33 H11        -1.7080   -1.9820   -1.1700 hc        1 BH7      0.058200
     34 H12         0.4520   -3.8350   -0.9740 hc        1 BH7      0.050200
     35 H13         0.6580   -2.3140   -1.4700 hc        1 BH7      0.050200
     36 H14         0.0060   -3.1810    1.1740 hc        1 BH7      0.051700
     37 H15        -0.4320   -1.7100    0.7300 hc        1 BH7      0.051700
     38 H16         2.2400   -2.6740    1.0160 hc        1 BH7      0.066200
     39 H17         1.9650   -1.3950    0.0950 hc        1 BH7      0.066200
     40 H18         3.0950    0.3070    1.5710 hn        1 BH7      0.302500
     41 H19         1.2370    1.3440    3.2780 h1        1 BH7      0.057700
     42 H20         2.5460    0.8330    4.0400 h1        1 BH7      0.057700
     43 H21         2.8580    2.6020    1.8630 hc        1 BH7      0.041200
     44 H22         3.8500    2.4000    3.1050 hc        1 BH7      0.041200
     45 H23         1.2600    3.5400    3.5350 hc        1 BH7      0.031200
     46 H24         2.5280    3.6640    4.5070 hc        1 BH7      0.031200
     47 H25         3.5650    5.1680    3.0650 hc        1 BH7      0.045200
     48 H26         2.4910    4.8930    1.9220 hc        1 BH7      0.045200
     49 H27         0.8190    5.8010    3.5170 hc        1 BH7      0.020200
     50 H28         2.0810    6.3930    4.3060 hc        1 BH7      0.020200
@<TRIPOS>BOND
     1    1    2 1   
     2    1    5 1   
     3    1   25 1   
     4    2    3 1   
     5    2    6 1   
     6    2   26 1   
     7    3    4 1   
     8    3    8 1   
     9    3   27 1   
    10    4    5 1   
    11    4   28 1   
    12    5    9 2   
    13    6    7 1   
    14    6   29 1   
    15    6   30 1   
    16    7    8 1   
    17    8   10 1   
    18    8   31 1   
    19   10   11 1   
    20   10   32 1   
    21   10   33 1   
    22   11   12 1   
    23   11   34 1   
    24   11   35 1   
    25   12   13 1   
    26   12   36 1   
    27   12   37 1   
    28   13   14 1   
    29   13   38 1   
    30   13   39 1   
    31   14   15 2   
    32   14   16 1   
    33   16   17 1   
    34   16   40 1   
    35   17   18 1   
    36   17   41 1   
    37   17   42 1   
    38   18   19 1   
    39   18   43 1   
    40   18   44 1   
    41   19   20 1   
    42   19   45 1   
    43   19   46 1   
    44   20   21 1   
    45   20   47 1   
    46   20   48 1   
    47   21   22 1   
    48   21   49 1   
    49   21   50 1   
    50   22   23 1   
    51   22   24 1   
@<TRIPOS>SUBSTRUCTURE
     1 BH7         1 TEMP              0 ****  ****    0 ROOT
