@<TRIPOS>MOLECULE
BH7
   51    52     1     0     0
SMALL
bcc


@<TRIPOS>ATOM
      1 N1          1.6930   -0.4880    0.2300 ns        1 BH7     -0.514900
      2 C2          2.9060    0.2070    0.6490 c3        1 BH7      0.058700
      3 C3          2.7560    0.3790    2.2280 c3        1 BH7      0.061700
      4 N4          1.4570   -0.1990    2.5450 ns        1 BH7     -0.518900
      5 C5          0.7900   -0.5510    1.3340 c         1 BH7      0.750500
      6 C6          3.1630    1.5620    0.0010 c3        1 BH7     -0.043300
      7 S7          2.7600    2.8390    1.1510 ss        1 BH7     -0.293200
      8 C8          3.0080    1.8400    2.6090 c3        1 BH7     -0.011600
      9 O9         -0.3840   -0.9520    1.2660 o         1 BH7     -0.614500
     10 C10         2.1630    2.3700    3.7430 c3        1 BH7     -0.070400
     11 C11         2.6820    3.7100    4.2290 c3        1 BH7     -0.083400
     12 C12         1.7820    4.2730    5.3080 c3        1 BH7     -0.077400
     13 C13         2.3370    5.5860    5.8200 c3        1 BH7     -0.165400
     14 C14         1.3990    6.2120    6.8180 c         1 BH7      0.553100
     15 O15         0.1790    6.0770    6.8650 o         1 BH7     -0.478100
     16 N16         2.0620    7.0810    7.8140 ny        1 BH7     -0.719800
     17 C17         1.1770    7.7330    8.8100 c3        1 BH7      0.129800
     18 C18         1.9020    8.8260    9.5940 c3        1 BH7     -0.108400
     19 C19         2.8740    8.2930   10.6330 c3        1 BH7     -0.087400
     20 C20         4.1610    9.1030   10.6910 c3        1 BH7     -0.060400
     21 C21         5.2900    8.5180    9.8590 c3        1 BH7     -0.168400
     22 C22         4.7560    7.9140    8.5790 c         1 BH7      0.905600
     23 O23         4.6530    6.6430    8.4740 o         1 BH7     -0.866300
     24 O24         4.2990    8.6530    7.6470 o         1 BH7     -0.866300
     25 HN1         1.2960   -0.2390   -0.6470 hn        1 BH7      0.314500
     26 H21A        3.7730   -0.4810    0.4380 h1        1 BH7      0.090700
     27 H31         3.5310   -0.2640    2.7370 h1        1 BH7      0.089700
     28 HN4         0.9020    0.2390    3.2430 hn        1 BH7      0.315500
     29 H61         4.2390    1.6370   -0.2900 h1        1 BH7      0.084700
     30 H62         2.5560    1.7250   -0.9240 h1        1 BH7      0.084700
     31 H81         4.0900    1.9260    2.9000 h1        1 BH7      0.085700
     32 H10         1.0960    2.4870    3.4130 hc        1 BH7      0.058200
     33 H11         2.1800    1.6370    4.5950 hc        1 BH7      0.058200
     34 H12         3.7240    3.5900    4.6300 hc        1 BH7      0.059200
     35 H13         2.7360    4.4260    3.3650 hc        1 BH7      0.059200
     36 H14         1.7000    3.5420    6.1550 hc        1 BH7      0.059700
     37 H15         0.7470    4.4310    4.9020 hc        1 BH7      0.059700
     38 H16         2.4580    6.3160    4.9710 hc        1 BH7      0.113200
     39 H17         3.3590    5.4290    6.2720 hc        1 BH7      0.113200
     40 H18         2.6410    7.8160    7.3130 hn        1 BH7      0.515800
     41 H19         0.3020    8.1800    8.2580 hx        1 BH7      0.081200
     42 H20         0.7870    6.9380    9.5050 hx        1 BH7      0.081200
     43 H21         1.1110    9.4410   10.0980 hc        1 BH7      0.080700
     44 H22         2.4490    9.5020    8.8760 hc        1 BH7      0.080700
     45 H23         2.3770    8.3210   11.6390 hc        1 BH7      0.047200
     46 H24         3.1290    7.2190   10.4290 hc        1 BH7      0.047200
     47 H25         4.5030    9.1600   11.7590 hc        1 BH7      0.040700
     48 H26         3.9600   10.1530   10.3530 hc        1 BH7      0.040700
     49 H27         5.8190    7.7190   10.4400 hc        1 BH7      0.056700
     50 H28         6.0290    9.3220    9.6130 hc        1 BH7      0.056700
     51 H162        2.8020    6.5120    8.3130 hn        1 BH7      0.515800
@<TRIPOS>BOND
     1    1    2 1   
     2    1    5 1   
     3    1   25 1   
     4    2    3 1   
     5    2    6 1   
     6    2   26 1   
     7    3    4 1   
     8    3    8 1   
     9    3   27 1   
    10    4    5 1   
    11    4   28 1   
    12    5    9 2   
    13    6    7 1   
    14    6   29 1   
    15    6   30 1   
    16    7    8 1   
    17    8   10 1   
    18    8   31 1   
    19   10   11 1   
    20   10   32 1   
    21   10   33 1   
    22   11   12 1   
    23   11   34 1   
    24   11   35 1   
    25   12   13 1   
    26   12   36 1   
    27   12   37 1   
    28   13   14 1   
    29   13   38 1   
    30   13   39 1   
    31   14   15 2   
    32   14   16 1   
    33   16   17 1   
    34   16   40 1   
    35   16   51 1   
    36   17   18 1   
    37   17   41 1   
    38   17   42 1   
    39   18   19 1   
    40   18   43 1   
    41   18   44 1   
    42   19   20 1   
    43   19   45 1   
    44   19   46 1   
    45   20   21 1   
    46   20   47 1   
    47   20   48 1   
    48   21   22 1   
    49   21   49 1   
    50   21   50 1   
    51   22   23 1   
    52   22   24 1   
@<TRIPOS>SUBSTRUCTURE
     1 BH7         1 TEMP              0 ****  ****    0 ROOT
