@<TRIPOS>MOLECULE
BH7
   50    51     1     0     0
SMALL
bcc


@<TRIPOS>ATOM
      1 N1         -0.3430   -0.2250   -8.0420 n         1 BH7     -0.511900
      2 C2          0.8170   -0.5670   -7.2230 c3        1 BH7      0.054700
      3 C3          0.2150   -1.2860   -5.9330 c3        1 BH7      0.061700
      4 N4         -1.2300   -1.2430   -6.1210 n         1 BH7     -0.516900
      5 C5         -1.5300   -0.4780   -7.2850 c         1 BH7      0.748500
      6 C6          1.7090    0.5940   -6.8010 c3        1 BH7     -0.046300
      7 S7          1.3880    0.9840   -5.1110 ss        1 BH7     -0.287200
      8 C8          0.7970   -0.6430   -4.6730 c3        1 BH7     -0.008600
      9 O9         -2.6760   -0.1640   -7.6510 o         1 BH7     -0.617500
     10 C10        -0.1430   -0.5530   -3.4940 c3        1 BH7     -0.072400
     11 C11         0.6030   -0.1820   -2.2260 c3        1 BH7     -0.082400
     12 C12        -0.3440   -0.1020   -1.0480 c3        1 BH7     -0.073400
     13 C13         0.3970    0.2820    0.2130 c3        1 BH7     -0.153400
     14 C14        -0.5330    0.2600    1.4180 c         1 BH7      0.650100
     15 O15        -1.7120   -0.1410    1.3260 o         1 BH7     -0.618100
     16 N16        -0.0170    0.7390    2.6020 n         1 BH7     -0.561900
     17 C17        -0.7100    0.6330    3.8610 c3        1 BH7      0.079000
     18 C18         0.1400    0.0360    4.9810 c3        1 BH7     -0.100400
     19 C19        -0.6080    0.0810    6.2970 c3        1 BH7     -0.077400
     20 C20         0.2510   -0.4490    7.4260 c3        1 BH7     -0.066400
     21 C21        -0.4570   -0.3830    8.7570 c3        1 BH7     -0.195400
     22 C22         0.5110   -0.6850    9.9160 c         1 BH7      0.908600
     23 O23         0.0920   -1.4240   10.8530 o         1 BH7     -0.851800
     24 O24         1.6660   -0.1690    9.8880 o         1 BH7     -0.851800
     25 HN1        -0.3190    0.6450   -8.5240 hn        1 BH7      0.308500
     26 H21A        1.4250   -1.3150   -7.8060 h1        1 BH7      0.086700
     27 H31         0.5120   -2.3740   -5.9520 h1        1 BH7      0.086700
     28 HN4        -1.8050   -1.0870   -5.3250 hn        1 BH7      0.321500
     29 H61         1.5380    1.5170   -7.4080 h1        1 BH7      0.080700
     30 H62         2.7800    0.3050   -6.9300 h1        1 BH7      0.080700
     31 H81         1.6900   -1.2560   -4.3700 h1        1 BH7      0.082700
     32 H10        -0.6480   -1.5460   -3.3450 hc        1 BH7      0.058700
     33 H11        -0.9410    0.2120   -3.6860 hc        1 BH7      0.058700
     34 H12         1.1170    0.8050   -2.3720 hc        1 BH7      0.046700
     35 H13         1.3980   -0.9450   -2.0180 hc        1 BH7      0.046700
     36 H14        -0.8560   -1.0890   -0.8940 hc        1 BH7      0.061200
     37 H15        -1.1510    0.6520   -1.2500 hc        1 BH7      0.061200
     38 H16         0.8420    1.3040    0.0960 hc        1 BH7      0.059700
     39 H17         1.2360   -0.4400    0.3980 hc        1 BH7      0.059700
     40 H18         0.9540    0.9430    2.6460 hn        1 BH7      0.301500
     41 H19        -1.6390    0.0100    3.7190 h1        1 BH7      0.058200
     42 H20        -1.0360    1.6710    4.1640 h1        1 BH7      0.058200
     43 H21         1.1020    0.6060    5.0860 hc        1 BH7      0.040700
     44 H22         0.4060   -1.0260    4.7380 hc        1 BH7      0.040700
     45 H23        -1.5480   -0.5250    6.2170 hc        1 BH7      0.031700
     46 H24        -0.9120    1.1370    6.5210 hc        1 BH7      0.031700
     47 H25         1.2020    0.1450    7.4990 hc        1 BH7      0.045200
     48 H26         0.5400   -1.5100    7.2090 hc        1 BH7      0.045200
     49 H27        -1.3080   -1.1070    8.7850 hc        1 BH7      0.020200
     50 H28        -0.8730    0.6440    8.9200 hc        1 BH7      0.020200
@<TRIPOS>BOND
     1    1    2 1   
     2    1    5 1   
     3    1   25 1   
     4    2    3 1   
     5    2    6 1   
     6    2   26 1   
     7    3    4 1   
     8    3    8 1   
     9    3   27 1   
    10    4    5 1   
    11    4   28 1   
    12    5    9 2   
    13    6    7 1   
    14    6   29 1   
    15    6   30 1   
    16    7    8 1   
    17    8   10 1   
    18    8   31 1   
    19   10   11 1   
    20   10   32 1   
    21   10   33 1   
    22   11   12 1   
    23   11   34 1   
    24   11   35 1   
    25   12   13 1   
    26   12   36 1   
    27   12   37 1   
    28   13   14 1   
    29   13   38 1   
    30   13   39 1   
    31   14   15 2   
    32   14   16 1   
    33   16   17 1   
    34   16   40 1   
    35   17   18 1   
    36   17   41 1   
    37   17   42 1   
    38   18   19 1   
    39   18   43 1   
    40   18   44 1   
    41   19   20 1   
    42   19   45 1   
    43   19   46 1   
    44   20   21 1   
    45   20   47 1   
    46   20   48 1   
    47   21   22 1   
    48   21   49 1   
    49   21   50 1   
    50   22   23 1   
    51   22   24 1   
@<TRIPOS>SUBSTRUCTURE
     1 BH7         1 TEMP              0 ****  ****    0 ROOT
