@<TRIPOS>MOLECULE
BH7
   51    52     1     0     0
SMALL
bcc


@<TRIPOS>ATOM
      1 N1          1.7330   -0.5360    0.2690 n         1 BH7     -0.514900
      2 C2          2.8270    0.4100    0.4690 c3        1 BH7      0.058700
      3 C3          2.9770    0.5350    2.0520 c3        1 BH7      0.061700
      4 N4          1.9290   -0.3180    2.5960 n         1 BH7     -0.518900
      5 C5          1.1160   -0.8030    1.5280 c         1 BH7      0.750500
      6 C6          2.6430    1.7910   -0.1470 c3        1 BH7     -0.043300
      7 S7          2.2240    2.9410    1.1250 ss        1 BH7     -0.293200
      8 C8          2.9810    2.0130    2.4500 c3        1 BH7     -0.011600
      9 O9          0.0690   -1.4550    1.6790 o         1 BH7     -0.614500
     10 C10         2.2970    2.3360    3.7570 c3        1 BH7     -0.070400
     11 C11         2.6040    3.7550    4.1960 c3        1 BH7     -0.083400
     12 C12         1.8490    4.0990    5.4630 c3        1 BH7     -0.077400
     13 C13         2.2020    5.5000    5.9180 c3        1 BH7     -0.165400
     14 C14         1.3790    5.8960    7.1160 c         1 BH7      0.553100
     15 O15         0.2550    5.4930    7.4020 o         1 BH7     -0.478100
     16 N16         2.0310    6.8850    8.0020 n4        1 BH7     -0.719800
     17 C17         1.2540    7.3190    9.1880 c3        1 BH7      0.129800
     18 C18         1.8730    8.5410    9.8650 c3        1 BH7     -0.108400
     19 C19         3.1320    8.2310   10.6580 c3        1 BH7     -0.087400
     20 C20         4.1970    9.3060   10.4970 c3        1 BH7     -0.060400
     21 C21         5.2270    8.9900    9.4250 c3        1 BH7     -0.168400
     22 C22         4.5820    8.2900    8.2500 c         1 BH7      0.905600
     23 O23         4.7360    7.0290    8.1020 o         1 BH7     -0.866300
     24 O24         3.7920    8.9150    7.4680 o         1 BH7     -0.866300
     25 HN1         1.1180   -0.3760   -0.4950 hn        1 BH7      0.314500
     26 H21A        3.7590   -0.0670    0.0520 h1        1 BH7      0.090700
     27 H31         3.9610    0.0780    2.3600 h1        1 BH7      0.089700
     28 HN4         1.4510   -0.0180    3.4140 hn        1 BH7      0.315500
     29 H61         3.5930    2.1050   -0.6460 h1        1 BH7      0.084700
     30 H62         1.8370    1.8200   -0.9190 h1        1 BH7      0.084700
     31 H81         4.0550    2.3360    2.5190 h1        1 BH7      0.085700
     32 H10         1.1850    2.2160    3.6560 hc        1 BH7      0.058200
     33 H11         2.6500    1.6210    4.5490 hc        1 BH7      0.058200
     34 H12         3.7070    3.8680    4.3710 hc        1 BH7      0.059200
     35 H13         2.3200    4.4700    3.3770 hc        1 BH7      0.059200
     36 H14         0.7430    4.0250    5.2840 hc        1 BH7      0.059700
     37 H15         2.1060    3.3640    6.2700 hc        1 BH7      0.059700
     38 H16         3.3040    5.5710    6.1460 hc        1 BH7      0.113200
     39 H17         1.9830    6.2430    5.1010 hc        1 BH7      0.113200
     40 H18         2.9650    6.4920    8.3110 hn        1 BH7      0.515800
     41 H19         1.1980    6.4540    9.9060 hx        1 BH7      0.081200
     42 H20         0.2080    7.5640    8.8480 hx        1 BH7      0.081200
     43 H21         1.0910    8.9630   10.5490 hc        1 BH7      0.080700
     44 H22         2.1000    9.3250    9.0870 hc        1 BH7      0.080700
     45 H23         3.5640    7.2410   10.3510 hc        1 BH7      0.047200
     46 H24         2.8610    8.1430   11.7430 hc        1 BH7      0.047200
     47 H25         3.7080   10.2870   10.2610 hc        1 BH7      0.040700
     48 H26         4.7330    9.4320   11.4750 hc        1 BH7      0.040700
     49 H27         5.7080    9.9390    9.0760 hc        1 BH7      0.056700
     50 H28         6.0250    8.3250    9.8460 hc        1 BH7      0.056700
     51 H162        2.3220    7.7320    7.4330 hn        1 BH7      0.515800
@<TRIPOS>BOND
     1    1    2 1   
     2    1    5 1   
     3    1   25 1   
     4    2    3 1   
     5    2    6 1   
     6    2   26 1   
     7    3    4 1   
     8    3    8 1   
     9    3   27 1   
    10    4    5 1   
    11    4   28 1   
    12    5    9 2   
    13    6    7 1   
    14    6   29 1   
    15    6   30 1   
    16    7    8 1   
    17    8   10 1   
    18    8   31 1   
    19   10   11 1   
    20   10   32 1   
    21   10   33 1   
    22   11   12 1   
    23   11   34 1   
    24   11   35 1   
    25   12   13 1   
    26   12   36 1   
    27   12   37 1   
    28   13   14 1   
    29   13   38 1   
    30   13   39 1   
    31   14   15 2   
    32   14   16 1   
    33   16   17 1   
    34   16   40 1   
    35   16   51 1   
    36   17   18 1   
    37   17   41 1   
    38   17   42 1   
    39   18   19 1   
    40   18   43 1   
    41   18   44 1   
    42   19   20 1   
    43   19   45 1   
    44   19   46 1   
    45   20   21 1   
    46   20   47 1   
    47   20   48 1   
    48   21   22 1   
    49   21   49 1   
    50   21   50 1   
    51   22   23 1   
    52   22   24 1   
@<TRIPOS>SUBSTRUCTURE
     1 BH7         1 TEMP              0 ****  ****    0 ROOT
