@<TRIPOS>MOLECULE
BH7
   51    52     1     0     0
SMALL
bcc


@<TRIPOS>ATOM
      1 N1          1.6830   -0.5090    0.2490 n         1 BH7     -0.514900
      2 C2          2.7100    0.5210    0.3740 c3        1 BH7      0.058700
      3 C3          2.9930    0.6310    1.9400 c3        1 BH7      0.061700
      4 N4          2.0720   -0.3160    2.5540 n         1 BH7     -0.518900
      5 C5          1.2060   -0.8480    1.5520 c         1 BH7      0.750500
      6 C6          2.3590    1.8920   -0.1900 c3        1 BH7     -0.043300
      7 S7          1.9660    2.9810    1.1430 ss        1 BH7     -0.293200
      8 C8          2.9130    2.0970    2.3710 c3        1 BH7     -0.011600
      9 O9          0.2340   -1.5870    1.7810 o         1 BH7     -0.614500
     10 C10         2.3280    2.3400    3.7420 c3        1 BH7     -0.070400
     11 C11         2.5580    3.7720    4.1860 c3        1 BH7     -0.083400
     12 C12         1.8950    4.0320    5.5220 c3        1 BH7     -0.077400
     13 C13         2.1720    5.4490    5.9780 c3        1 BH7     -0.165400
     14 C14         1.4320    5.7570    7.2530 c         1 BH7      0.553100
     15 O15         0.3780    5.2530    7.6310 o         1 BH7     -0.478100
     16 N16         2.0740    6.7880    8.0960 n4        1 BH7     -0.719800
     17 C17         1.3740    7.1380    9.3560 c3        1 BH7      0.129800
     18 C18         1.9440    8.4020    9.9980 c3        1 BH7     -0.108400
     19 C19         3.2910    8.1950   10.6690 c3        1 BH7     -0.087400
     20 C20         4.2400    9.3610   10.4350 c3        1 BH7     -0.060400
     21 C21         5.1920    9.1500    9.2680 c3        1 BH7     -0.168400
     22 C22         4.5060    8.4090    8.1430 c         1 BH7      0.905600
     23 O23         4.7540    7.1680    7.9580 o         1 BH7     -0.866300
     24 O24         3.5980    8.9710    7.4470 o         1 BH7     -0.866300
     25 HN1         0.9890   -0.3880   -0.4530 hn        1 BH7      0.314500
     26 H21A        3.6350    0.1300   -0.1370 h1        1 BH7      0.090700
     27 H31         4.0350    0.2520    2.1470 h1        1 BH7      0.089700
     28 HN4         1.6470   -0.0700    3.4180 hn        1 BH7      0.315500
     29 H61         1.4850    1.8670   -0.8850 h1        1 BH7      0.084700
     30 H62         3.2310    2.2920   -0.7630 h1        1 BH7      0.084700
     31 H81         3.9590    2.5070    2.3510 h1        1 BH7      0.085700
     32 H10         2.8090    1.6440    4.4820 hc        1 BH7      0.058200
     33 H11         1.2250    2.1300    3.7380 hc        1 BH7      0.058200
     34 H12         3.6590    3.9730    4.2650 hc        1 BH7      0.059200
     35 H13         2.1440    4.4750    3.4130 hc        1 BH7      0.059200
     36 H14         2.2830    3.3070    6.2860 hc        1 BH7      0.059700
     37 H15         0.7870    3.8690    5.4410 hc        1 BH7      0.059700
     38 H16         1.8210    6.1840    5.2010 hc        1 BH7      0.113200
     39 H17         3.2810    5.6080    6.1090 hc        1 BH7      0.113200
     40 H18         2.2370    7.6650    7.5200 hn        1 BH7      0.515800
     41 H19         1.4580    6.2630   10.0580 hx        1 BH7      0.081200
     42 H20         0.2840    7.2940    9.1150 hx        1 BH7      0.081200
     43 H21         2.0300    9.2120    9.2190 hc        1 BH7      0.080700
     44 H22         1.1930    8.7460   10.7570 hc        1 BH7      0.080700
     45 H23         3.1280    8.0700   11.7730 hc        1 BH7      0.047200
     46 H24         3.7780    7.2500   10.3050 hc        1 BH7      0.047200
     47 H25         3.6490   10.2980   10.2630 hc        1 BH7      0.040700
     48 H26         4.8500    9.5210   11.3630 hc        1 BH7      0.040700
     49 H27         5.5540   10.1420    8.8970 hc        1 BH7      0.056700
     50 H28         6.0790    8.5530    9.6030 hc        1 BH7      0.056700
     51 H162        3.0620    6.4750    8.3130 hn        1 BH7      0.515800
@<TRIPOS>BOND
     1    1    2 1   
     2    1    5 1   
     3    1   25 1   
     4    2    3 1   
     5    2    6 1   
     6    2   26 1   
     7    3    4 1   
     8    3    8 1   
     9    3   27 1   
    10    4    5 1   
    11    4   28 1   
    12    5    9 2   
    13    6    7 1   
    14    6   29 1   
    15    6   30 1   
    16    7    8 1   
    17    8   10 1   
    18    8   31 1   
    19   10   11 1   
    20   10   32 1   
    21   10   33 1   
    22   11   12 1   
    23   11   34 1   
    24   11   35 1   
    25   12   13 1   
    26   12   36 1   
    27   12   37 1   
    28   13   14 1   
    29   13   38 1   
    30   13   39 1   
    31   14   15 2   
    32   14   16 1   
    33   16   17 1   
    34   16   40 1   
    35   16   51 1   
    36   17   18 1   
    37   17   41 1   
    38   17   42 1   
    39   18   19 1   
    40   18   43 1   
    41   18   44 1   
    42   19   20 1   
    43   19   45 1   
    44   19   46 1   
    45   20   21 1   
    46   20   47 1   
    47   20   48 1   
    48   21   22 1   
    49   21   49 1   
    50   21   50 1   
    51   22   23 1   
    52   22   24 1   
@<TRIPOS>SUBSTRUCTURE
     1 BH7         1 TEMP              0 ****  ****    0 ROOT
