@<TRIPOS>MOLECULE
BH8
   52    52     1     0     0
SMALL
bcc


@<TRIPOS>ATOM
      1 OAD         2.4190   -3.4920   -0.6410 o         1 BH8     -0.920000
      2 PAX         2.4430   -2.1170   -0.0490 p5        1 BH8      2.152000
      3 OAE         2.1330   -2.0220    1.4000 o         1 BH8     -0.920000
      4 OAB         4.1970   -1.8940    0.0520 os        1 BH8     -0.756000
      5 CAU         2.0780   -0.9300   -1.0600 c2        1 BH8     -1.486000
      6 PAY         0.2180    0.1460   -1.6120 p3        1 BH8      2.569000
      7 OAF        -0.8440   -0.9010   -1.5610 o         1 BH8     -1.227000
      8 OAG         0.1100    1.2600   -0.6200 o         1 BH8     -1.227000
      9 OAC         0.6440    0.5770   -2.9820 o         1 BH8     -1.227000
     10 CAT         2.7850    0.3360   -0.7820 c3        1 BH8      0.020000
     11 NAW         4.2420    0.3420   -1.0180 n3        1 BH8     -0.265000
     12 CAJ         4.9540   -0.8710   -0.4350 c3        1 BH8      0.262000
     13 CAI         4.6890    0.4190   -2.3540 c2        1 BH8     -0.079000
     14 CAH         5.6860   -0.4820   -2.6280 c2        1 BH8     -0.269000
     15 NAV         5.9910   -1.3060   -1.4960 n3        1 BH8     -0.254000
     16 CAS         6.0760   -2.7240   -1.7650 c3        1 BH8     -0.035000
     17 CAR         4.9280   -3.3720   -2.5310 c3        1 BH8     -0.222000
     18 CAQ         5.0860   -4.8760   -2.6150 c3        1 BH8     -0.114000
     19 CAP         3.7260   -5.5320   -2.7300 c3        1 BH8     -0.203000
     20 CAO         3.8150   -7.0380   -2.6180 c3        1 BH8     -0.138000
     21 CAN         2.4370   -7.6630   -2.6730 c3        1 BH8     -0.165000
     22 CAM         2.4970   -9.1650   -2.4940 c3        1 BH8     -0.153000
     23 CAL         1.1160   -9.7830   -2.5500 c3        1 BH8     -0.161000
     24 CAK         1.1690  -11.2840   -2.3580 c3        1 BH8     -0.158000
     25 CAA        -0.2050  -11.9000   -2.4160 c3        1 BH8     -0.207000
     26 H3          2.0530   -1.2200   -2.1230 ha        1 BH8      0.136000
     27 H6          2.6920    0.5640    0.3230 h1        1 BH8      0.090000
     28 H7          2.3680    1.2050   -1.3690 h1        1 BH8      0.090000
     29 H8          5.6080   -0.4640    0.4030 h3        1 BH8      0.046000
     30 H9          4.2460    1.1570   -3.0270 h4        1 BH8      0.141000
     31 H10         6.2400   -0.6100   -3.5560 h4        1 BH8      0.103000
     32 H11         6.1580   -3.2310   -0.7620 h1        1 BH8      0.044000
     33 H12         7.0390   -2.9000   -2.3310 h1        1 BH8      0.044000
     34 H13         3.9630   -3.1340   -1.9700 hc        1 BH8      0.129500
     35 H14         4.8490   -2.9360   -3.5580 hc        1 BH8      0.129500
     36 H15         5.7340   -5.1630   -3.4860 hc        1 BH8      0.028500
     37 H16         5.5980   -5.2550   -1.6910 hc        1 BH8      0.028500
     38 H17         3.0610   -5.1040   -1.9100 hc        1 BH8      0.139500
     39 H18         3.2560   -5.2550   -3.7080 hc        1 BH8      0.139500
     40 H19         4.4520   -7.4570   -3.4420 hc        1 BH8      0.045500
     41 H20         4.3100   -7.3110   -1.6480 hc        1 BH8      0.045500
     42 H21         1.9540   -7.4200   -3.6550 hc        1 BH8      0.095500
     43 H22         1.7980   -7.2050   -1.8700 hc        1 BH8      0.095500
     44 H23         2.9750   -9.4050   -1.5070 hc        1 BH8      0.061000
     45 H24         3.1440   -9.6180   -3.2910 hc        1 BH8      0.061000
     46 H25         0.4710   -9.3220   -1.7560 hc        1 BH8      0.084000
     47 H26         0.6400   -9.5470   -3.5380 hc        1 BH8      0.084000
     48 H27         1.6430  -11.5150   -1.3670 hc        1 BH8      0.067500
     49 H28         1.8200  -11.7400   -3.1490 hc        1 BH8      0.067500
     50 H29        -0.1470  -13.0050   -2.2670 hc        1 BH8      0.062333
     51 H30        -0.8610  -11.4700   -1.6200 hc        1 BH8      0.062333
     52 H31        -0.6840  -11.7010   -3.4050 hc        1 BH8      0.062333
@<TRIPOS>BOND
     1    1    2 1   
     2    2    3 1   
     3    2    4 1   
     4    2    5 1   
     5    4   12 1   
     6    5   10 1   
     7    5   26 1   
     8    6    7 1   
     9    6    8 1   
    10    6    9 1   
    11   10   11 1   
    12   10   27 1   
    13   10   28 1   
    14   11   12 1   
    15   11   13 1   
    16   12   15 1   
    17   12   29 1   
    18   13   14 1   
    19   13   30 1   
    20   14   15 1   
    21   14   31 1   
    22   15   16 1   
    23   16   17 1   
    24   16   32 1   
    25   16   33 1   
    26   17   18 1   
    27   17   34 1   
    28   17   35 1   
    29   18   19 1   
    30   18   36 1   
    31   18   37 1   
    32   19   20 1   
    33   19   38 1   
    34   19   39 1   
    35   20   21 1   
    36   20   40 1   
    37   20   41 1   
    38   21   22 1   
    39   21   42 1   
    40   21   43 1   
    41   22   23 1   
    42   22   44 1   
    43   22   45 1   
    44   23   24 1   
    45   23   46 1   
    46   23   47 1   
    47   24   25 1   
    48   24   48 1   
    49   24   49 1   
    50   25   50 1   
    51   25   51 1   
    52   25   52 1   
@<TRIPOS>SUBSTRUCTURE
     1 BH8         1 TEMP              0 ****  ****    0 ROOT
