@<TRIPOS>MOLECULE
BH8
   52    52     1     0     0
SMALL
bcc


@<TRIPOS>ATOM
      1 OAD         2.4210   -3.5010   -0.6330 o         1 BH8     -0.920000
      2 PAX         2.4490   -2.1320   -0.0280 p5        1 BH8      2.152000
      3 OAE         2.1350   -2.0490    1.4210 o         1 BH8     -0.920000
      4 OAB         4.2050   -1.9190    0.0810 os        1 BH8     -0.756000
      5 CAU         2.0930   -0.9340   -1.0290 c2        1 BH8     -1.486000
      6 PAY         0.2400    0.1560   -1.5770 p3        1 BH8      2.569000
      7 OAF        -0.8270   -0.8860   -1.5390 o         1 BH8     -1.227000
      8 OAG         0.1340    1.2610   -0.5750 o         1 BH8     -1.227000
      9 OAC         0.6720    0.5980   -2.9420 o         1 BH8     -1.227000
     10 CAT         2.8050    0.3260   -0.7370 c3        1 BH8      0.020000
     11 NAW         4.2630    0.3270   -0.9690 n3        1 BH8     -0.265000
     12 CAJ         4.9670   -0.8950   -0.3950 c3        1 BH8      0.262000
     13 CAI         4.7140    0.4140   -2.3020 c2        1 BH8     -0.079000
     14 CAH         5.7080   -0.4890   -2.5820 c2        1 BH8     -0.269000
     15 NAV         6.0060   -1.3250   -1.4570 n3        1 BH8     -0.254000
     16 CAS         6.0840   -2.7400   -1.7390 c3        1 BH8     -0.035000
     17 CAR         4.9360   -3.3760   -2.5140 c3        1 BH8     -0.222000
     18 CAQ         5.0870   -4.8790   -2.6110 c3        1 BH8     -0.114000
     19 CAP         3.7240   -5.5280   -2.7360 c3        1 BH8     -0.203000
     20 CAO         3.8050   -7.0350   -2.6380 c3        1 BH8     -0.138000
     21 CAN         2.4250   -7.6540   -2.7010 c3        1 BH8     -0.165000
     22 CAM         2.4780   -9.1580   -2.5360 c3        1 BH8     -0.153000
     23 CAL         1.0940   -9.7680   -2.6010 c3        1 BH8     -0.161000
     24 CAK         1.1390  -11.2710   -2.4220 c3        1 BH8     -0.158000
     25 CAA        -0.2380  -11.8800   -2.4870 c3        1 BH8     -0.207000
     26 H3          2.0700   -1.2140   -2.0950 ha        1 BH8      0.136000
     27 H6          2.7100    0.5440    0.3700 h1        1 BH8      0.090000
     28 H7          2.3940    1.2030   -1.3170 h1        1 BH8      0.090000
     29 H8          5.6210   -0.4990    0.4490 h3        1 BH8      0.046000
     30 H9          4.2770    1.1610   -2.9690 h4        1 BH8      0.141000
     31 H10         6.2640   -0.6110   -3.5090 h4        1 BH8      0.103000
     32 H11         7.0480   -2.9160   -2.3040 h1        1 BH8      0.044000
     33 H12         6.1610   -3.2580   -0.7400 h1        1 BH8      0.044000
     34 H13         4.8620   -2.9300   -3.5370 hc        1 BH8      0.129500
     35 H14         3.9700   -3.1380   -1.9540 hc        1 BH8      0.129500
     36 H15         5.7360   -5.1610   -3.4840 hc        1 BH8      0.028500
     37 H16         5.5940   -5.2700   -1.6900 hc        1 BH8      0.028500
     38 H17         3.0580   -5.1050   -1.9150 hc        1 BH8      0.139500
     39 H18         3.2580   -5.2400   -3.7140 hc        1 BH8      0.139500
     40 H19         4.2970   -7.3200   -1.6700 hc        1 BH8      0.045500
     41 H20         4.4420   -7.4500   -3.4650 hc        1 BH8      0.045500
     42 H21         1.7870   -7.2000   -1.8950 hc        1 BH8      0.095500
     43 H22         1.9450   -7.3990   -3.6830 hc        1 BH8      0.095500
     44 H23         2.9530   -9.4090   -1.5520 hc        1 BH8      0.061000
     45 H24         3.1230   -9.6050   -3.3380 hc        1 BH8      0.061000
     46 H25         0.4500   -9.3120   -1.8030 hc        1 BH8      0.084000
     47 H26         0.6200   -9.5210   -3.5870 hc        1 BH8      0.084000
     48 H27         1.7880  -11.7230   -3.2180 hc        1 BH8      0.067500
     49 H28         1.6110  -11.5140   -1.4340 hc        1 BH8      0.067500
     50 H29        -0.8920  -11.4550   -1.6880 hc        1 BH8      0.062333
     51 H30        -0.7150  -11.6690   -3.4750 hc        1 BH8      0.062333
     52 H31        -0.1860  -12.9870   -2.3500 hc        1 BH8      0.062333
@<TRIPOS>BOND
     1    1    2 1   
     2    2    3 1   
     3    2    4 1   
     4    2    5 1   
     5    4   12 1   
     6    5   10 1   
     7    5   26 1   
     8    6    7 1   
     9    6    8 1   
    10    6    9 1   
    11   10   11 1   
    12   10   27 1   
    13   10   28 1   
    14   11   12 1   
    15   11   13 1   
    16   12   15 1   
    17   12   29 1   
    18   13   14 1   
    19   13   30 1   
    20   14   15 1   
    21   14   31 1   
    22   15   16 1   
    23   16   17 1   
    24   16   32 1   
    25   16   33 1   
    26   17   18 1   
    27   17   34 1   
    28   17   35 1   
    29   18   19 1   
    30   18   36 1   
    31   18   37 1   
    32   19   20 1   
    33   19   38 1   
    34   19   39 1   
    35   20   21 1   
    36   20   40 1   
    37   20   41 1   
    38   21   22 1   
    39   21   42 1   
    40   21   43 1   
    41   22   23 1   
    42   22   44 1   
    43   22   45 1   
    44   23   24 1   
    45   23   46 1   
    46   23   47 1   
    47   24   25 1   
    48   24   48 1   
    49   24   49 1   
    50   25   50 1   
    51   25   51 1   
    52   25   52 1   
@<TRIPOS>SUBSTRUCTURE
     1 BH8         1 TEMP              0 ****  ****    0 ROOT
