@<TRIPOS>MOLECULE
BH9
   49    52     1     0     0
SMALL
bcc


@<TRIPOS>ATOM
      1 N1          1.5740    0.1800   -0.9460 na        1 BH9      0.001400
      2 C2          2.8660   -0.0700   -0.5070 cc        1 BH9     -0.093300
      3 C4          1.6360    1.0430    1.0350 cd        1 BH9      0.322200
      4 N5          0.8410    0.8380   -0.0430 nc        1 BH9     -0.485800
      5 C6          4.0780    0.4850    1.6790 cd        1 BH9      0.051000
      6 C7          3.9160    0.8330    3.0110 cc        1 BH9     -0.112300
      7 N8          5.0060    0.8420    3.8600 na        1 BH9      0.049700
      8 C9          6.3160    0.4920    3.3930 cc        1 BH9     -0.003300
      9 C10         6.4770    0.1280    2.0110 cc        1 BH9     -0.090000
     10 C11         5.3860    0.1290    1.1940 cd        1 BH9     -0.092000
     11 C12         5.1080    1.1450    5.2060 cc        1 BH9     -0.143100
     12 C13         6.4870    0.9690    5.5200 cd        1 BH9      0.036600
     13 C14         2.9550    0.4800    0.7940 cd        1 BH9     -0.259300
     14 N14         7.2310    0.5690    4.4020 nd        1 BH9     -0.269600
     15 N15         7.0780    1.1560    6.8290 n4        1 BH9     -0.508600
     16 C16         7.0340    2.6230    7.2660 c         1 BH9      0.592700
     17 C17         8.2340    3.4170    7.0500 ca        1 BH9     -0.217600
     18 C18         9.2320    3.0950    6.1160 ca        1 BH9     -0.057000
     19 C19        10.3390    3.9210    5.9770 ca        1 BH9     -0.139000
     20 C20        10.4860    5.0850    6.7550 ca        1 BH9      0.029700
     21 C21         9.4790    5.4030    7.6760 ca        1 BH9     -0.139000
     22 C22         8.3620    4.5870    7.8220 ca        1 BH9     -0.057000
     23 C27        11.7080    5.9450    6.5680 c3        1 BH9     -0.027700
     24 C28        11.7110    7.1580    7.4900 c3        1 BH9     -0.091767
     25 C32        12.9550    5.1140    6.8630 c3        1 BH9     -0.091767
     26 C36        11.7580    6.4380    5.1240 c3        1 BH9     -0.091767
     27 O47         5.9830    2.9420    7.8080 o         1 BH9     -0.447100
     28 H2          3.6000   -0.6010   -1.1140 h4        1 BH9      0.188000
     29 H4          1.2820    1.5710    1.9210 h4        1 BH9      0.048100
     30 H7          2.9430    1.1100    3.4510 h4        1 BH9      0.186000
     31 H10         7.4860   -0.1400    1.6630 ha        1 BH9      0.182000
     32 H11         5.4880   -0.1420    0.1300 ha        1 BH9      0.162000
     33 H12         4.2640    1.4550    5.8240 h4        1 BH9      0.217000
     34 HN15        8.0540    0.8290    6.8200 hn        1 BH9      0.468800
     35 H18         9.1520    2.2130    5.4610 ha        1 BH9      0.158000
     36 H19        11.1140    3.6600    5.2370 ha        1 BH9      0.166000
     37 H21         9.5510    6.3110    8.2990 ha        1 BH9      0.166000
     38 H22         7.5720    4.8550    8.5450 ha        1 BH9      0.158000
     39 H28        11.6970    6.8420    8.5610 hc        1 BH9      0.047478
     40 H28A       12.6390    7.7560    7.3140 hc        1 BH9      0.047478
     41 H28B       10.8310    7.8130    7.2860 hc        1 BH9      0.047478
     42 H32        13.8660    5.7460    6.7280 hc        1 BH9      0.047478
     43 H32A       13.0250    4.2410    6.1710 hc        1 BH9      0.047478
     44 H32B       12.9340    4.7400    7.9150 hc        1 BH9      0.047478
     45 H36        10.8490    7.0410    4.8870 hc        1 BH9      0.047478
     46 H36A       12.6590    7.0810    4.9790 hc        1 BH9      0.047478
     47 H36B       11.8170    5.5800    4.4120 hc        1 BH9      0.047478
     48 HN1         1.1760   -0.0760   -1.8230 hn        1 BH9      0.340700
     49 H152        6.5370    0.5930    7.4980 hn        1 BH9      0.468800
@<TRIPOS>BOND
     1    1    2 1   
     2    1    4 1   
     3    1   48 1   
     4    2   13 2   
     5    2   28 1   
     6    3    4 2   
     7    3   13 1   
     8    3   29 1   
     9    5    6 2   
    10    5   10 1   
    11    5   13 1   
    12    6    7 1   
    13    6   30 1   
    14    7    8 1   
    15    7   11 1   
    16    8    9 1   
    17    8   14 2   
    18    9   10 2   
    19    9   31 1   
    20   10   32 1   
    21   11   12 2   
    22   11   33 1   
    23   12   14 1   
    24   12   15 1   
    25   15   16 1   
    26   15   34 1   
    27   15   49 1   
    28   16   17 1   
    29   16   27 2   
    30   17   18 ar  
    31   17   22 ar  
    32   18   19 ar  
    33   18   35 1   
    34   19   20 ar  
    35   19   36 1   
    36   20   21 ar  
    37   20   23 1   
    38   21   22 ar  
    39   21   37 1   
    40   22   38 1   
    41   23   24 1   
    42   23   25 1   
    43   23   26 1   
    44   24   39 1   
    45   24   40 1   
    46   24   41 1   
    47   25   42 1   
    48   25   43 1   
    49   25   44 1   
    50   26   45 1   
    51   26   46 1   
    52   26   47 1   
@<TRIPOS>SUBSTRUCTURE
     1 BH9         1 TEMP              0 ****  ****    0 ROOT
