@<TRIPOS>MOLECULE
BH9
   48    51     1     0     0
SMALL
bcc


@<TRIPOS>ATOM
      1 N1         -0.1650   -0.8310    0.3120 na        1 BH9     -0.017600
      2 C2          1.2190   -0.8410    0.1400 cc        1 BH9     -0.130300
      3 C4          0.6030    0.1450    2.0790 cd        1 BH9      0.305200
      4 N5         -0.5340   -0.2510    1.4550 nc        1 BH9     -0.509800
      5 C6          3.1430    0.0330    1.5810 cd        1 BH9     -0.033000
      6 C7          3.4940    0.9730    2.5380 cc        1 BH9     -0.064300
      7 N8          4.8150    1.2020    2.8310 na        1 BH9      0.026700
      8 C9          5.8620    0.4870    2.1580 cc        1 BH9     -0.020300
      9 C10         5.4940   -0.4820    1.1680 cc        1 BH9     -0.100000
     10 C11         4.1720   -0.6950    0.8960 cd        1 BH9     -0.113000
     11 C12         5.4220    2.0720    3.7310 cc        1 BH9     -0.231100
     12 C13         6.8250    1.8630    3.5830 cd        1 BH9      0.188200
     13 C14         1.7630   -0.2100    1.2770 cd        1 BH9     -0.202300
     14 N14         7.0880    0.8790    2.6050 nd        1 BH9     -0.318600
     15 N15         7.8400    2.5130    4.2850 ns        1 BH9     -0.448100
     16 C16         7.6210    3.4910    5.2460 c         1 BH9      0.682700
     17 C17         8.8370    4.0640    5.8910 ca        1 BH9     -0.149600
     18 C18         9.9300    3.2710    6.2540 ca        1 BH9     -0.089000
     19 C19        11.0340    3.8530    6.8710 ca        1 BH9     -0.137500
     20 C20        11.0720    5.2310    7.1370 ca        1 BH9     -0.038300
     21 C21         9.9680    6.0120    6.7770 ca        1 BH9     -0.137500
     22 C22         8.8570    5.4350    6.1630 ca        1 BH9     -0.089000
     23 C27        12.2900    5.8160    7.8010 c3        1 BH9     -0.014700
     24 C28        12.1710    7.3210    8.0120 c3        1 BH9     -0.087100
     25 C32        12.4890    5.1570    9.1640 c3        1 BH9     -0.087100
     26 C36        13.5170    5.5530    6.9300 c3        1 BH9     -0.087100
     27 O47         6.4760    3.8830    5.5430 o         1 BH9     -0.593100
     28 H2          1.6970   -1.2710   -0.7390 h4        1 BH9      0.180000
     29 H4          0.5910    0.6450    3.0470 h4        1 BH9      0.045100
     30 H7          2.7520    1.5680    3.0960 h4        1 BH9      0.169000
     31 H10         6.3000   -1.0280    0.6580 ha        1 BH9      0.162000
     32 H11         3.8700   -1.4390    0.1440 ha        1 BH9      0.138000
     33 H12         4.8760    2.7510    4.3860 h4        1 BH9      0.217000
     34 HN15        8.7780    2.2660    4.0540 hn        1 BH9      0.336500
     35 H18         9.9240    2.1850    6.0750 ha        1 BH9      0.145500
     36 H19        11.8860    3.2170    7.1550 ha        1 BH9      0.140000
     37 H21         9.9530    7.0950    6.9740 ha        1 BH9      0.140000
     38 H22         7.9840    6.0520    5.8980 ha        1 BH9      0.145500
     39 H28        11.3020    7.5590    8.6710 hc        1 BH9      0.038922
     40 H28A       12.0460    7.8470    7.0360 hc        1 BH9      0.038922
     41 H28B       13.0990    7.7050    8.5020 hc        1 BH9      0.038922
     42 H32        12.6390    4.0570    9.0520 hc        1 BH9      0.038922
     43 H32A       13.3870    5.5890    9.6670 hc        1 BH9      0.038922
     44 H32B       11.5970    5.3320    9.8110 hc        1 BH9      0.038922
     45 H36        13.3860    6.0230    5.9260 hc        1 BH9      0.038922
     46 H36A       14.4250    5.9860    7.4130 hc        1 BH9      0.038922
     47 H36B       13.6760    4.4570    6.7940 hc        1 BH9      0.038922
     48 HN1        -0.8470   -1.1970   -0.3090 hn        1 BH9      0.324700
@<TRIPOS>BOND
     1    1    2 1   
     2    1    4 1   
     3    1   48 1   
     4    2   13 2   
     5    2   28 1   
     6    3    4 2   
     7    3   13 1   
     8    3   29 1   
     9    5    6 2   
    10    5   10 1   
    11    5   13 1   
    12    6    7 1   
    13    6   30 1   
    14    7    8 1   
    15    7   11 1   
    16    8    9 1   
    17    8   14 2   
    18    9   10 2   
    19    9   31 1   
    20   10   32 1   
    21   11   12 2   
    22   11   33 1   
    23   12   14 1   
    24   12   15 1   
    25   15   16 1   
    26   15   34 1   
    27   16   17 1   
    28   16   27 2   
    29   17   18 ar  
    30   17   22 ar  
    31   18   19 ar  
    32   18   35 1   
    33   19   20 ar  
    34   19   36 1   
    35   20   21 ar  
    36   20   23 1   
    37   21   22 ar  
    38   21   37 1   
    39   22   38 1   
    40   23   24 1   
    41   23   25 1   
    42   23   26 1   
    43   24   39 1   
    44   24   40 1   
    45   24   41 1   
    46   25   42 1   
    47   25   43 1   
    48   25   44 1   
    49   26   45 1   
    50   26   46 1   
    51   26   47 1   
@<TRIPOS>SUBSTRUCTURE
     1 BH9         1 TEMP              0 ****  ****    0 ROOT
