@<TRIPOS>MOLECULE
BH9
   48    51     1     0     0
SMALL
bcc


@<TRIPOS>ATOM
      1 N1          8.5750   -0.5850    0.3730 na        1 BH9     -0.017600
      2 C2          7.6150    0.3830    0.0850 cc        1 BH9     -0.130300
      3 C4          6.7110   -1.6750    0.3270 cd        1 BH9      0.305200
      4 N5          8.0480   -1.8020    0.5160 nc        1 BH9     -0.509800
      5 C6          5.0770    0.2630   -0.2100 cd        1 BH9     -0.033000
      6 C7          3.9360   -0.4430    0.1420 cc        1 BH9     -0.064300
      7 N8          2.6930    0.0840   -0.1060 na        1 BH9      0.026700
      8 C9          2.5390    1.3690   -0.7270 cc        1 BH9     -0.020300
      9 C10         3.7210    2.0940   -1.0880 cc        1 BH9     -0.100000
     10 C11         4.9470    1.5480   -0.8330 cd        1 BH9     -0.113000
     11 C12         1.4170   -0.4100    0.1430 cc        1 BH9     -0.231100
     12 C13         0.5170    0.5890   -0.3330 cd        1 BH9      0.188200
     13 C14         6.3760   -0.2890    0.0460 cd        1 BH9     -0.202300
     14 N14         1.2220    1.6870   -0.8710 nd        1 BH9     -0.318600
     15 N15        -0.8760    0.5390   -0.2940 n         1 BH9     -0.448100
     16 C16        -1.6040   -0.5290    0.2150 c         1 BH9      0.682700
     17 C17        -3.0880   -0.3940    0.1710 ca        1 BH9     -0.149600
     18 C18        -3.7350    0.8110    0.4650 ca        1 BH9     -0.089000
     19 C19        -5.1250    0.8780    0.4280 ca        1 BH9     -0.137500
     20 C20        -5.8960   -0.2470    0.0980 ca        1 BH9     -0.038300
     21 C21        -5.2370   -1.4490   -0.1850 ca        1 BH9     -0.137500
     22 C22        -3.8460   -1.5250   -0.1450 ca        1 BH9     -0.089000
     23 C27        -7.3970   -0.1240    0.0660 c3        1 BH9     -0.014700
     24 C28        -8.0790   -1.4320   -0.3130 c3        1 BH9     -0.087100
     25 C32        -7.8990    0.2940    1.4450 c3        1 BH9     -0.087100
     26 C36        -7.7950    0.9360   -0.9590 c3        1 BH9     -0.087100
     27 O47        -1.0520   -1.5510    0.6680 o         1 BH9     -0.593100
     28 H2          7.8660    1.4330   -0.0590 h4        1 BH9      0.180000
     29 H4          6.0320   -2.5260    0.3800 h4        1 BH9      0.045100
     30 H7          3.9670   -1.4330    0.6270 h4        1 BH9      0.169000
     31 H10         3.5970    3.0760   -1.5660 ha        1 BH9      0.162000
     32 H11         5.8660    2.0870   -1.1090 ha        1 BH9      0.138000
     33 H12         1.2150   -1.3730    0.6110 h4        1 BH9      0.217000
     34 HN15       -1.3670    1.3130   -0.6850 hn        1 BH9      0.336500
     35 H18        -3.1590    1.7060    0.7440 ha        1 BH9      0.145500
     36 H19        -5.6220    1.8320    0.6650 ha        1 BH9      0.140000
     37 H21        -5.8040   -2.3570   -0.4400 ha        1 BH9      0.140000
     38 H22        -3.3340   -2.4790   -0.3510 ha        1 BH9      0.145500
     39 H28        -7.8400   -2.2310    0.4290 hc        1 BH9      0.038922
     40 H28A       -9.1870   -1.2870   -0.3280 hc        1 BH9      0.038922
     41 H28B       -7.7570   -1.7660   -1.3280 hc        1 BH9      0.038922
     42 H32        -7.4680    1.2810    1.7400 hc        1 BH9      0.038922
     43 H32A       -9.0120    0.3830    1.4330 hc        1 BH9      0.038922
     44 H32B       -7.6090   -0.4660    2.2090 hc        1 BH9      0.038922
     45 H36        -7.4300    0.6490   -1.9740 hc        1 BH9      0.038922
     46 H36A       -8.9070    1.0320   -0.9920 hc        1 BH9      0.038922
     47 H36B       -7.3610    1.9280   -0.6900 hc        1 BH9      0.038922
     48 HN1         9.5530   -0.4470    0.4730 hn        1 BH9      0.324700
@<TRIPOS>BOND
     1    1    2 1   
     2    1    4 1   
     3    1   48 1   
     4    2   13 2   
     5    2   28 1   
     6    3    4 2   
     7    3   13 1   
     8    3   29 1   
     9    5    6 2   
    10    5   10 1   
    11    5   13 1   
    12    6    7 1   
    13    6   30 1   
    14    7    8 1   
    15    7   11 1   
    16    8    9 1   
    17    8   14 2   
    18    9   10 2   
    19    9   31 1   
    20   10   32 1   
    21   11   12 2   
    22   11   33 1   
    23   12   14 1   
    24   12   15 1   
    25   15   16 1   
    26   15   34 1   
    27   16   17 1   
    28   16   27 2   
    29   17   18 ar  
    30   17   22 ar  
    31   18   19 ar  
    32   18   35 1   
    33   19   20 ar  
    34   19   36 1   
    35   20   21 ar  
    36   20   23 1   
    37   21   22 ar  
    38   21   37 1   
    39   22   38 1   
    40   23   24 1   
    41   23   25 1   
    42   23   26 1   
    43   24   39 1   
    44   24   40 1   
    45   24   41 1   
    46   25   42 1   
    47   25   43 1   
    48   25   44 1   
    49   26   45 1   
    50   26   46 1   
    51   26   47 1   
@<TRIPOS>SUBSTRUCTURE
     1 BH9         1 TEMP              0 ****  ****    0 ROOT
