@<TRIPOS>MOLECULE
BH9
   48    51     1     0     0
SMALL
bcc


@<TRIPOS>ATOM
      1 N1         -0.1660   -1.0990    0.5580 na        1 BH9     -0.017600
      2 C2          1.2160   -1.2880    0.5550 cc        1 BH9     -0.130300
      3 C4          0.6100    0.5930    1.6550 cd        1 BH9      0.305200
      4 N5         -0.5290    0.0100    1.2050 nc        1 BH9     -0.509800
      5 C6          3.1460    0.0700    1.5430 cd        1 BH9     -0.032000
      6 C7          3.4950    0.9630    2.5450 cc        1 BH9     -0.064300
      7 N8          4.8160    1.2230    2.8100 na        1 BH9      0.026700
      8 C9          5.8650    0.5820    2.0680 cc        1 BH9     -0.020300
      9 C10         5.4980   -0.3420    1.0340 cc        1 BH9     -0.100000
     10 C11         4.1760   -0.5820    0.7890 cd        1 BH9     -0.113000
     11 C12         5.4220    2.0610    3.7410 cc        1 BH9     -0.231100
     12 C13         6.8260    1.9070    3.5410 cd        1 BH9      0.188200
     13 C14         1.7650   -0.2000    1.2650 cd        1 BH9     -0.202300
     14 N14         7.0900    0.9880    2.5020 nd        1 BH9     -0.318600
     15 N15         7.8410    2.5490    4.2500 n         1 BH9     -0.448100
     16 C16         7.6200    3.4670    5.2690 c         1 BH9      0.682700
     17 C17         8.8360    4.0440    5.9090 ca        1 BH9     -0.149600
     18 C18         9.9650    3.2710    6.1970 ca        1 BH9     -0.089000
     19 C19        11.0670    3.8550    6.8140 ca        1 BH9     -0.137500
     20 C20        11.0690    5.2170    7.1540 ca        1 BH9     -0.038300
     21 C21         9.9310    5.9790    6.8690 ca        1 BH9     -0.137500
     22 C22         8.8210    5.3990    6.2560 ca        1 BH9     -0.089000
     23 C27        12.2880    5.8060    7.8140 c3        1 BH9     -0.014700
     24 C28        12.1270    7.2920    8.1120 c3        1 BH9     -0.087100
     25 C32        12.5490    5.0800    9.1320 c3        1 BH9     -0.087100
     26 C36        13.4950    5.6320    6.8950 c3        1 BH9     -0.087100
     27 O47         6.4720    3.8040    5.6190 o         1 BH9     -0.593100
     28 H2          1.6890   -2.1440    0.0770 h4        1 BH9      0.180000
     29 H4          0.6030    1.5270    2.2160 h4        1 BH9      0.045100
     30 H7          2.7520    1.4930    3.1640 h4        1 BH9      0.169000
     31 H10         6.3050   -0.8280    0.4690 ha        1 BH9      0.162000
     32 H11         3.8750   -1.2830   -0.0040 ha        1 BH9      0.138000
     33 H12         4.8750    2.6820    4.4500 h4        1 BH9      0.217000
     34 HN15        8.7780    2.3480    3.9790 hn        1 BH9      0.336500
     35 H18         9.9870    2.1960    5.9580 ha        1 BH9      0.145500
     36 H19        11.9480    3.2340    7.0380 ha        1 BH9      0.140000
     37 H21         9.8880    7.0480    7.1260 ha        1 BH9      0.140000
     38 H22         7.9200    6.0000    6.0510 ha        1 BH9      0.145500
     39 H28        13.0560    7.6800    8.5960 hc        1 BH9      0.038922
     40 H28A       11.2710    7.4630    8.8080 hc        1 BH9      0.038922
     41 H28B       11.9560    7.8660    7.1710 hc        1 BH9      0.038922
     42 H32        13.4470    5.5150    9.6330 hc        1 BH9      0.038922
     43 H32A       11.6720    5.1900    9.8140 hc        1 BH9      0.038922
     44 H32B       12.7310    3.9940    8.9550 hc        1 BH9      0.038922
     45 H36        14.4030    6.0680    7.3760 hc        1 BH9      0.038922
     46 H36A       13.3190    6.1520    5.9240 hc        1 BH9      0.038922
     47 H36B       13.6850    4.5510    6.6940 hc        1 BH9      0.038922
     48 HN1        -0.8510   -1.6860    0.1450 hn        1 BH9      0.324700
@<TRIPOS>BOND
     1    1    2 1   
     2    1    4 1   
     3    1   48 1   
     4    2   13 2   
     5    2   28 1   
     6    3    4 2   
     7    3   13 1   
     8    3   29 1   
     9    5    6 2   
    10    5   10 1   
    11    5   13 1   
    12    6    7 1   
    13    6   30 1   
    14    7    8 1   
    15    7   11 1   
    16    8    9 1   
    17    8   14 2   
    18    9   10 2   
    19    9   31 1   
    20   10   32 1   
    21   11   12 2   
    22   11   33 1   
    23   12   14 1   
    24   12   15 1   
    25   15   16 1   
    26   15   34 1   
    27   16   17 1   
    28   16   27 2   
    29   17   18 ar  
    30   17   22 ar  
    31   18   19 ar  
    32   18   35 1   
    33   19   20 ar  
    34   19   36 1   
    35   20   21 ar  
    36   20   23 1   
    37   21   22 ar  
    38   21   37 1   
    39   22   38 1   
    40   23   24 1   
    41   23   25 1   
    42   23   26 1   
    43   24   39 1   
    44   24   40 1   
    45   24   41 1   
    46   25   42 1   
    47   25   43 1   
    48   25   44 1   
    49   26   45 1   
    50   26   46 1   
    51   26   47 1   
@<TRIPOS>SUBSTRUCTURE
     1 BH9         1 TEMP              0 ****  ****    0 ROOT
