@<TRIPOS>MOLECULE
BH9
   48    39     1     0     0
SMALL
bcc


@<TRIPOS>ATOM
      1 N1         -7.4430   -5.6070   -2.5330 n2        1 BH9     -0.120000
      2 C2         -6.8370   -4.4180   -2.3300 c1        1 BH9     -0.133000
      3 C4         -5.3880   -5.7670   -3.3000 c1        1 BH9     -0.133000
      4 N5         -6.5440   -6.4440   -3.1350 n2        1 BH9     -0.120000
      5 C6         -4.3790   -3.5290   -2.7460 c1        1 BH9     -0.029000
      6 C7         -3.4960   -3.5110   -1.6700 c1        1 BH9     -0.048000
      7 N8         -2.5510   -2.5050   -1.5670 n1        1 BH9     -0.049000
      8 C9         -2.4850   -1.5360   -2.5150 c1        1 BH9      0.005000
      9 C10        -3.3790   -1.5540   -3.6040 c1        1 BH9     -0.100000
     10 C11        -4.3120   -2.5470   -3.7070 c2        1 BH9     -0.108000
     11 C12        -1.6160   -2.2280   -0.6170 c1        1 BH9     -0.206000
     12 C13        -0.9640   -1.0690   -0.9870 c1        1 BH9      0.046000
     13 C14        -5.5620   -4.5100   -2.8030 c1        1 BH9     -0.137000
     14 N14        -1.4950   -0.6460   -2.1470 n1        1 BH9     -0.178000
     15 N15         0.1790   -0.4230   -0.3770 n2        1 BH9     -0.291000
     16 C16         0.0610    0.9120    0.1280 c2        1 BH9      0.356000
     17 C17         1.2780    1.6050    0.7560 c2        1 BH9     -0.129000
     18 C18         2.4840    0.9330    0.8530 c2        1 BH9     -0.101000
     19 C19         3.5730    1.5420    1.4690 c1        1 BH9     -0.138000
     20 C20         3.4490    2.8270    1.9890 c1        1 BH9     -0.031000
     21 C21         2.2430    3.4990    1.8930 c1        1 BH9     -0.137000
     22 C22         1.1550    2.8900    1.2760 c1        1 BH9     -0.076000
     23 C27         4.6470    3.4970    2.6770 c3        1 BH9     -0.022000
     24 C28         4.2590    4.8970    3.1150 c3        1 BH9     -0.205000
     25 C32         5.0570    2.6730    3.8990 c3        1 BH9     -0.205000
     26 C36         5.8180    3.5760    1.6960 c3        1 BH9     -0.205000
     27 O47        -0.9950    1.5000    0.0450 o         1 BH9     -0.356000
     28 H2         -7.2400   -3.6330   -1.9180 DU        1 BH9      0.213000
     29 H4         -4.5760   -6.1150   -3.7030 DU        1 BH9      0.213000
     30 H7         -3.5430   -4.2080   -0.9880 ha        1 BH9      0.163000
     31 H10        -3.3310   -0.8570   -4.2860 ha        1 BH9      0.163000
     32 H11        -4.9260   -2.5590   -4.4540 ha        1 BH9      0.144000
     33 H12        -1.4390   -2.7550    0.1830 DU        1 BH9      0.213000
     34 HN15        0.9880   -0.8500   -0.3570 hn        1 BH9      0.250000
     35 H18         2.5710    0.0330    0.4880 ha        1 BH9      0.138000
     36 H19         4.4200    1.0700    1.5370 ha        1 BH9      0.138000
     37 H21         2.1560    4.4010    2.2580 ha        1 BH9      0.142000
     38 H22         0.3040    3.3640    1.2090 ha        1 BH9      0.153000
     39 H28         3.5080    4.8460    3.7530 hc        1 BH9      0.078222
     40 H28A        5.0260    5.3290    3.5450 hc        1 BH9      0.078222
     41 H28B        3.9890    5.4160    2.3380 hc        1 BH9      0.078222
     42 H32         5.6700    3.2010    4.4590 hc        1 BH9      0.078222
     43 H32A        5.5070    1.8560    3.6040 hc        1 BH9      0.078222
     44 H32B        4.2550    2.4370    4.4200 hc        1 BH9      0.078222
     45 H36         6.5200    4.1610    2.0690 hc        1 BH9      0.078222
     46 H36A        5.5060    3.9430    0.8450 hc        1 BH9      0.078222
     47 H36B        6.1840    2.6770    1.5510 hc        1 BH9      0.078222
     48 HN1        -8.3060   -5.8170   -2.3070 DU        1 BH9      0.213000
@<TRIPOS>BOND
     1    1    2 1   
     2    1    4 1   
     3    2   13 1   
     4    3    4 1   
     5    3   13 1   
     6    5    6 1   
     7    5   10 1   
     8    6   30 1   
     9    7    8 1   
    10    9   10 1   
    11    9   31 1   
    12   10   32 1   
    13   11   12 1   
    14   12   14 1   
    15   15   16 1   
    16   15   34 1   
    17   16   17 1   
    18   16   27 1   
    19   17   18 1   
    20   17   22 1   
    21   18   19 1   
    22   18   35 1   
    23   19   36 1   
    24   20   21 1   
    25   20   23 1   
    26   21   37 1   
    27   22   38 1   
    28   23   24 1   
    29   23   25 1   
    30   23   26 1   
    31   24   39 1   
    32   24   40 1   
    33   24   41 1   
    34   25   42 1   
    35   25   43 1   
    36   25   44 1   
    37   26   45 1   
    38   26   46 1   
    39   26   47 1   
@<TRIPOS>SUBSTRUCTURE
     1 BH9         1 TEMP              0 ****  ****    0 ROOT
