@<TRIPOS>MOLECULE
BHA
   17    14     1     0     0
SMALL
bcc


@<TRIPOS>ATOM
      1 C1'         1.4360    0.2700    2.3780 c1        1 BHA      0.375000
      2 O1'         2.6890   -0.0020    2.4620 o         1 BHA     -0.556000
      3 O2'         0.8100    0.4630    3.3590 os        1 BHA     -0.561000
      4 C1          0.7370    0.2190    1.0420 c2        1 BHA     -0.110000
      5 C2          0.2420   -0.9830    0.5620 c2        1 BHA      0.108000
      6 C3         -0.4550   -1.0150   -0.6230 c1        1 BHA     -0.277000
      7 C4         -0.6680    0.1640   -1.3500 c1        1 BHA      0.016000
      8 C5         -0.1800    1.3630   -0.8840 c1        1 BHA     -0.220000
      9 C6          0.5250    1.4060    0.3130 c1        1 BHA     -0.075000
     10 O2          0.3480   -2.2070    1.3820 oh        1 BHA     -0.227000
     11 N4         -1.3980    0.1120   -2.5470 n3        1 BHA     -0.306000
     12 H3         -0.8310   -1.8590   -0.9470 ha        1 BHA      0.108000
     13 H5         -0.3760    2.2070   -1.3790 ha        1 BHA      0.108000
     14 H6          0.7130    2.2630    0.7300 ha        1 BHA      0.134000
     15 HO2        -0.3330   -2.5950    1.3590 ho        1 BHA      0.186000
     16 HN41       -1.4270    0.8260   -3.0880 hn        1 BHA      0.148000
     17 HN42       -1.8320   -0.6320   -2.7690 hn        1 BHA      0.148000
@<TRIPOS>BOND
     1    1    2 1   
     2    1    4 1   
     3    4    5 1   
     4    4    9 1   
     5    5    6 1   
     6    5   10 1   
     7    6   12 1   
     8    7    8 1   
     9    7   11 1   
    10    8   13 1   
    11    9   14 1   
    12   10   15 1   
    13   11   16 1   
    14   11   17 1   
@<TRIPOS>SUBSTRUCTURE
     1 BHA         1 TEMP              0 ****  ****    0 ROOT
