@<TRIPOS>MOLECULE
BHA
   17    17     1     0     0
SMALL
bcc


@<TRIPOS>ATOM
      1 C1'         0.0650    0.1000   -0.0370 c         1 BHA      0.919200
      2 O1'         1.3220    0.2920   -0.0630 o         1 BHA     -0.837800
      3 O2'        -0.5860   -0.0340    1.0350 o         1 BHA     -0.837800
      4 C1         -0.6850    0.0320   -1.3500 ca        1 BHA     -0.237600
      5 C2         -0.0590    0.1810   -2.6040 ca        1 BHA      0.201100
      6 C3         -0.8020    0.1260   -3.7970 ca        1 BHA     -0.255000
      7 C4         -2.1910   -0.0920   -3.7510 ca        1 BHA      0.116600
      8 C5         -2.8190   -0.2420   -2.4960 ca        1 BHA     -0.248000
      9 C6         -2.0620   -0.1820   -1.3290 ca        1 BHA     -0.045000
     10 O2          1.2820    0.3950   -2.7700 oh        1 BHA     -0.554100
     11 N4         -2.9350   -0.2190   -4.9470 nv        1 BHA     -0.802200
     12 H3         -0.2750    0.2460   -4.7530 ha        1 BHA      0.124000
     13 H5         -3.9010   -0.4140   -2.4340 ha        1 BHA      0.108000
     14 H6         -2.5470   -0.3010   -0.3440 ha        1 BHA      0.151000
     15 HO2         1.7110    0.4160   -1.8860 ho        1 BHA      0.483000
     16 HN41       -2.5090    0.2720   -5.7060 hn        1 BHA      0.356300
     17 HN42       -3.8840    0.0700   -4.8270 hn        1 BHA      0.356300
@<TRIPOS>BOND
     1    1    2 1   
     2    1    3 1   
     3    1    4 1   
     4    4    5 ar  
     5    4    9 ar  
     6    5    6 ar  
     7    5   10 1   
     8    6    7 ar  
     9    6   12 1   
    10    7    8 ar  
    11    7   11 1   
    12    8    9 ar  
    13    8   13 1   
    14    9   14 1   
    15   10   15 1   
    16   11   16 1   
    17   11   17 1   
@<TRIPOS>SUBSTRUCTURE
     1 BHA         1 TEMP              0 ****  ****    0 ROOT
