@<TRIPOS>MOLECULE
BHA
   17    17     1     0     0
SMALL
bcc


@<TRIPOS>ATOM
      1 C1'         0.2650   -0.0720   -2.0460 c         1 BHA      0.919200
      2 O1'        -0.8240   -0.1140   -2.7020 o         1 BHA     -0.837800
      3 O2'         1.3970   -0.0180   -2.6000 o         1 BHA     -0.837800
      4 C1          0.2010   -0.0840   -0.5340 ca        1 BHA     -0.237600
      5 C2         -1.0090   -0.1310    0.1870 ca        1 BHA      0.201100
      6 C3         -1.0170   -0.1240    1.5930 ca        1 BHA     -0.255000
      7 C4          0.1970   -0.0810    2.3030 ca        1 BHA      0.116600
      8 C5          1.4090   -0.0340    1.5830 ca        1 BHA     -0.248000
      9 C6          1.3910   -0.0410    0.1910 ca        1 BHA     -0.045000
     10 O2         -2.2450   -0.1770   -0.3960 oh        1 BHA     -0.554100
     11 N4          0.2010   -0.1450    3.7160 nh        1 BHA     -0.802200
     12 H3         -1.9820   -0.1630    2.1150 ha        1 BHA      0.124000
     13 H5          2.3690   -0.0010    2.1150 ha        1 BHA      0.108000
     14 H6          2.3360   -0.0080   -0.3780 ha        1 BHA      0.151000
     15 HO2        -2.1360   -0.1790   -1.3720 ho        1 BHA      0.483000
     16 HN41        0.9950    0.3200    4.1060 hn        1 BHA      0.356300
     17 HN42       -0.6450    0.2110    4.1090 hn        1 BHA      0.356300
@<TRIPOS>BOND
     1    1    2 1   
     2    1    3 1   
     3    1    4 1   
     4    4    5 ar  
     5    4    9 ar  
     6    5    6 ar  
     7    5   10 1   
     8    6    7 ar  
     9    6   12 1   
    10    7    8 ar  
    11    7   11 1   
    12    8    9 ar  
    13    8   13 1   
    14    9   14 1   
    15   10   15 1   
    16   11   16 1   
    17   11   17 1   
@<TRIPOS>SUBSTRUCTURE
     1 BHA         1 TEMP              0 ****  ****    0 ROOT
