@<TRIPOS>MOLECULE
BHA
   17    17     1     0     0
SMALL
bcc


@<TRIPOS>ATOM
      1 C1'         0.0840    0.0900   -0.0470 c         1 BHA      0.919200
      2 O1'         1.3500    0.2000   -0.0850 o         1 BHA     -0.837800
      3 O2'        -0.5630   -0.0160    1.0310 o         1 BHA     -0.837800
      4 C1         -0.6820    0.0830   -1.3530 ca        1 BHA     -0.237600
      5 C2         -0.0590    0.1840   -2.6120 ca        1 BHA      0.201100
      6 C3         -0.8130    0.1570   -3.8000 ca        1 BHA     -0.255000
      7 C4         -2.2140    0.0380   -3.7400 ca        1 BHA      0.116600
      8 C5         -2.8380   -0.0640   -2.4790 ca        1 BHA     -0.248000
      9 C6         -2.0710   -0.0350   -1.3190 ca        1 BHA     -0.045000
     10 O2          1.2920    0.3060   -2.7910 oh        1 BHA     -0.554100
     11 N4         -2.9860    0.0800   -4.9240 nh        1 BHA     -0.802200
     12 H3         -0.2880    0.2400   -4.7600 ha        1 BHA      0.124000
     13 H5         -3.9300   -0.1570   -2.4070 ha        1 BHA      0.108000
     14 H6         -2.5540   -0.1110   -0.3290 ha        1 BHA      0.151000
     15 HO2         1.7280    0.3160   -1.9110 ho        1 BHA      0.483000
     16 HN41       -2.4690   -0.2360   -5.7190 hn        1 BHA      0.356300
     17 HN42       -3.8380   -0.4330   -4.8300 hn        1 BHA      0.356300
@<TRIPOS>BOND
     1    1    2 1   
     2    1    3 1   
     3    1    4 1   
     4    4    5 ar  
     5    4    9 ar  
     6    5    6 ar  
     7    5   10 1   
     8    6    7 ar  
     9    6   12 1   
    10    7    8 ar  
    11    7   11 1   
    12    8    9 ar  
    13    8   13 1   
    14    9   14 1   
    15   10   15 1   
    16   11   16 1   
    17   11   17 1   
@<TRIPOS>SUBSTRUCTURE
     1 BHA         1 TEMP              0 ****  ****    0 ROOT
