@<TRIPOS>MOLECULE
BHA
   18    18     1     0     0
SMALL
bcc


@<TRIPOS>ATOM
      1 C1'        -0.0560   -0.1550    0.0690 c         1 BHA      0.921200
      2 O1'         1.1950   -0.1960    0.0090 o         1 BHA     -0.785300
      3 O2'        -0.7530   -0.1550    1.1230 o         1 BHA     -0.785300
      4 C1         -0.8130   -0.0990   -1.2640 ca        1 BHA     -0.165600
      5 C2         -2.2260   -0.0490   -1.3280 ca        1 BHA      0.219100
      6 C3         -2.8800    0.0020   -2.5740 ca        1 BHA     -0.212000
      7 C4         -2.0980    0.0020   -3.7390 ca        1 BHA     -0.070400
      8 C5         -0.7000   -0.0480   -3.6960 ca        1 BHA     -0.170000
      9 C6         -0.0790   -0.0980   -2.4460 ca        1 BHA     -0.056000
     10 O2         -3.0490   -0.0450   -0.2500 oh        1 BHA     -0.524100
     11 N4         -2.7820    0.0590   -5.0330 n4        1 BHA     -0.695000
     12 H3         -3.9780    0.0390   -2.5970 ha        1 BHA      0.148000
     13 H5         -0.0880   -0.0500   -4.6100 ha        1 BHA      0.131000
     14 H6          1.0240   -0.1380   -2.3670 ha        1 BHA      0.192000
     15 HO2        -2.5120   -0.0830    0.5820 ho        1 BHA      0.510000
     16 HN41       -3.5000   -0.6700   -5.0710 hn        1 BHA      0.447467
     17 HN42       -3.2280    0.9750   -5.1400 hn        1 BHA      0.447467
     18 H43        -2.1080   -0.0830   -5.7890 hn        1 BHA      0.447467
@<TRIPOS>BOND
     1    1    2 1   
     2    1    3 1   
     3    1    4 1   
     4    4    5 ar  
     5    4    9 ar  
     6    5    6 ar  
     7    5   10 1   
     8    6    7 ar  
     9    6   12 1   
    10    7    8 ar  
    11    7   11 1   
    12    8    9 ar  
    13    8   13 1   
    14    9   14 1   
    15   10   15 1   
    16   11   16 1   
    17   11   17 1   
    18   11   18 1   
@<TRIPOS>SUBSTRUCTURE
     1 BHA         1 TEMP              0 ****  ****    0 ROOT
