@<TRIPOS>MOLECULE
BHB
   39    40     1     0     0
SMALL
bcc


@<TRIPOS>ATOM
      1 N4         -3.8320   -0.1690   -2.8740 nh        1 BHB     -0.810200
      2 C6         -2.5010   -0.0520   -2.4540 ca        1 BHB      0.108600
      3 C1         -2.1950    0.4410   -1.1610 ca        1 BHB     -0.130000
      4 C2         -0.8870    0.6580   -0.7430 ca        1 BHB     -0.038300
      5 C3          0.1940    0.3840   -1.6290 ca        1 BHB      0.186400
      6 N3          1.5110    0.6020   -1.2270 nc        1 BHB     -0.670100
      7 C8          2.4960    0.3470   -2.0950 cd        1 BHB      0.651800
      8 N2          3.8360    0.6800   -1.7550 nh        1 BHB     -0.879800
      9 N1          2.2830   -0.1940   -3.3840 n         1 BHB     -0.502400
     10 C7          0.9790   -0.4220   -3.8520 c         1 BHB      0.716100
     11 O1          0.8400   -0.8690   -5.0050 o         1 BHB     -0.624500
     12 C41        -0.1210   -0.1200   -2.9180 ca        1 BHB     -0.165600
     13 C5         -1.4370   -0.3370   -3.3270 ca        1 BHB     -0.118000
     14 C9         -0.6610    1.1790    0.6250 c3        1 BHB      0.051000
     15 S1         -0.7920   -0.1890    1.7580 ss        1 BHB     -0.313200
     16 C16        -0.1700    0.5440    3.2460 c3        1 BHB     -0.013300
     17 C17        -0.2200   -0.5440    4.3090 c3        1 BHB      0.178800
     18 N18         0.0200   -0.0470    5.6590 n3        1 BHB     -0.737600
     19 C20        -0.3880   -0.9970    6.6710 c3        1 BHB      0.156100
     20 C19         1.3650    0.4410    5.8590 c3        1 BHB      0.156100
     21 HN41       -3.9610   -0.7990   -3.6360 hn        1 BHB      0.389300
     22 HN42       -4.4780   -0.3220   -2.1310 hn        1 BHB      0.389300
     23 H1         -3.0160    0.6630   -0.4580 ha        1 BHB      0.144000
     24 HN21        3.9400    0.9900   -0.8100 hn        1 BHB      0.408800
     25 HN22        4.5030   -0.0180   -2.0070 hn        1 BHB      0.408800
     26 HN1         3.0420   -0.3230   -4.0150 hn        1 BHB      0.336500
     27 H5         -1.6170   -0.7260   -4.3430 ha        1 BHB      0.160000
     28 H91        -1.4390    1.9410    0.8840 h1        1 BHB      0.076200
     29 H92         0.3360    1.6710    0.7340 h1        1 BHB      0.076200
     30 H161       -0.7960    1.4210    3.5390 h1        1 BHB      0.065700
     31 H162        0.8750    0.9050    3.0870 h1        1 BHB      0.065700
     32 H171        0.5210   -1.3520    4.0300 h1        1 BHB      0.044700
     33 H172       -1.2500   -1.0060    4.2920 h1        1 BHB      0.044700
     34 H201       -0.2450   -0.5320    7.6810 h1        1 BHB      0.031367
     35 H202       -1.4760   -1.2320    6.5350 h1        1 BHB      0.031367
     36 H203        0.1930   -1.9600    6.6360 h1        1 BHB      0.031367
     37 H191        1.5600    1.2740    5.1340 h1        1 BHB      0.031367
     38 H192        1.4560    0.8450    6.9010 h1        1 BHB      0.031367
     39 H193        2.1520   -0.3500    5.7130 h1        1 BHB      0.031367
@<TRIPOS>BOND
     1    1    2 1   
     2    1   21 1   
     3    1   22 1   
     4    2    3 ar  
     5    2   13 ar  
     6    3    4 ar  
     7    3   23 1   
     8    4    5 ar  
     9    4   14 1   
    10    5    6 1   
    11    5   12 ar  
    12    6    7 2   
    13    7    8 1   
    14    7    9 1   
    15    8   24 1   
    16    8   25 1   
    17    9   10 1   
    18    9   26 1   
    19   10   11 2   
    20   10   12 1   
    21   12   13 ar  
    22   13   27 1   
    23   14   15 1   
    24   14   28 1   
    25   14   29 1   
    26   15   16 1   
    27   16   17 1   
    28   16   30 1   
    29   16   31 1   
    30   17   18 1   
    31   17   32 1   
    32   17   33 1   
    33   18   19 1   
    34   18   20 1   
    35   19   34 1   
    36   19   35 1   
    37   19   36 1   
    38   20   37 1   
    39   20   38 1   
    40   20   39 1   
@<TRIPOS>SUBSTRUCTURE
     1 BHB         1 TEMP              0 ****  ****    0 ROOT
