@<TRIPOS>MOLECULE
BHB
   40    41     1     0     0
SMALL
bcc


@<TRIPOS>ATOM
      1 N4          0.4280   -1.0500    0.5240 nv        1 BHB     -0.822200
      2 C6          1.7560   -0.6720    0.6890 ca        1 BHB      0.144600
      3 C1          2.1390    0.1950    1.7450 ca        1 BHB     -0.141000
      4 C2          3.4700    0.4960    2.0100 ca        1 BHB     -0.064300
      5 C3          4.4980   -0.0700    1.2030 ca        1 BHB      0.138400
      6 N3          5.8410    0.2120    1.4660 nc        1 BHB     -0.712100
      7 C8          6.7720   -0.2670    0.6290 cd        1 BHB      0.649800
      8 N2          8.1430   -0.0450    0.9310 nv        1 BHB     -0.888800
      9 N1          6.4730   -1.0730   -0.4900 ns        1 BHB     -0.512400
     10 C7          5.1460   -1.4460   -0.7720 c         1 BHB      0.709100
     11 O1          4.9410   -2.1990   -1.7360 o         1 BHB     -0.588500
     12 C41         4.1050   -0.9040    0.1240 ca        1 BHB     -0.158600
     13 C5          2.7710   -1.2050   -0.1330 ca        1 BHB     -0.124000
     14 C9          3.7750    1.4440    3.1060 c3        1 BHB      0.029000
     15 S1          3.7480    0.7370    4.7310 ss        1 BHB     -0.221200
     16 C16         5.2380   -0.1770    4.8780 c3        1 BHB     -0.068300
     17 C17         4.9700   -1.6000    4.4250 c3        1 BHB      0.109800
     18 N18         6.1060   -2.5540    4.6890 nx        1 BHB     -0.680400
     19 C20         5.7040   -3.9400    4.3370 c3        1 BHB      0.083100
     20 C19         7.3360   -2.1590    3.9570 c3        1 BHB      0.083100
     21 HN41       -0.2480   -0.4270    0.9050 hn        1 BHB      0.412300
     22 HN42        0.1940   -1.4160   -0.3710 hn        1 BHB      0.412300
     23 H1          1.3580    0.6480    2.3800 ha        1 BHB      0.150000
     24 HN21        8.7490   -0.0570    0.1370 hn        1 BHB      0.417300
     25 HN22        8.2990    0.7510    1.5160 hn        1 BHB      0.417300
     26 HN1         7.1910   -1.3850   -1.1080 hn        1 BHB      0.344500
     27 H5          2.5290   -1.8590   -0.9890 ha        1 BHB      0.172000
     28 H91         4.7410    1.9800    2.9320 h1        1 BHB      0.105200
     29 H92         2.9680    2.2270    3.1750 h1        1 BHB      0.105200
     30 H161        6.0600    0.2900    4.2800 h1        1 BHB      0.098700
     31 H162        5.5210   -0.1390    5.9610 h1        1 BHB      0.098700
     32 H171        4.7630   -1.6120    3.3140 hx        1 BHB      0.115200
     33 H172        4.0640   -2.0050    4.9660 hx        1 BHB      0.115200
     34 H201        4.7920   -4.2260    4.9260 hx        1 BHB      0.104533
     35 H202        5.4710   -3.9940    3.2400 hx        1 BHB      0.104533
     36 H203        6.5440   -4.6450    4.5770 hx        1 BHB      0.104533
     37 H191        8.1240   -2.9450    4.0990 hx        1 BHB      0.104533
     38 H192        7.7060   -1.1770    4.3580 hx        1 BHB      0.104533
     39 H193        7.1070   -2.0440    2.8630 hx        1 BHB      0.104533
     40 H181        6.3120   -2.5220    5.6970 hn        1 BHB      0.443800
@<TRIPOS>BOND
     1    1    2 1   
     2    1   21 1   
     3    1   22 1   
     4    2    3 ar  
     5    2   13 ar  
     6    3    4 ar  
     7    3   23 1   
     8    4    5 ar  
     9    4   14 1   
    10    5    6 1   
    11    5   12 ar  
    12    6    7 2   
    13    7    8 1   
    14    7    9 1   
    15    8   24 1   
    16    8   25 1   
    17    9   10 1   
    18    9   26 1   
    19   10   11 2   
    20   10   12 1   
    21   12   13 ar  
    22   13   27 1   
    23   14   15 1   
    24   14   28 1   
    25   14   29 1   
    26   15   16 1   
    27   16   17 1   
    28   16   30 1   
    29   16   31 1   
    30   17   18 1   
    31   17   32 1   
    32   17   33 1   
    33   18   19 1   
    34   18   20 1   
    35   18   40 1   
    36   19   34 1   
    37   19   35 1   
    38   19   36 1   
    39   20   37 1   
    40   20   38 1   
    41   20   39 1   
@<TRIPOS>SUBSTRUCTURE
     1 BHB         1 TEMP              0 ****  ****    0 ROOT
