@<TRIPOS>MOLECULE
BHB
   42    43     1     0     0
SMALL
bcc


@<TRIPOS>ATOM
      1 N4          0.3070   -0.6760    0.5310 n4        1 BHB     -0.707000
      2 C6          1.7210   -0.4540    0.2240 ca        1 BHB     -0.044400
      3 C1          2.6890   -0.6190    1.2370 ca        1 BHB     -0.073000
      4 C2          4.0450   -0.4240    0.9790 ca        1 BHB     -0.004300
      5 C3          4.4490   -0.0330   -0.3350 ca        1 BHB      0.224400
      6 N3          5.8020    0.1970   -0.6270 nc        1 BHB     -0.599100
      7 C8          6.1160    0.5610   -1.8650 cd        1 BHB      0.600800
      8 N2          7.5750    0.8030   -2.1400 n4        1 BHB     -0.809600
      9 N1          5.2360    0.7420   -2.9250 n         1 BHB     -0.486400
     10 C7          3.8430    0.5280   -2.7070 c         1 BHB      0.715100
     11 O1          3.0740    0.6890   -3.6520 o         1 BHB     -0.474500
     12 C41         3.4560    0.1260   -1.3350 ca        1 BHB     -0.152600
     13 C5          2.0990   -0.0830   -1.0700 ca        1 BHB     -0.016000
     14 C9          5.0500   -0.5930    2.0610 c3        1 BHB      0.019000
     15 S1          4.3970   -1.6070    3.3740 ss        1 BHB     -0.259200
     16 C16         5.4810   -1.2810    4.7430 c3        1 BHB     -0.047300
     17 C17         5.5310   -2.5730    5.5440 c3        1 BHB      0.116800
     18 N18         6.0810   -2.4140    6.9320 n4        1 BHB     -0.680400
     19 C20         5.7740   -3.6220    7.7520 c3        1 BHB      0.079100
     20 C19         7.5460   -2.1580    6.9170 c3        1 BHB      0.079100
     21 HN41       -0.2820   -0.3960   -0.2670 hn        1 BHB      0.482800
     22 HN42        0.1450   -1.6740    0.7290 hn        1 BHB      0.482800
     23 H1          2.3820   -0.9050    2.2660 ha        1 BHB      0.194000
     24 HN21        7.9020    0.1560   -2.8740 hn        1 BHB      0.500467
     25 HN22        8.1300    0.6420   -1.2820 hn        1 BHB      0.500467
     26 HN1         5.5270    1.0170   -3.8450 hn        1 BHB      0.383500
     27 H5          1.3710    0.0560   -1.8960 ha        1 BHB      0.208000
     28 H91         5.3380    0.4160    2.4580 h1        1 BHB      0.106700
     29 H92         5.9780   -1.0810    1.6650 h1        1 BHB      0.106700
     30 H161        5.0660   -0.4340    5.3470 h1        1 BHB      0.095200
     31 H162        6.4980   -0.9840    4.3860 h1        1 BHB      0.095200
     32 H171        4.4850   -2.9920    5.6450 hx        1 BHB      0.120200
     33 H172        6.1670   -3.3370    5.0090 hx        1 BHB      0.120200
     34 H201        6.2080   -3.4880    8.7810 hx        1 BHB      0.114200
     35 H202        6.2280   -4.5300    7.2710 hx        1 BHB      0.114200
     36 H203        4.6610   -3.7500    7.8300 hx        1 BHB      0.114200
     37 H191        7.7590   -1.2460    6.3000 hx        1 BHB      0.114200
     38 H192        7.9050   -1.9900    7.9710 hx        1 BHB      0.114200
     39 H193        8.0820   -3.0460    6.4840 hx        1 BHB      0.114200
     40 H43         0.0350   -0.1210    1.3550 hn        1 BHB      0.482800
     41 H23         7.7150    1.7770   -2.4480 hn        1 BHB      0.500467
     42 H181        5.6200   -1.6040    7.3720 hn        1 BHB      0.454800
@<TRIPOS>BOND
     1    1    2 1   
     2    1   21 1   
     3    1   22 1   
     4    1   40 1   
     5    2    3 ar  
     6    2   13 ar  
     7    3    4 ar  
     8    3   23 1   
     9    4    5 ar  
    10    4   14 1   
    11    5    6 1   
    12    5   12 ar  
    13    6    7 2   
    14    7    8 1   
    15    7    9 1   
    16    8   24 1   
    17    8   25 1   
    18    8   41 1   
    19    9   10 1   
    20    9   26 1   
    21   10   11 2   
    22   10   12 1   
    23   12   13 ar  
    24   13   27 1   
    25   14   15 1   
    26   14   28 1   
    27   14   29 1   
    28   15   16 1   
    29   16   17 1   
    30   16   30 1   
    31   16   31 1   
    32   17   18 1   
    33   17   32 1   
    34   17   33 1   
    35   18   19 1   
    36   18   20 1   
    37   18   42 1   
    38   19   34 1   
    39   19   35 1   
    40   19   36 1   
    41   20   37 1   
    42   20   38 1   
    43   20   39 1   
@<TRIPOS>SUBSTRUCTURE
     1 BHB         1 TEMP              0 ****  ****    0 ROOT
