@<TRIPOS>MOLECULE
BHB
   39    37     1     0     0
SMALL
bcc


@<TRIPOS>ATOM
      1 N4         -3.1710    0.3230   -2.6420 n3        1 BHB     -0.321000
      2 C6         -1.6990    0.3640   -2.5440 c2        1 BHB      0.035000
      3 C1         -0.9760    0.3640   -1.3580 c2        1 BHB     -0.136000
      4 C2          0.4230    0.2990   -1.3900 c1        1 BHB     -0.024000
      5 C3          1.1020    0.2340   -2.6340 c1        1 BHB      0.030000
      6 N3          2.4720    0.2250   -2.6660 n2        1 BHB     -0.248000
      7 C8          3.1320    0.2160   -3.8720 c1        1 BHB      0.205000
      8 N2          4.5680    0.3280   -3.8690 n2        1 BHB     -0.320000
      9 N1          2.4210    0.2160   -5.0450 n3        1 BHB     -0.343000
     10 C7          1.0660    0.2250   -5.0180 c1        1 BHB      0.353000
     11 O1          0.4430    0.2820   -6.0510 o         1 BHB     -0.349000
     12 C41         0.3940    0.2340   -3.7990 c1        1 BHB     -0.140000
     13 C5         -1.0310    0.3000   -3.7680 c2        1 BHB     -0.127000
     14 C9          1.0130    0.3270    0.0110 c3        1 BHB     -0.219000
     15 S1          0.0130   -0.6760    1.0980 ss        1 BHB      0.039000
     16 C16         0.4080   -0.2880    2.7940 c3        1 BHB     -0.271000
     17 C17        -0.5630   -1.0390    3.7340 c3        1 BHB     -0.058000
     18 N18        -1.1140   -0.0970    4.7280 n3        1 BHB     -0.264000
     19 C20        -2.5240    0.1310    4.4580 c3        1 BHB     -0.120000
     20 C19        -0.9650   -0.6430    6.0260 c3        1 BHB     -0.120000
     21 HN41       -3.6900    0.4690   -1.8900 hn        1 BHB      0.186000
     22 HN42       -3.5760    0.1450   -3.4550 hn        1 BHB      0.186000
     23 H1         -1.4410    0.4400   -0.5030 ha        1 BHB      0.157000
     24 HN21        5.0220    0.3810   -3.0740 hn        1 BHB      0.204500
     25 HN22        5.0260    0.4000   -4.6660 hn        1 BHB      0.204500
     26 HN1         2.8650    0.2110   -5.8540 hn        1 BHB      0.250000
     27 H5         -1.5390    0.2460   -4.5970 ha        1 BHB      0.159000
     28 H91         1.9300   -0.0280   -0.0110 h1        1 BHB      0.120500
     29 H92         1.0280    1.2530    0.3420 h1        1 BHB      0.120500
     30 H161        1.3300   -0.5640    2.9870 h1        1 BHB      0.106000
     31 H162        0.3200    0.6720    2.9370 h1        1 BHB      0.106000
     32 H171       -1.2950   -1.4260    3.2070 h1        1 BHB      0.084500
     33 H172       -0.0720   -1.7690    4.2040 h1        1 BHB      0.084500
     34 H201       -2.9690   -0.7280    4.2990 h1        1 BHB      0.071000
     35 H202       -2.6170    0.6970    3.6660 h1        1 BHB      0.071000
     36 H203       -2.9430    0.5820    5.2400 h1        1 BHB      0.071000
     37 H191       -1.3740   -1.5300    6.0530 h1        1 BHB      0.071000
     38 H192       -0.0140   -0.7160    6.2410 h1        1 BHB      0.071000
     39 H193       -1.4040   -0.0610    6.6790 h1        1 BHB      0.071000
@<TRIPOS>BOND
     1    1    2 1   
     2    1   21 1   
     3    1   22 1   
     4    2    3 1   
     5    2   13 1   
     6    3    4 1   
     7    3   23 1   
     8    4   14 1   
     9    5    6 1   
    10    5   12 1   
    11    6    7 1   
    12    7    9 1   
    13    8   24 1   
    14    8   25 1   
    15    9   10 1   
    16    9   26 1   
    17   10   11 1   
    18   12   13 1   
    19   13   27 1   
    20   14   15 1   
    21   14   28 1   
    22   14   29 1   
    23   15   16 1   
    24   16   17 1   
    25   16   30 1   
    26   16   31 1   
    27   17   18 1   
    28   17   32 1   
    29   17   33 1   
    30   18   19 1   
    31   18   20 1   
    32   19   34 1   
    33   19   35 1   
    34   19   36 1   
    35   20   37 1   
    36   20   38 1   
    37   20   39 1   
@<TRIPOS>SUBSTRUCTURE
     1 BHB         1 TEMP              0 ****  ****    0 ROOT
