@<TRIPOS>MOLECULE
BHC
   24    21     1     0     0
SMALL
bcc


@<TRIPOS>ATOM
      1 C1         -0.6900   -0.0200   -1.2020 cg        1 BHC     -0.110300
      2 CO1        -1.4440   -0.0230   -2.5150 c1        1 BHC      0.866000
      3 O11        -1.7950   -1.1140   -3.0370 o         1 BHC     -0.894500
      4 O12        -1.7100    1.0640   -3.0910 o         1 BHC     -0.894500
      5 C2          0.6960   -0.0130   -1.1980 ch        1 BHC     -0.110300
      6 CO2         1.4560   -0.0900   -2.5060 c1        1 BHC      0.866000
      7 O21         1.7440   -1.2110   -3.0020 o         1 BHC     -0.894500
      8 O22         1.7910    0.9670   -3.1030 o         1 BHC     -0.894500
      9 C3          1.3860    0.0230    0.0030 cf        1 BHC     -0.126000
     10 CO3         2.8990    0.0170    0.0070 c         1 BHC      0.948800
     11 O31         3.5330    1.1040   -0.0430 o         1 BHC     -0.926300
     12 O32         3.5240   -1.0740    0.0690 o         1 BHC     -0.926300
     13 C4          0.6900    0.0520    1.2010 c1        1 BHC      0.049200
     14 CO4         1.4430    0.0690    2.5140 c1        1 BHC      0.866000
     15 O41         1.6550    1.1600    3.1040 o         1 BHC     -0.894500
     16 O42         1.8600   -1.0080    3.0140 o         1 BHC     -0.894500
     17 C5         -0.6960    0.0450    1.1980 ce        1 BHC     -0.159300
     18 CO5        -1.4550    0.0820    2.5050 c         1 BHC      0.948800
     19 O51        -1.9010   -0.9840    3.0040 o         1 BHC     -0.926300
     20 O52        -1.6490    1.1790    3.0890 o         1 BHC     -0.926300
     21 C6         -1.3860    0.0080   -0.0030 ce        1 BHC     -0.043700
     22 CO6        -2.8970   -0.0580   -0.0050 c         1 BHC      0.929600
     23 O61        -3.5740    1.0030    0.0150 o         1 BHC     -0.926300
     24 O62        -3.4780   -1.1750   -0.0170 o         1 BHC     -0.926300
@<TRIPOS>BOND
     1    1    5 3   
     2    1   21 1   
     3    2    3 2   
     4    2    4 2   
     5    5    9 1   
     6    6    7 2   
     7    6    8 2   
     8    9   10 1   
     9    9   13 2   
    10   10   11 1   
    11   10   12 1   
    12   13   17 2   
    13   14   15 2   
    14   14   16 2   
    15   17   18 1   
    16   17   21 1   
    17   18   19 1   
    18   18   20 1   
    19   21   22 2   
    20   22   23 1   
    21   22   24 1   
@<TRIPOS>SUBSTRUCTURE
     1 BHC         1 TEMP              0 ****  ****    0 ROOT
