@<TRIPOS>MOLECULE
BHD
   15    14     1     0     0
SMALL
bcc


@<TRIPOS>ATOM
      1 N          -0.3700   -0.3870    1.7660 n3        1 BHD     -0.916800
      2 CA         -0.5370    0.4110    0.5630 c3        1 BHD      0.034500
      3 CB          0.3960   -0.0010   -0.6030 c3        1 BHD      0.016100
      4 OB          0.1460   -1.3360   -1.0290 oh        1 BHD     -0.629800
      5 CG          1.8800    0.1200   -0.1910 c         1 BHD      0.885600
      6 OD1         2.3940   -0.8860    0.3980 o         1 BHD     -0.873300
      7 OD2         2.5370    1.1650   -0.4610 o         1 BHD     -0.873300
      8 C          -2.0140    0.4790    0.0730 c         1 BHD      0.918600
      9 O          -2.8340   -0.4320    0.4000 o         1 BHD     -0.873800
     10 OXT        -2.3560    1.4800   -0.6250 o         1 BHD     -0.873800
     11 H          -1.0580   -1.1200    1.7590 hn        1 BHD      0.338300
     12 H2          0.5410   -0.8140    1.7560 hn        1 BHD      0.338300
     13 HA         -0.2380    1.4670    0.8330 h1        1 BHD      0.047700
     14 HB          0.1640    0.6410   -1.4920 h1        1 BHD      0.068700
     15 HOB         0.6290   -1.9070   -0.4150 ho        1 BHD      0.394000
@<TRIPOS>BOND
     1    1    2 1   
     2    1   11 1   
     3    1   12 1   
     4    2    3 1   
     5    2    8 1   
     6    2   13 1   
     7    3    4 1   
     8    3    5 1   
     9    3   14 1   
    10    4   15 1   
    11    5    6 1   
    12    5    7 1   
    13    8    9 1   
    14    8   10 1   
@<TRIPOS>SUBSTRUCTURE
     1 BHD         1 TEMP              0 ****  ****    0 ROOT
