@<TRIPOS>MOLECULE
BHD
   15    14     1     0     0
SMALL
bcc


@<TRIPOS>ATOM
      1 N          -1.5990    0.4430   -0.6450 n3        1 BHD     -0.932800
      2 CA         -0.1770    0.4430   -0.6450 c3        1 BHD      0.040500
      3 CB          0.3270    0.4430    0.7790 c3        1 BHD      0.051100
      4 OB          1.6860    0.8100    0.7960 oh        1 BHD     -0.641800
      5 CG          0.1700   -0.9400    1.3690 c         1 BHD      0.893600
      6 OD1        -0.9160   -1.2740    1.9110 o         1 BHD     -0.870300
      7 OD2         1.1260   -1.7580    1.3190 o         1 BHD     -0.870300
      8 C           0.3270   -0.7910   -1.3580 c         1 BHD      0.903600
      9 O           1.4280   -0.7600   -1.9680 o         1 BHD     -0.870300
     10 OXT        -0.3540   -1.8500   -1.3420 o         1 BHD     -0.870300
     11 H          -1.9040    1.2620   -0.3840 hn        1 BHD      0.351300
     12 H2         -1.9040    0.2600   -1.4860 hn        1 BHD      0.351300
     13 HA          0.1490    1.2400   -1.1060 h1        1 BHD      0.010700
     14 HB         -0.1890    1.0820    1.3070 h1        1 BHD      0.015700
     15 HOB         1.8280    1.3890    1.4540 ho        1 BHD      0.438000
@<TRIPOS>BOND
     1    1    2 1   
     2    1   11 1   
     3    1   12 1   
     4    2    3 1   
     5    2    8 1   
     6    2   13 1   
     7    3    4 1   
     8    3    5 1   
     9    3   14 1   
    10    4   15 1   
    11    5    6 1   
    12    5    7 1   
    13    8    9 1   
    14    8   10 1   
@<TRIPOS>SUBSTRUCTURE
     1 BHD         1 TEMP              0 ****  ****    0 ROOT
