@<TRIPOS>MOLECULE
BHE
   68    69     1     0     0
SMALL
bcc


@<TRIPOS>ATOM
      1 C1         -2.9410   -1.5890    0.1060 c3        1 BHE      0.290900
      2 C2         -3.0540   -2.7640   -0.8890 c3        1 BHE      0.099100
      3 O2         -3.7490   -2.3620   -2.0460 oh        1 BHE     -0.568800
      4 C3         -1.6590   -3.3280   -1.2080 c3        1 BHE      0.084100
      5 O3         -1.7440   -4.4780   -2.0190 oh        1 BHE     -0.578800
      6 C4         -0.9060   -3.6310    0.1000 c3        1 BHE      0.080100
      7 O4         -1.5310   -4.7120    0.7700 oh        1 BHE     -0.596800
      8 C5         -0.8370   -2.3620    0.9580 c3        1 BHE      0.102100
      9 O5         -2.1660   -1.8970    1.2430 os        1 BHE     -0.442600
     10 C6         -0.1810   -2.6170    2.2990 c3        1 BHE     -0.089100
     11 O6         -0.6880    5.4800   -0.7680 oh        1 BHE     -0.592800
     12 C6B         7.4560   -0.1320    0.2390 c3        1 BHE     -0.079400
     13 C5B         6.3090    0.5490   -0.4750 c3        1 BHE     -0.079400
     14 C4B         4.9850    0.2300    0.1860 c3        1 BHE     -0.078400
     15 C3B         3.8370    0.9110   -0.5280 c3        1 BHE     -0.078400
     16 C2B         2.5160    0.5890    0.1350 c3        1 BHE     -0.084400
     17 C1B         1.3790    1.2870   -0.5890 c3        1 BHE      0.133400
     18 C1A        -0.9920    1.4230   -0.4970 c3        1 BHE      0.338900
     19 O5A        -0.9150    2.7880   -0.0900 os        1 BHE     -0.458600
     20 C5A        -2.0900    3.5320   -0.4200 c3        1 BHE      0.071100
     21 C6A        -1.7860    4.9830   -0.0370 c3        1 BHE      0.140400
     22 C4A        -3.2760    2.9720    0.3690 c3        1 BHE      0.083100
     23 O4A        -3.0880    3.0820    1.7680 oh        1 BHE     -0.594800
     24 C3A        -3.4950    1.4960   -0.0090 c3        1 BHE      0.087100
     25 O3A        -4.5140    0.9270    0.7890 oh        1 BHE     -0.589800
     26 C2A        -2.1930    0.6890    0.1400 c3        1 BHE      0.092100
     27 O2A        -2.2890   -0.5350   -0.5880 os        1 BHE     -0.450600
     28 H1         -3.9440   -1.2640    0.5060 h2        1 BHE      0.117700
     29 H2         -3.7020   -3.5630   -0.4300 h1        1 BHE      0.089700
     30 HO2        -3.1910   -1.7230   -2.5090 ho        1 BHE      0.413000
     31 H3         -1.0800   -2.5820   -1.8220 h1        1 BHE      0.089700
     32 HO3        -2.1050   -5.1890   -1.4700 ho        1 BHE      0.415000
     33 H4          0.1280   -4.0060   -0.1360 h1        1 BHE      0.094700
     34 HO4        -2.2870   -4.3500    1.2550 ho        1 BHE      0.411000
     35 H5         -0.2900   -1.5530    0.3920 h1        1 BHE      0.080700
     36 H6          0.8950   -2.8650    2.1390 hc        1 BHE      0.050700
     37 H6A        -0.2590   -1.7070    2.9410 hc        1 BHE      0.050700
     38 H6B        -0.6780   -3.4690    2.8210 hc        1 BHE      0.050700
     39 HO6         0.0730    4.9250   -0.5500 ho        1 BHE      0.413000
     40 H6BA        7.2940   -1.2420    0.2400 hc        1 BHE      0.039700
     41 C19         8.7810    0.1860   -0.4200 c3        1 BHE     -0.080400
     42 H6BB        7.4820    0.1990    1.3110 hc        1 BHE      0.039700
     43 H5B         6.4710    1.6590   -0.4750 hc        1 BHE      0.040700
     44 H5BA        6.2830    0.2180   -1.5460 hc        1 BHE      0.040700
     45 H4B         4.8220   -0.8800    0.1870 hc        1 BHE      0.041700
     46 H4BA        5.0100    0.5610    1.2580 hc        1 BHE      0.041700
     47 H3B         4.0000    2.0210   -0.5280 hc        1 BHE      0.042200
     48 H3BA        3.8130    0.5800   -1.6010 hc        1 BHE      0.042200
     49 H2B         2.3370   -0.5180    0.1290 hc        1 BHE      0.054200
     50 H2BA        2.5300    0.9170    1.2070 hc        1 BHE      0.054200
     51 H1B         1.3300    0.9740   -1.6660 h1        1 BHE      0.037700
     52 H1BA        1.4790    2.4020   -0.5290 h1        1 BHE      0.037700
     53 H1A        -1.0040    1.3470   -1.6190 h2        1 BHE      0.060700
     54 H5A        -2.2890    3.4530   -1.5240 h1        1 BHE      0.066700
     55 H6AA       -1.5950    5.0500    1.0670 h1        1 BHE      0.063200
     56 H6AB       -2.6530    5.6370   -0.3200 h1        1 BHE      0.063200
     57 H4A        -4.2120    3.5610    0.1620 h1        1 BHE      0.100700
     58 HO4A       -2.1850    2.7890    1.9600 ho        1 BHE      0.418000
     59 H3A        -3.8770    1.4110   -1.0650 h1        1 BHE      0.095700
     60 HO3A       -4.3510    1.1960    1.7050 ho        1 BHE      0.420000
     61 H2A        -1.9830    0.4810    1.2260 h1        1 BHE      0.089700
     62 H34         8.7540   -0.1440   -1.4920 hc        1 BHE      0.038700
     63 H35         8.9410    1.2970   -0.4220 hc        1 BHE      0.038700
     64 C20         9.9270   -0.4890    0.2880 c3        1 BHE     -0.093100
     65 H36         9.9870   -0.1540    1.3510 hc        1 BHE      0.033033
     66 H37         9.7990   -1.5990    0.2780 hc        1 BHE      0.033033
     67 H38        10.8940   -0.2420   -0.2150 hc        1 BHE      0.033033
     68 O1          0.1750    0.8810    0.0760 os        1 BHE     -0.412600
@<TRIPOS>BOND
     1    1    2 1   
     2    1    9 1   
     3    1   27 1   
     4    1   28 1   
     5    2    3 1   
     6    2    4 1   
     7    2   29 1   
     8    3   30 1   
     9    4    5 1   
    10    4    6 1   
    11    4   31 1   
    12    5   32 1   
    13    6    7 1   
    14    6    8 1   
    15    6   33 1   
    16    7   34 1   
    17    8    9 1   
    18    8   10 1   
    19    8   35 1   
    20   10   36 1   
    21   10   37 1   
    22   10   38 1   
    23   11   21 1   
    24   11   39 1   
    25   12   13 1   
    26   12   40 1   
    27   12   41 1   
    28   12   42 1   
    29   13   14 1   
    30   13   43 1   
    31   13   44 1   
    32   14   15 1   
    33   14   45 1   
    34   14   46 1   
    35   15   16 1   
    36   15   47 1   
    37   15   48 1   
    38   16   17 1   
    39   16   49 1   
    40   16   50 1   
    41   17   51 1   
    42   17   52 1   
    43   17   68 1   
    44   18   19 1   
    45   18   26 1   
    46   18   53 1   
    47   18   68 1   
    48   19   20 1   
    49   20   21 1   
    50   20   22 1   
    51   20   54 1   
    52   21   55 1   
    53   21   56 1   
    54   22   23 1   
    55   22   24 1   
    56   22   57 1   
    57   23   58 1   
    58   24   25 1   
    59   24   26 1   
    60   24   59 1   
    61   25   60 1   
    62   26   27 1   
    63   26   61 1   
    64   41   62 1   
    65   41   63 1   
    66   41   64 1   
    67   64   65 1   
    68   64   66 1   
    69   64   67 1   
@<TRIPOS>SUBSTRUCTURE
     1 BHE         1 TEMP              0 ****  ****    0 ROOT
