@<TRIPOS>MOLECULE
BHE
   68    69     1     0     0
SMALL
bcc


@<TRIPOS>ATOM
      1 C1          2.7220   -2.3240   -2.3280 c3        1 BHE      0.335900
      2 O1         -0.3850    0.0380   -0.3460 os        1 BHE     -0.410600
      3 C2          4.2220   -2.1950   -2.3080 c3        1 BHE      0.135100
      4 O2          4.5910   -0.9460   -2.9280 oh        1 BHE     -0.586800
      5 C3          4.7700   -2.2260   -0.9400 c3        1 BHE      0.062100
      6 O3          6.2290   -2.2800   -1.0180 oh        1 BHE     -0.610800
      7 C4          4.2830   -3.4090   -0.1610 c3        1 BHE      0.088100
      8 O4          4.8530   -4.5850   -0.7110 oh        1 BHE     -0.586800
      9 C5          2.7750   -3.5350   -0.1900 c3        1 BHE      0.153100
     10 O5          2.2390   -3.4980   -1.5440 os        1 BHE     -0.421600
     11 C6          2.3770   -4.8550    0.4630 c3        1 BHE     -0.087100
     12 O6         -1.2380    2.7290   -4.6050 oh        1 BHE     -0.597800
     13 C6B        -4.0640    3.0500    5.4200 c3        1 BHE     -0.079400
     14 C5B        -3.3110    3.3460    4.0830 c3        1 BHE     -0.079400
     15 C4B        -2.5150    2.1000    3.6550 c3        1 BHE     -0.078400
     16 C3B        -1.8140    2.3730    2.2830 c3        1 BHE     -0.078400
     17 C2B        -1.3480    1.0330    1.6630 c3        1 BHE     -0.085400
     18 C1B        -0.7120    1.2980    0.2830 c3        1 BHE      0.134400
     19 C1A         0.1030    0.1590   -1.5570 c3        1 BHE      0.336900
     20 O5A        -1.0630    0.7000   -2.5300 os        1 BHE     -0.462600
     21 C5A        -0.1470    0.8260   -3.8500 c3        1 BHE      0.070100
     22 C6A        -0.9360    1.3800   -4.9020 c3        1 BHE      0.141400
     23 C4A         0.4330   -0.5120   -4.3230 c3        1 BHE      0.081100
     24 O4A        -0.3660   -1.0050   -5.4590 oh        1 BHE     -0.571800
     25 C3A         0.4130   -1.4560   -3.3160 c3        1 BHE      0.139100
     26 O3A        -1.1020   -2.1000   -3.3380 oh        1 BHE     -0.575800
     27 C2A         0.6870   -1.1920   -1.9920 c3        1 BHE      0.085100
     28 O2A         2.1620   -1.1650   -1.7980 os        1 BHE     -0.443600
     29 H1          2.4270   -2.4230   -3.2600 h2        1 BHE      0.100700
     30 H2          4.6110   -2.9350   -2.8250 h1        1 BHE      0.072700
     31 HO2         5.3540   -1.0520   -3.3800 ho        1 BHE      0.421000
     32 H3          4.5050   -1.4000   -0.4690 h1        1 BHE      0.073700
     33 HO3         6.5780   -1.8240   -0.3400 ho        1 BHE      0.413000
     34 H4          4.5740   -3.3200    0.7610 h1        1 BHE      0.041700
     35 HO4         5.5000   -4.8790   -0.1750 ho        1 BHE      0.414000
     36 H5          2.3910   -2.8080    0.3180 h1        1 BHE      0.052700
     37 H6          2.7770   -4.9110    1.3610 hc        1 BHE      0.053700
     38 H6A         2.7010   -5.5990   -0.0850 hc        1 BHE      0.053700
     39 H6B         1.3920   -4.9040    0.5370 hc        1 BHE      0.053700
     40 HO6        -1.6060    3.1140   -5.3160 ho        1 BHE      0.413000
     41 H6BA       -4.5910    2.2350    5.3220 hc        1 BHE      0.040200
     42 C19        -4.9770    4.2010    5.7450 c3        1 BHE     -0.080400
     43 H6BB       -3.4170    2.9350    6.1390 hc        1 BHE      0.040200
     44 H5B        -3.9650    3.5750    3.3820 hc        1 BHE      0.039200
     45 H5BA       -2.6910    4.1050    4.2150 hc        1 BHE      0.039200
     46 H4B        -3.1260    1.3360    3.5640 hc        1 BHE      0.042700
     47 H4BA       -1.8410    1.8970    4.3270 hc        1 BHE      0.042700
     48 H3B        -2.4420    2.8100    1.6780 hc        1 BHE      0.040200
     49 H3BA       -1.0400    2.9550    2.4240 hc        1 BHE      0.040200
     50 H2B        -0.7000    0.6210    2.2400 hc        1 BHE      0.056700
     51 H2BA       -2.1120    0.4400    1.5590 hc        1 BHE      0.056700
     52 H1B        -1.3410    1.7870   -0.2750 h1        1 BHE      0.034700
     53 H1BA        0.1060    1.8300    0.3960 h1        1 BHE      0.034700
     54 H1A         0.8170    0.8100   -1.5390 h2        1 BHE      0.058700
     55 H5A         0.5870    1.4320   -3.6600 h1        1 BHE      0.053700
     56 H6AA       -0.4380    1.3350   -5.7410 h1        1 BHE      0.061200
     57 H6AB       -1.7710    0.8680   -4.9890 h1        1 BHE      0.061200
     58 H4A         1.3550   -0.3750   -4.6150 h1        1 BHE      0.062700
     59 HO4A        0.1430   -1.0600   -6.1720 ho        1 BHE      0.400000
     60 H3A         1.0410   -2.1790   -3.5950 h1        1 BHE      0.099700
     61 HO3A       -1.0530   -2.9700   -3.5450 ho        1 BHE      0.415000
     62 H2A         0.2960   -1.9170   -1.4250 h1        1 BHE      0.105700
     63 H34        -5.5720    4.3730    4.9820 hc        1 BHE      0.038200
     64 H35        -4.4470    4.9920    5.9270 hc        1 BHE      0.038200
     65 C20        -5.8370    3.8470    7.0060 c3        1 BHE     -0.093100
     66 H36        -6.3710    4.6290    7.2690 hc        1 BHE      0.032700
     67 H37        -6.4420    3.0920    6.7920 hc        1 BHE      0.032700
     68 H38        -5.2350    3.5880    7.7570 hc        1 BHE      0.032700
@<TRIPOS>BOND
     1    1    3 1   
     2    1   10 1   
     3    1   28 1   
     4    1   29 1   
     5    2   18 1   
     6    2   19 1   
     7    3    4 1   
     8    3    5 1   
     9    3   30 1   
    10    4   31 1   
    11    5    6 1   
    12    5    7 1   
    13    5   32 1   
    14    6   33 1   
    15    7    8 1   
    16    7    9 1   
    17    7   34 1   
    18    8   35 1   
    19    9   10 1   
    20    9   11 1   
    21    9   36 1   
    22   11   37 1   
    23   11   38 1   
    24   11   39 1   
    25   12   22 1   
    26   12   40 1   
    27   13   14 1   
    28   13   41 1   
    29   13   42 1   
    30   13   43 1   
    31   14   15 1   
    32   14   44 1   
    33   14   45 1   
    34   15   16 1   
    35   15   46 1   
    36   15   47 1   
    37   16   17 1   
    38   16   48 1   
    39   16   49 1   
    40   17   18 1   
    41   17   50 1   
    42   17   51 1   
    43   18   52 1   
    44   18   53 1   
    45   19   20 1   
    46   19   27 1   
    47   19   54 1   
    48   20   21 1   
    49   21   22 1   
    50   21   23 1   
    51   21   55 1   
    52   22   56 1   
    53   22   57 1   
    54   23   24 1   
    55   23   25 1   
    56   23   58 1   
    57   24   59 1   
    58   25   26 1   
    59   25   27 1   
    60   25   60 1   
    61   26   61 1   
    62   27   28 1   
    63   27   62 1   
    64   42   63 1   
    65   42   64 1   
    66   42   65 1   
    67   65   66 1   
    68   65   67 1   
    69   65   68 1   
@<TRIPOS>SUBSTRUCTURE
     1 BHE         1 TEMP              0 ****  ****    0 ROOT
