@<TRIPOS>MOLECULE
BHF
   33    36     1     0     0
SMALL
bcc


@<TRIPOS>ATOM
      1 C8          1.3040   -1.9410   -0.0290 cc        1 BHF     -0.312200
      2 C9         -0.0010   -2.6000   -0.0420 c         1 BHF      0.589900
      3 O2         -0.1300   -3.8330   -0.0650 o         1 BHF     -0.547100
      4 C10        -1.1390   -1.6700   -0.0260 ca        1 BHF     -0.219600
      5 C11        -2.4740   -2.1560   -0.0460 ca        1 BHF     -0.058000
      6 C12        -3.5340   -1.2900   -0.0340 ca        1 BHF     -0.152000
      7 C13        -3.3250    0.1190    0.0000 ca        1 BHF      0.003000
      8 C14        -4.4150    1.0300    0.0140 ca        1 BHF     -0.130000
      9 C15        -4.1930    2.3870    0.0470 ca        1 BHF     -0.108000
     10 C16        -2.8750    2.8970    0.0680 ca        1 BHF     -0.137000
     11 C17        -1.8000    2.0400    0.0550 ca        1 BHF     -0.093000
     12 C18        -2.0050    0.6360    0.0210 ca        1 BHF     -0.062000
     13 C19        -0.9210   -0.3010    0.0060 ca        1 BHF      0.166100
     14 O1          0.3400    0.2700    0.0290 os        1 BHF     -0.222200
     15 C7          1.4280   -0.5940    0.0090 cd        1 BHF      0.190900
     16 C1          2.6920    0.1430    0.0240 ca        1 BHF     -0.077800
     17 C2          2.7690    1.4370   -0.5130 ca        1 BHF     -0.093000
     18 C3          3.9820    2.1220   -0.5110 ca        1 BHF     -0.135500
     19 C4          5.1220    1.5270    0.0280 ca        1 BHF     -0.108000
     20 C5          5.0480    0.2430    0.5700 ca        1 BHF     -0.135500
     21 C6          3.8390   -0.4490    0.5720 ca        1 BHF     -0.093000
     22 H8          2.1890   -2.5930   -0.0610 ha        1 BHF      0.169000
     23 H11        -2.6180   -3.2490   -0.0720 ha        1 BHF      0.162000
     24 H12        -4.5680   -1.6650   -0.0490 ha        1 BHF      0.141000
     25 H14        -5.4380    0.6260   -0.0020 ha        1 BHF      0.138000
     26 H15        -5.0390    3.0910    0.0580 ha        1 BHF      0.136000
     27 H16        -2.7210    3.9860    0.0960 ha        1 BHF      0.137000
     28 H17        -0.7670    2.4210    0.0730 ha        1 BHF      0.146000
     29 H2          1.8650    1.9050   -0.9340 ha        1 BHF      0.145000
     30 H3          4.0380    3.1350   -0.9370 ha        1 BHF      0.138500
     31 H4          6.0790    2.0690    0.0280 ha        1 BHF      0.137000
     32 H5          5.9460   -0.2260    1.0000 ha        1 BHF      0.138500
     33 H6          3.7840   -1.4580    1.0090 ha        1 BHF      0.145000
@<TRIPOS>BOND
     1    1    2 1   
     2    1   15 2   
     3    1   22 1   
     4    2    3 2   
     5    2    4 1   
     6    4    5 ar  
     7    4   13 ar  
     8    5    6 ar  
     9    5   23 1   
    10    6    7 ar  
    11    6   24 1   
    12    7    8 ar  
    13    7   12 ar  
    14    8    9 ar  
    15    8   25 1   
    16    9   10 ar  
    17    9   26 1   
    18   10   11 ar  
    19   10   27 1   
    20   11   12 ar  
    21   11   28 1   
    22   12   13 ar  
    23   13   14 1   
    24   14   15 1   
    25   15   16 1   
    26   16   17 ar  
    27   16   21 ar  
    28   17   18 ar  
    29   17   29 1   
    30   18   19 ar  
    31   18   30 1   
    32   19   20 ar  
    33   19   31 1   
    34   20   21 ar  
    35   20   32 1   
    36   21   33 1   
@<TRIPOS>SUBSTRUCTURE
     1 BHF         1 TEMP              0 ****  ****    0 ROOT
