@<TRIPOS>MOLECULE
BHF
   33    36     1     0     0
SMALL
bcc


@<TRIPOS>ATOM
      1 C8          0.0720    0.0780   -0.1060 cc        1 BHF     -0.312200
      2 C9          1.5340    0.0880   -0.1210 c         1 BHF      0.589900
      3 O2          2.1930    0.1190   -1.1700 o         1 BHF     -0.547100
      4 C10         2.1440    0.0550    1.2150 ca        1 BHF     -0.219600
      5 C11         3.5570    0.0500    1.3680 ca        1 BHF     -0.058000
      6 C12         4.1250    0.0180    2.6120 ca        1 BHF     -0.152000
      7 C13         3.3150   -0.0100    3.7850 ca        1 BHF      0.003000
      8 C14         3.8910   -0.0430    5.0830 ca        1 BHF     -0.130000
      9 C15         3.0930   -0.0690    6.2020 ca        1 BHF     -0.108000
     10 C16         1.6850   -0.0640    6.0790 ca        1 BHF     -0.137000
     11 C17         1.0990   -0.0330    4.8350 ca        1 BHF     -0.093000
     12 C18         1.9030   -0.0060    3.6670 ca        1 BHF     -0.062000
     13 C19         1.3440    0.0280    2.3480 ca        1 BHF      0.166100
     14 O1         -0.0400    0.0320    2.3040 os        1 BHF     -0.222200
     15 C7         -0.6340    0.0570    1.0480 cd        1 BHF      0.190900
     16 C1         -2.0940    0.0460    1.1520 ca        1 BHF     -0.077800
     17 C2         -2.7260   -0.5480    2.2540 ca        1 BHF     -0.093000
     18 C3         -4.1170   -0.5700    2.3330 ca        1 BHF     -0.135500
     19 C4         -4.8850    0.0020    1.3190 ca        1 BHF     -0.108000
     20 C5         -4.2600    0.6000    0.2240 ca        1 BHF     -0.135500
     21 C6         -2.8700    0.6260    0.1380 ca        1 BHF     -0.093000
     22 H8         -0.4340    0.0800   -1.0820 ha        1 BHF      0.169000
     23 H11         4.1690    0.0720    0.4510 ha        1 BHF      0.162000
     24 H12         5.2190    0.0130    2.7320 ha        1 BHF      0.141000
     25 H14         4.9880   -0.0470    5.1720 ha        1 BHF      0.138000
     26 H15         3.5420   -0.0940    7.2070 ha        1 BHF      0.136000
     27 H16         1.0660   -0.0840    6.9880 ha        1 BHF      0.137000
     28 H17         0.0030   -0.0260    4.7220 ha        1 BHF      0.146000
     29 H2         -2.1160   -0.9940    3.0550 ha        1 BHF      0.145000
     30 H3         -4.6080   -1.0400    3.1980 ha        1 BHF      0.138500
     31 H4         -5.9830   -0.0170    1.3830 ha        1 BHF      0.137000
     32 H5         -4.8650    1.0560   -0.5740 ha        1 BHF      0.138500
     33 H6         -2.3820    1.1070   -0.7240 ha        1 BHF      0.145000
@<TRIPOS>BOND
     1    1    2 1   
     2    1   15 2   
     3    1   22 1   
     4    2    3 2   
     5    2    4 1   
     6    4    5 ar  
     7    4   13 ar  
     8    5    6 ar  
     9    5   23 1   
    10    6    7 ar  
    11    6   24 1   
    12    7    8 ar  
    13    7   12 ar  
    14    8    9 ar  
    15    8   25 1   
    16    9   10 ar  
    17    9   26 1   
    18   10   11 ar  
    19   10   27 1   
    20   11   12 ar  
    21   11   28 1   
    22   12   13 ar  
    23   13   14 1   
    24   14   15 1   
    25   15   16 1   
    26   16   17 ar  
    27   16   21 ar  
    28   17   18 ar  
    29   17   29 1   
    30   18   19 ar  
    31   18   30 1   
    32   19   20 ar  
    33   19   31 1   
    34   20   21 ar  
    35   20   32 1   
    36   21   33 1   
@<TRIPOS>SUBSTRUCTURE
     1 BHF         1 TEMP              0 ****  ****    0 ROOT
