@<TRIPOS>MOLECULE
BHF
   33    26     1     0     0
SMALL
bcc


@<TRIPOS>ATOM
      1 C8         -0.3310    0.0220   -2.3110 c1        1 BHF     -0.293000
      2 C9          1.0420    0.0490   -2.3320 c1        1 BHF      0.311000
      3 O2          1.6320    0.1360   -3.3900 o         1 BHF     -0.308000
      4 C10         1.7570    0.0200   -1.1370 c1        1 BHF     -0.199000
      5 C11         3.1700    0.0460   -1.1560 c2        1 BHF     -0.058000
      6 C12         3.8830    0.0160    0.0380 c1        1 BHF     -0.152000
      7 C13         3.1950   -0.0420    1.2710 c1        1 BHF     -0.029500
      8 C14         3.9160   -0.0500    2.4790 c1        1 BHF     -0.111500
      9 C15         3.2380   -0.0850    3.6920 c1        1 BHF     -0.118833
     10 C16         1.8460   -0.1110    3.7120 c1        1 BHF     -0.118833
     11 C17         1.1340   -0.1020    2.5190 c1        1 BHF     -0.111500
     12 C18         1.8180   -0.0670    1.2910 c1        1 BHF     -0.029500
     13 C19         1.0860   -0.0360    0.0640 c1        1 BHF      0.121000
     14 O1         -0.3040   -0.0630    0.0830 os        1 BHF     -0.133000
     15 C7         -1.0080   -0.0340   -1.0950 c1        1 BHF      0.135000
     16 C1         -2.3910    0.0040   -1.1530 c1        1 BHF     -0.066000
     17 C2         -3.0530    1.2210   -1.0970 c1        1 BHF     -0.118833
     18 C3         -4.4390    1.2560   -1.0970 c1        1 BHF     -0.118833
     19 C4         -5.1620    0.0750   -1.1540 c1        1 BHF     -0.118833
     20 C5         -4.5000   -1.1410   -1.2110 c1        1 BHF     -0.118833
     21 C6         -3.1150   -1.1770   -1.2100 c1        1 BHF     -0.097000
     22 H8         -0.8330    0.0430   -3.1480 ha        1 BHF      0.169000
     23 H11         3.6460    0.0910   -2.0070 ha        1 BHF      0.162000
     24 H12         4.8590    0.0490    0.0250 ha        1 BHF      0.141000
     25 H14         4.8920   -0.0320    2.4660 ha        1 BHF      0.142000
     26 H15         3.7380   -0.0910    4.5300 ha        1 BHF      0.139000
     27 H16         1.3710   -0.1350    4.5640 ha        1 BHF      0.139000
     28 H17         0.1570   -0.1200    2.5340 ha        1 BHF      0.142000
     29 H2         -2.5430    2.0530   -1.0570 ha        1 BHF      0.139000
     30 H3         -4.9050    2.1130   -1.0580 ha        1 BHF      0.139000
     31 H4         -6.1380    0.1000   -1.1550 ha        1 BHF      0.139000
     32 H5         -5.0100   -1.9730   -1.2510 ha        1 BHF      0.139000
     33 H6         -2.6480   -2.0340   -1.2500 ha        1 BHF      0.143000
@<TRIPOS>BOND
     1    1    2 1   
     2    1   22 1   
     3    2    3 1   
     4    4    5 1   
     5    4   13 1   
     6    5    6 1   
     7    5   23 1   
     8    6   24 1   
     9    7    8 1   
    10    7   12 1   
    11    8   25 1   
    12    9   10 1   
    13    9   26 1   
    14   10   27 1   
    15   11   12 1   
    16   11   28 1   
    17   13   14 1   
    18   14   15 1   
    19   16   21 1   
    20   17   18 1   
    21   17   29 1   
    22   18   30 1   
    23   19   20 1   
    24   19   31 1   
    25   20   32 1   
    26   21   33 1   
@<TRIPOS>SUBSTRUCTURE
     1 BHF         1 TEMP              0 ****  ****    0 ROOT
