@<TRIPOS>MOLECULE
BHG
   42    42     1     0     0
SMALL
bcc


@<TRIPOS>ATOM
      1 C1          1.0710    0.0900    1.1100 c3        1 BHG      0.341900
      2 O1          0.6050    0.2710   -0.1760 os        1 BHG     -0.403600
      3 C2          2.5830    0.0490    1.0820 c3        1 BHG      0.091100
      4 O2          3.0040   -1.1380    0.3820 oh        1 BHG     -0.586800
      5 C3          3.1710    0.0360    2.4440 c3        1 BHG      0.072100
      6 O3          4.6120    0.1800    2.3340 oh        1 BHG     -0.593800
      7 C4          2.6400    1.1380    3.2990 c3        1 BHG      0.085100
      8 O4          3.1290    2.3890    2.7990 oh        1 BHG     -0.596800
      9 C5          1.1220    1.1750    3.3160 c3        1 BHG      0.072100
     10 O5          0.5460    1.1840    1.9700 os        1 BHG     -0.461600
     11 C6          0.6760    2.4060    4.0390 c3        1 BHG      0.141400
     12 O6         -0.6280    2.2110    4.5400 oh        1 BHG     -0.593800
     13 C1'        -0.5260   -0.5080   -0.4880 c3        1 BHG      0.134400
     14 C2'        -0.9090   -0.2830   -1.9340 c3        1 BHG     -0.084400
     15 C3'        -2.2030   -1.0090   -2.2320 c3        1 BHG     -0.078400
     16 C4'        -2.5060   -0.9130   -3.7110 c3        1 BHG     -0.078400
     17 C5'        -3.7860   -1.6610   -4.0130 c3        1 BHG     -0.080400
     18 C6'        -3.9940   -1.7220   -5.5100 c3        1 BHG     -0.093100
     19 H1          0.7380   -0.7650    1.4490 h2        1 BHG      0.064700
     20 H2          2.9130    0.8350    0.6030 h1        1 BHG      0.065700
     21 HO2         3.6730   -0.9360   -0.1680 ho        1 BHG      0.422000
     22 H3          2.9690   -0.8210    2.8680 h1        1 BHG      0.093700
     23 HO3         5.0100   -0.4220    2.8520 ho        1 BHG      0.420000
     24 H4          2.9640    1.0130    4.2130 h1        1 BHG      0.098700
     25 HO4         3.8110    2.6620    3.3000 ho        1 BHG      0.420000
     26 H5          0.7920    0.3910    3.7940 h1        1 BHG      0.065700
     27 H61         0.6780    3.1670    3.4220 h1        1 BHG      0.061700
     28 H62         1.2880    2.5870    4.7830 h1        1 BHG      0.061700
     29 HO6        -0.8150    2.8450    5.1340 ho        1 BHG      0.414000
     30 H1'1       -0.3190   -1.4550   -0.3490 h1        1 BHG      0.035700
     31 H1'2       -1.2720   -0.2480    0.0920 h1        1 BHG      0.035700
     32 H2'1       -0.2020   -0.6260   -2.5160 hc        1 BHG      0.056700
     33 H2'2       -1.0280    0.6750   -2.0950 hc        1 BHG      0.056700
     34 H3'1       -2.1150   -1.9490   -1.9770 hc        1 BHG      0.040700
     35 H3'2       -2.9310   -0.5990   -1.7230 hc        1 BHG      0.040700
     36 H4'1       -2.6100    0.0260   -3.9620 hc        1 BHG      0.042200
     37 H4'2       -1.7700   -1.3070   -4.2210 hc        1 BHG      0.042200
     38 H5'1       -3.7250   -2.5690   -3.6550 hc        1 BHG      0.038700
     39 H5'2       -4.5400   -1.1970   -3.5970 hc        1 BHG      0.038700
     40 H6'1       -4.8450   -2.1670   -5.7040 hc        1 BHG      0.033367
     41 H6'2       -4.0110   -0.8120   -5.8740 hc        1 BHG      0.033367
     42 H6'3       -3.2600   -2.2250   -5.9210 hc        1 BHG      0.033367
@<TRIPOS>BOND
     1    1    2 1   
     2    1    3 1   
     3    1   10 1   
     4    1   19 1   
     5    2   13 1   
     6    3    4 1   
     7    3    5 1   
     8    3   20 1   
     9    4   21 1   
    10    5    6 1   
    11    5    7 1   
    12    5   22 1   
    13    6   23 1   
    14    7    8 1   
    15    7    9 1   
    16    7   24 1   
    17    8   25 1   
    18    9   10 1   
    19    9   11 1   
    20    9   26 1   
    21   11   12 1   
    22   11   27 1   
    23   11   28 1   
    24   12   29 1   
    25   13   14 1   
    26   13   30 1   
    27   13   31 1   
    28   14   15 1   
    29   14   32 1   
    30   14   33 1   
    31   15   16 1   
    32   15   34 1   
    33   15   35 1   
    34   16   17 1   
    35   16   36 1   
    36   16   37 1   
    37   17   18 1   
    38   17   38 1   
    39   17   39 1   
    40   18   40 1   
    41   18   41 1   
    42   18   42 1   
@<TRIPOS>SUBSTRUCTURE
     1 BHG         1 TEMP              0 ****  ****    0 ROOT
