@<TRIPOS>MOLECULE
BHG
   42    42     1     0     0
SMALL
bcc


@<TRIPOS>ATOM
      1 C1         -0.8980    0.4700    0.5900 c3        1 BHG      0.311900
      2 O1          0.3450    0.8030    0.0170 os        1 BHG     -0.423600
      3 C2         -1.9360    1.4450    0.0040 c3        1 BHG      0.086100
      4 O2         -1.7590    2.7460    0.5320 oh        1 BHG     -0.607800
      5 C3         -3.3400    0.9810    0.4170 c3        1 BHG      0.111100
      6 O3         -4.3380    1.7600   -0.2200 oh        1 BHG     -0.607800
      7 C4         -3.5600   -0.4730   -0.0370 c3        1 BHG      0.124100
      8 O4         -3.6140   -0.5760   -1.4480 oh        1 BHG     -0.591800
      9 C5         -2.4160   -1.3610    0.4730 c3        1 BHG      0.111100
     10 O5         -1.1230   -0.8580    0.1340 os        1 BHG     -0.440600
     11 C6         -2.4820   -2.7600   -0.1520 c3        1 BHG      0.143400
     12 O6         -1.4910   -3.6010    0.3960 oh        1 BHG     -0.599800
     13 C1'         1.4430    0.0480    0.5450 c3        1 BHG      0.137400
     14 C2'         2.6890    0.5700   -0.1480 c3        1 BHG     -0.085400
     15 C3'         3.9120   -0.1720    0.3430 c3        1 BHG     -0.078400
     16 C4'         5.1660    0.3360   -0.3370 c3        1 BHG     -0.078400
     17 C5'         6.3930   -0.4040    0.1500 c3        1 BHG     -0.080400
     18 C6'         7.6440    0.0980   -0.5240 c3        1 BHG     -0.093100
     19 H1         -0.8710    0.5040    1.7140 h2        1 BHG      0.048700
     20 H2         -1.8500    1.4590   -1.1180 h1        1 BHG      0.086700
     21 HO2        -0.8680    3.0250    0.2800 ho        1 BHG      0.427000
     22 H3         -3.4550    1.0620    1.5330 h1        1 BHG      0.057700
     23 HO3        -4.1080    2.6860   -0.0660 ho        1 BHG      0.431000
     24 H4         -4.5340   -0.8430    0.3940 h1        1 BHG      0.056700
     25 HO4        -4.2230    0.1110   -1.7550 ho        1 BHG      0.425000
     26 H5         -2.4900   -1.4270    1.5950 h1        1 BHG      0.052700
     27 H61        -3.4600   -3.2410    0.1080 h1        1 BHG      0.067200
     28 H62        -2.3700   -2.6790   -1.2650 h1        1 BHG      0.067200
     29 HO6        -0.6350   -3.2110    0.1720 ho        1 BHG      0.412000
     30 H1'1        1.2820   -1.0400    0.3290 h1        1 BHG      0.037700
     31 H1'2        1.4990    0.2030    1.6550 h1        1 BHG      0.037700
     32 H2'1        2.7960    1.6680    0.0530 hc        1 BHG      0.055200
     33 H2'2        2.5770    0.4440   -1.2560 hc        1 BHG      0.055200
     34 H3'1        3.7940   -1.2700    0.1420 hc        1 BHG      0.041200
     35 H3'2        4.0100   -0.0480    1.4540 hc        1 BHG      0.041200
     36 H4'1        5.2840    1.4330   -0.1360 hc        1 BHG      0.041700
     37 H4'2        5.0680    0.2110   -1.4480 hc        1 BHG      0.041700
     38 H5'1        6.2720   -1.5020   -0.0510 hc        1 BHG      0.039200
     39 H5'2        6.4880   -0.2810    1.2610 hc        1 BHG      0.039200
     40 H6'1        7.7960    1.1850   -0.3160 hc        1 BHG      0.033367
     41 H6'2        8.5370   -0.4610   -0.1520 hc        1 BHG      0.033367
     42 H6'3        7.5780   -0.0400   -1.6310 hc        1 BHG      0.033367
@<TRIPOS>BOND
     1    1    2 1   
     2    1    3 1   
     3    1   10 1   
     4    1   19 1   
     5    2   13 1   
     6    3    4 1   
     7    3    5 1   
     8    3   20 1   
     9    4   21 1   
    10    5    6 1   
    11    5    7 1   
    12    5   22 1   
    13    6   23 1   
    14    7    8 1   
    15    7    9 1   
    16    7   24 1   
    17    8   25 1   
    18    9   10 1   
    19    9   11 1   
    20    9   26 1   
    21   11   12 1   
    22   11   27 1   
    23   11   28 1   
    24   12   29 1   
    25   13   14 1   
    26   13   30 1   
    27   13   31 1   
    28   14   15 1   
    29   14   32 1   
    30   14   33 1   
    31   15   16 1   
    32   15   34 1   
    33   15   35 1   
    34   16   17 1   
    35   16   36 1   
    36   16   37 1   
    37   17   18 1   
    38   17   38 1   
    39   17   39 1   
    40   18   40 1   
    41   18   41 1   
    42   18   42 1   
@<TRIPOS>SUBSTRUCTURE
     1 BHG         1 TEMP              0 ****  ****    0 ROOT
