@<TRIPOS>MOLECULE
BHH
   24    23     1     0     0
SMALL
bcc


@<TRIPOS>ATOM
      1 C4          0.0820   -0.4110   -0.0730 c3        1 BHH     -0.105100
      2 C3          1.5240    0.0220    0.0260 c3        1 BHH     -0.074400
      3 C2          2.0460   -0.2150    1.4380 c3        1 BHH     -0.116400
      4 C1          3.5010    0.2360    1.4950 c3        1 BHH      0.105800
      5 NE          4.0790    0.0230    2.8800 ny        1 BHH     -0.766000
      6 CZ          5.5090    0.4420    2.9850 c2        1 BHH      0.631100
      7 NH1         6.1410    0.2120    4.3760 ny        1 BHH     -0.519500
      8 NH2         6.2940    0.9480    2.1270 n2        1 BHH     -0.610100
      9 OH          5.6190   -0.9240    4.8910 oh        1 BHH     -0.386300
     10 H41        -0.2890   -0.2320   -1.1140 hc        1 BHH      0.065700
     11 H42        -0.0260   -1.4990    0.1540 hc        1 BHH      0.065700
     12 H43        -0.5610    0.1680    0.6320 hc        1 BHH      0.065700
     13 H31         1.6090    1.1110   -0.2310 hc        1 BHH      0.063200
     14 H32         2.1430   -0.5550   -0.7090 hc        1 BHH      0.063200
     15 H21         1.4170    0.3660    2.1640 hc        1 BHH      0.085200
     16 H22         1.9530   -1.3070    1.6840 hc        1 BHH      0.085200
     17 H11         3.5700    1.3360    1.2530 hx        1 BHH      0.119200
     18 H12         4.1160   -0.3660    0.7650 hx        1 BHH      0.119200
     19 HE1         3.5060    0.5520    3.5580 hn        1 BHH      0.491800
     20 HH11        7.1830    0.1530    4.2620 hn        1 BHH      0.519800
     21 HH21        6.0510    1.1890    1.1830 hn        1 BHH      0.549400
     22 HH1         6.2270   -1.2890    5.5890 ho        1 BHH      0.535000
     23 HE3         4.0020   -0.9850    3.1150 hn        1 BHH      0.491800
     24 HH13        5.9020    1.0250    4.9890 hn        1 BHH      0.519800
@<TRIPOS>BOND
     1    1    2 1   
     2    1   10 1   
     3    1   11 1   
     4    1   12 1   
     5    2    3 1   
     6    2   13 1   
     7    2   14 1   
     8    3    4 1   
     9    3   15 1   
    10    3   16 1   
    11    4    5 1   
    12    4   17 1   
    13    4   18 1   
    14    5    6 1   
    15    5   19 1   
    16    5   23 1   
    17    6    7 1   
    18    6    8 2   
    19    7    9 1   
    20    7   20 1   
    21    7   24 1   
    22    8   21 1   
    23    9   22 1   
@<TRIPOS>SUBSTRUCTURE
     1 BHH         1 TEMP              0 ****  ****    0 ROOT
