@<TRIPOS>MOLECULE
BHH
   24    23     1     0     0
SMALL
bcc


@<TRIPOS>ATOM
      1 C4          0.0710   -0.3600   -0.0640 c3        1 BHH     -0.105100
      2 C3          1.5280    0.0210    0.0230 c3        1 BHH     -0.074400
      3 C2          2.0390   -0.1830    1.4430 c3        1 BHH     -0.116400
      4 C1          3.5100    0.2140    1.4870 c3        1 BHH      0.105800
      5 NE          4.0780    0.0310    2.8800 n4        1 BHH     -0.766000
      6 CZ          5.5230    0.3990    2.9730 c2        1 BHH      0.631100
      7 NH1         6.1460    0.1950    4.3730 n4        1 BHH     -0.519500
      8 NH2         6.3270    0.8440    2.0990 n2        1 BHH     -0.610100
      9 OH          5.5800   -0.9000    4.9280 oh        1 BHH     -0.386300
     10 H41        -0.5500    0.2690    0.6170 hc        1 BHH      0.065700
     11 H42        -0.2920   -0.2070   -1.1120 hc        1 BHH      0.065700
     12 H43        -0.0790   -1.4340    0.2040 hc        1 BHH      0.065700
     13 H31         1.6550    1.0960   -0.2760 hc        1 BHH      0.063200
     14 H32         2.1260   -0.6070   -0.6900 hc        1 BHH      0.063200
     15 H21         1.4310    0.4480    2.1460 hc        1 BHH      0.085200
     16 H22         1.9050   -1.2600    1.7300 hc        1 BHH      0.085200
     17 H11         4.1030   -0.4370    0.7810 hx        1 BHH      0.119200
     18 H12         3.6210    1.3010    1.2040 hx        1 BHH      0.119200
     19 HE1         3.5260    0.6070    3.5370 hn        1 BHH      0.491800
     20 HH11        7.1850    0.0930    4.2630 hn        1 BHH      0.519800
     21 HH21        6.0940    1.0590    1.1460 hn        1 BHH      0.549400
     22 HH1         6.1730   -1.2630    5.6390 ho        1 BHH      0.535000
     23 HE3         3.9620   -0.9630    3.1530 hn        1 BHH      0.491800
     24 HH13        5.9370    1.0390    4.9550 hn        1 BHH      0.519800
@<TRIPOS>BOND
     1    1    2 1   
     2    1   10 1   
     3    1   11 1   
     4    1   12 1   
     5    2    3 1   
     6    2   13 1   
     7    2   14 1   
     8    3    4 1   
     9    3   15 1   
    10    3   16 1   
    11    4    5 1   
    12    4   17 1   
    13    4   18 1   
    14    5    6 1   
    15    5   19 1   
    16    5   23 1   
    17    6    7 1   
    18    6    8 2   
    19    7    9 1   
    20    7   20 1   
    21    7   24 1   
    22    8   21 1   
    23    9   22 1   
@<TRIPOS>SUBSTRUCTURE
     1 BHH         1 TEMP              0 ****  ****    0 ROOT
