@<TRIPOS>MOLECULE
BHH
   22    20     1     0     0
SMALL
bcc


@<TRIPOS>ATOM
      1 C4         -3.2330    0.3290   -1.7520 c3        1 BHH     -0.094100
      2 C3         -1.7270    0.2500   -1.7460 c3        1 BHH     -0.079400
      3 C2         -1.2330    0.2120   -0.3270 c3        1 BHH     -0.088400
      4 C1          0.2850    0.0910   -0.3210 c3        1 BHH      0.190800
      5 NE          0.7710    0.1980    1.0390 nh        1 BHH     -0.802000
      6 CZ          2.1740    0.0370    1.3180 c2        1 BHH      0.271000
      7 NH1         2.6590   -1.1950    1.8320 nh        1 BHH     -0.419500
      8 NH2         3.0030    1.0270    1.1010 n1        1 BHH     -0.308000
      9 OH          3.5830   -1.1980    2.8430 oh        1 BHH     -0.413300
     10 H41        -3.5530    0.3570   -2.6740 hc        1 BHH      0.036033
     11 H42        -3.6030   -0.4590   -1.3020 hc        1 BHH      0.036033
     12 H43        -3.5210    1.1430   -1.2790 hc        1 BHH      0.036033
     13 H31        -1.4430   -0.5570   -2.2110 hc        1 BHH      0.042700
     14 H32        -1.3570    1.0360   -2.1990 hc        1 BHH      0.042700
     15 H21        -1.4950    1.0340    0.1310 hc        1 BHH      0.049200
     16 H22        -1.6210   -0.5520    0.1300 hc        1 BHH      0.049200
     17 H11         0.5440   -0.7760   -0.6940 h1        1 BHH      0.038700
     18 H12         0.6750    0.8140   -0.8680 h1        1 BHH      0.038700
     19 HE1         0.1930    0.4240    1.7140 hn        1 BHH      0.402800
     20 HH11        2.3630   -1.9840    1.4810 hn        1 BHH      0.375800
     21 HH21        2.6950    1.8120    0.7740 DU        1 BHH      0.152000
     22 HH1         3.8410   -2.0430    3.0120 ho        1 BHH      0.445000
@<TRIPOS>BOND
     1    1    2 1   
     2    1   10 1   
     3    1   11 1   
     4    1   12 1   
     5    2    3 1   
     6    2   13 1   
     7    2   14 1   
     8    3    4 1   
     9    3   15 1   
    10    3   16 1   
    11    4    5 1   
    12    4   17 1   
    13    4   18 1   
    14    5    6 1   
    15    5   19 1   
    16    6    7 1   
    17    6    8 2   
    18    7    9 1   
    19    7   20 1   
    20    9   22 1   
@<TRIPOS>SUBSTRUCTURE
     1 BHH         1 TEMP              0 ****  ****    0 ROOT
