@<TRIPOS>MOLECULE
BHH
   22    21     1     0     0
SMALL
bcc


@<TRIPOS>ATOM
      1 C4         -0.2840    0.0430    4.6210 c3        1 BHH     -0.093100
      2 C3          0.4610    0.0290    3.3110 c3        1 BHH     -0.079400
      3 C2         -0.4920   -0.0440    2.1360 c3        1 BHH     -0.090400
      4 C1          0.2990   -0.0540    0.8280 c3        1 BHH      0.183800
      5 NE         -0.5620   -0.1680   -0.3340 nh        1 BHH     -0.790200
      6 CZ          0.0590   -0.0670   -1.6200 c2        1 BHH      0.687100
      7 NH1        -0.9340    0.0590   -2.7240 nh        1 BHH     -0.572700
      8 NH2         1.3560   -0.0810   -1.7570 n2        1 BHH     -0.837100
      9 OH         -0.3650   -0.1340   -3.9190 oh        1 BHH     -0.416300
     10 H41         0.4340    0.0950    5.4740 hc        1 BHH      0.034367
     11 H42        -0.9650    0.9260    4.6790 hc        1 BHH      0.034367
     12 H43        -0.9000   -0.8820    4.7340 hc        1 BHH      0.034367
     13 H31         1.0920    0.9530    3.2260 hc        1 BHH      0.043200
     14 H32         1.1580   -0.8500    3.2830 hc        1 BHH      0.043200
     15 H21        -1.1180   -0.9710    2.2170 hc        1 BHH      0.045200
     16 H22        -1.1880    0.8350    2.1630 hc        1 BHH      0.045200
     17 H11         0.9390    0.8760    0.7880 h1        1 BHH      0.054200
     18 H12         0.9950   -0.9410    0.8230 h1        1 BHH      0.054200
     19 HE1        -1.3740    0.4150   -0.2580 hn        1 BHH      0.394800
     20 HH11       -1.6360   -0.6740   -2.6160 hn        1 BHH      0.393800
     21 HH21        1.6830   -0.1240   -2.6990 hn        1 BHH      0.402400
     22 HH1        -0.2770    0.7600   -4.3020 ho        1 BHH      0.428000
@<TRIPOS>BOND
     1    1    2 1   
     2    1   10 1   
     3    1   11 1   
     4    1   12 1   
     5    2    3 1   
     6    2   13 1   
     7    2   14 1   
     8    3    4 1   
     9    3   15 1   
    10    3   16 1   
    11    4    5 1   
    12    4   17 1   
    13    4   18 1   
    14    5    6 1   
    15    5   19 1   
    16    6    7 1   
    17    6    8 2   
    18    7    9 1   
    19    7   20 1   
    20    8   21 1   
    21    9   22 1   
@<TRIPOS>SUBSTRUCTURE
     1 BHH         1 TEMP              0 ****  ****    0 ROOT
