@<TRIPOS>MOLECULE
BHH
   24    23     1     0     0
SMALL
bcc


@<TRIPOS>ATOM
      1 C4          0.0600   -0.3570   -0.0470 c3        1 BHH     -0.105100
      2 C3          1.5140    0.0340    0.0350 c3        1 BHH     -0.074400
      3 C2          2.0370   -0.1860    1.4500 c3        1 BHH     -0.116400
      4 C1          3.5060    0.2210    1.4890 c3        1 BHH      0.105800
      5 NE          4.0840    0.0230    2.8750 n4        1 BHH     -0.766000
      6 CZ          5.5270    0.4000    2.9640 c2        1 BHH      0.631100
      7 NH1         6.1600    0.1850    4.3570 n4        1 BHH     -0.519500
      8 NH2         6.3230    0.8600    2.0900 n2        1 BHH     -0.610100
      9 OH          5.6050   -0.9200    4.9040 oh        1 BHH     -0.386300
     10 H41        -0.3120   -0.1910   -1.0890 hc        1 BHH      0.065700
     11 H42        -0.0810   -1.4350    0.2080 hc        1 BHH      0.065700
     12 H43        -0.5610    0.2590    0.6480 hc        1 BHH      0.065700
     13 H31         1.6320    1.1130   -0.2490 hc        1 BHH      0.063200
     14 H32         2.1120   -0.5800   -0.6890 hc        1 BHH      0.063200
     15 H21         1.4300    0.4310    2.1650 hc        1 BHH      0.085200
     16 H22         1.9120   -1.2680    1.7220 hc        1 BHH      0.085200
     17 H11         3.6080    1.3120    1.2200 hx        1 BHH      0.119200
     18 H12         4.0980   -0.4170    0.7700 hx        1 BHH      0.119200
     19 HE1         3.5330    0.5850    3.5440 hn        1 BHH      0.491800
     20 HH11        7.1990    0.0900    4.2390 hn        1 BHH      0.519800
     21 HH21        6.0820    1.0850    1.1410 hn        1 BHH      0.549400
     22 HH1         6.2050   -1.2870    5.6080 ho        1 BHH      0.535000
     23 HE3         3.9770   -0.9760    3.1360 hn        1 BHH      0.491800
     24 HH13        5.9500    1.0200    4.9500 hn        1 BHH      0.519800
@<TRIPOS>BOND
     1    1    2 1   
     2    1   10 1   
     3    1   11 1   
     4    1   12 1   
     5    2    3 1   
     6    2   13 1   
     7    2   14 1   
     8    3    4 1   
     9    3   15 1   
    10    3   16 1   
    11    4    5 1   
    12    4   17 1   
    13    4   18 1   
    14    5    6 1   
    15    5   19 1   
    16    5   23 1   
    17    6    7 1   
    18    6    8 2   
    19    7    9 1   
    20    7   20 1   
    21    7   24 1   
    22    8   21 1   
    23    9   22 1   
@<TRIPOS>SUBSTRUCTURE
     1 BHH         1 TEMP              0 ****  ****    0 ROOT
