@<TRIPOS>MOLECULE
BHI
   26    29     1     0     0
SMALL
bcc


@<TRIPOS>ATOM
      1 O1          1.4280    0.0000    0.0000 oh        1 BHI     -0.441000
      2 O2         -0.2660    4.7830   -7.5250 o         1 BHI     -0.647500
      3 O3         -0.2990    2.2730   -7.2730 o         1 BHI     -0.647500
      4 O4          1.8040    3.4760   -6.5690 o         1 BHI     -0.647500
      5 P5          0.1970    3.5170   -6.6450 p5        1 BHI      1.015500
      6 O6         -0.4060    3.6460   -5.1590 os        1 BHI     -0.937000
      7 O7          1.7020    2.3320   -4.3020 o         1 BHI     -0.634500
      8 O8         -0.4020    1.1270   -5.0020 o         1 BHI     -0.634500
      9 P9          0.0940    2.3540   -4.3390 p5        1 BHI      1.333000
     10 C10        -0.5090    0.0000    1.4430 c3        1 BHI     -0.497000
     11 C11        -0.5110   -1.2480   -0.7210 c3        1 BHI     -0.594000
     12 C13        -0.5100    1.2500   -0.7200 DU        1 BHI     -0.507000
     13 C14         0.0000    0.0000    0.0000 DU        1 BHI      0.002000
     14 O15        -0.4770    2.4180   -2.8350 os        1 BHI     -0.599000
     15 Br          0.1450   -1.6060    2.3680 br        1 BHI     -0.403000
     16 HO1         0.6710    0.4880   -0.2810 DU        1 BHI      0.330000
     17 H101        0.4810    0.1580    1.0320 DU        1 BHI      0.287000
     18 H102       -1.5920    0.0110    1.4460 h1        1 BHI      0.144000
     19 H111       -0.3990   -0.5790    0.1240 hc        1 BHI      0.169333
     20 H112       -0.0350   -2.1140   -0.2780 hc        1 BHI      0.169333
     21 H113       -0.2350   -1.1870   -1.7670 hc        1 BHI      0.169333
     22 H121       -0.5080    0.4270   -1.6750 DU        1 BHI      0.165000
     23 H122       -0.4860    0.6040   -1.4420 DU        1 BHI      0.165000
     24 H131       -1.1160    1.6600    0.0790 ha        1 BHI      0.070000
     25 H132       -0.2600    2.1490   -0.1700 ha        1 BHI      0.070000
     26 C12        -0.0010    1.2510   -2.1630 c3        1 BHI      0.099000
@<TRIPOS>BOND
     1    1   13 1   
     2    1   16 1   
     3    2    5 1   
     4    3    5 1   
     5    4    5 1   
     6    5    6 1   
     7    6    9 1   
     8    7    9 1   
     9    8    9 1   
    10    9   14 1   
    11   10   13 1   
    12   10   15 1   
    13   10   17 1   
    14   10   18 1   
    15   11   13 1   
    16   11   19 1   
    17   11   20 1   
    18   11   21 1   
    19   12   13 1   
    20   12   22 1   
    21   12   23 1   
    22   12   24 1   
    23   12   25 1   
    24   12   26 1   
    25   13   16 1   
    26   13   17 1   
    27   14   26 1   
    28   22   26 1   
    29   23   26 1   
@<TRIPOS>SUBSTRUCTURE
     1 BHI         1 TEMP              0 ****  ****    0 ROOT
