@<TRIPOS>MOLECULE
BHI
   26    25     1     0     0
SMALL
bcc


@<TRIPOS>ATOM
      1 O1          0.9790   -1.8720    1.4050 oh        1 BHI     -0.664800
      2 O2         -0.0530    5.6160   -3.1310 o         1 BHI     -0.956500
      3 O3          0.9540    3.7970   -4.4570 o         1 BHI     -0.956500
      4 O4          2.1470    4.7000   -2.4970 o         1 BHI     -0.956500
      5 P5          0.7900    4.3650   -3.0670 p5        1 BHI      1.470900
      6 O6          0.0790    3.2970   -2.1430 os        1 BHI     -0.821800
      7 O7          1.8200    2.5420   -0.4790 o         1 BHI     -0.921000
      8 O8          1.5460    1.2930   -2.5880 o         1 BHI     -0.921000
      9 P9          0.8230    2.0570   -1.5050 p5        1 BHI      1.578800
     10 C10        -0.9820   -1.8830    2.7610 c3        1 BHI      0.048000
     11 C11        -0.8820   -3.1560    0.6470 c3        1 BHI     -0.143100
     12 C12         0.2390    0.0090   -0.0680 c3        1 BHI      0.221400
     13 C13        -0.9270   -0.6870    0.6000 c3        1 BHI     -0.193400
     14 C14        -0.4270   -1.8990    1.3540 c3        1 BHI      0.179800
     15 O15        -0.2330    1.1110   -0.8070 os        1 BHI     -0.587200
     16 BR         -0.0270   -0.6000    3.8090 br        1 BHI     -0.350400
     17 HO1         1.2800   -2.6560    1.6970 ho        1 BHI      0.394000
     18 H101       -1.9300   -1.6410    2.7350 h1        1 BHI      0.114700
     19 H102       -0.8830   -2.7700    3.1610 h1        1 BHI      0.114700
     20 H111       -0.5310   -3.9410    1.1170 hc        1 BHI      0.067700
     21 H112       -0.5490   -3.1520   -0.2750 hc        1 BHI      0.067700
     22 H113       -1.8620   -3.1910    0.6400 hc        1 BHI      0.067700
     23 H121        0.8680    0.3190    0.6150 h1        1 BHI     -0.019800
     24 H122        0.6920   -0.6180   -0.6690 h1        1 BHI     -0.019800
     25 H131       -1.3610   -0.0710    1.2240 hc        1 BHI      0.094200
     26 H132       -1.5710   -0.9690   -0.0800 hc        1 BHI      0.094200
@<TRIPOS>BOND
     1    1   14 1   
     2    1   17 1   
     3    2    5 1   
     4    3    5 1   
     5    4    5 1   
     6    5    6 1   
     7    6    9 1   
     8    7    9 1   
     9    8    9 1   
    10    9   15 1   
    11   10   14 1   
    12   10   16 1   
    13   10   18 1   
    14   10   19 1   
    15   11   14 1   
    16   11   20 1   
    17   11   21 1   
    18   11   22 1   
    19   12   13 1   
    20   12   15 1   
    21   12   23 1   
    22   12   24 1   
    23   13   14 1   
    24   13   25 1   
    25   13   26 1   
@<TRIPOS>SUBSTRUCTURE
     1 BHI         1 TEMP              0 ****  ****    0 ROOT
