@<TRIPOS>MOLECULE
BHK
   29    29     1     0     0
SMALL
bcc


@<TRIPOS>ATOM
      1 CAH        -2.9810   -1.5830   -0.0080 ca        1 BHK     -0.132500
      2 CAI        -4.1350   -1.1760   -0.6770 ca        1 BHK     -0.143500
      3 CAJ        -4.2880    0.1550   -1.0600 ca        1 BHK     -0.155000
      4 CAK        -3.2810    1.0770   -0.7710 ca        1 BHK     -0.143500
      5 CAL        -2.1260    0.6750   -0.1030 ca        1 BHK     -0.132500
      6 CAG        -1.9670   -0.6630    0.2860 ca        1 BHK     -0.058300
      7 CAD        -0.7560   -1.1080    1.0290 c3        1 BHK     -0.022100
      8 CAB         0.5370   -0.4730    0.5350 c3        1 BHK     -0.186700
      9 CAC         0.8370    0.8110    1.3590 c         1 BHK      0.903600
     10 OAN         0.6950    1.9220    0.7730 o         1 BHK     -0.835300
     11 OAM         1.2190    0.6780    2.5550 o         1 BHK     -0.835300
     12 CAA         1.6900   -1.4550    0.6800 c3        1 BHK     -0.162400
     13 CAE         2.9160   -1.0150   -0.0590 c         1 BHK      0.555100
     14 OAO         3.4530   -1.7150   -0.9320 o         1 BHK     -0.598100
     15 CAF         3.4940    0.3270    0.3080 c3        1 BHK      0.006400
     16 OAP         4.8310    0.4780   -0.1300 oh        1 BHK     -0.609800
     17 HAH        -2.8660   -2.6350    0.2900 ha        1 BHK      0.160000
     18 HAI        -4.9230   -1.9080   -0.9020 ha        1 BHK      0.115000
     19 HAJ        -5.1960    0.4760   -1.5870 ha        1 BHK      0.109000
     20 HAK        -3.3960    2.1280   -1.0720 ha        1 BHK      0.115000
     21 HAL        -1.3200    1.4040    0.1260 ha        1 BHK      0.160000
     22 HAD        -0.8850   -0.8480    2.1180 hc        1 BHK      0.046700
     23 HADA       -0.6820   -2.2290    0.9670 hc        1 BHK      0.046700
     24 HAB         0.4280   -0.1830   -0.5430 hc        1 BHK      0.049700
     25 HAA         1.9490   -1.5300    1.7740 hc        1 BHK      0.063700
     26 HAAA        1.3890   -2.4720    0.3140 hc        1 BHK      0.063700
     27 HAF         2.8410    1.1370   -0.1300 h1        1 BHK      0.109700
     28 HAFA        3.5120    0.4620    1.4260 h1        1 BHK      0.109700
     29 HOAP        4.8850    0.0950   -1.0150 ho        1 BHK      0.400000
@<TRIPOS>BOND
     1    1    2 ar  
     2    1    6 ar  
     3    1   17 1   
     4    2    3 ar  
     5    2   18 1   
     6    3    4 ar  
     7    3   19 1   
     8    4    5 ar  
     9    4   20 1   
    10    5    6 ar  
    11    5   21 1   
    12    6    7 1   
    13    7    8 1   
    14    7   22 1   
    15    7   23 1   
    16    8    9 1   
    17    8   12 1   
    18    8   24 1   
    19    9   10 1   
    20    9   11 1   
    21   12   13 1   
    22   12   25 1   
    23   12   26 1   
    24   13   14 2   
    25   13   15 1   
    26   15   16 1   
    27   15   27 1   
    28   15   28 1   
    29   16   29 1   
@<TRIPOS>SUBSTRUCTURE
     1 BHK         1 TEMP              0 ****  ****    0 ROOT
