@<TRIPOS>MOLECULE
BHK
   29    26     1     0     0
SMALL
bcc


@<TRIPOS>ATOM
      1 CAH         2.1820    0.6410   -1.3820 c1        1 BHK     -0.089500
      2 CAI         3.5830    0.6750   -1.4430 c1        1 BHK     -0.082500
      3 CAJ         4.3150    1.2630   -0.4090 c1        1 BHK     -0.082500
      4 CAK         3.6570    1.8150    0.6820 c1        1 BHK     -0.082500
      5 CAL         2.2630    1.7830    0.7460 c1        1 BHK     -0.082500
      6 CAG         1.5250    1.1880   -0.3000 c1        1 BHK     -0.024100
      7 CAD        -0.0260    1.2570   -0.2930 c3        1 BHK     -0.056300
      8 CAB        -0.5850    0.0430    0.4090 c3        1 BHK     -0.186700
      9 CAC        -1.1920    0.4590    1.7430 c         1 BHK      0.903600
     10 OAN        -2.1640    1.3180    1.7740 o         1 BHK     -0.835300
     11 OAM        -0.7480   -0.0280    2.8150 o         1 BHK     -0.835300
     12 CAA        -1.6550   -0.5840   -0.4620 c3        1 BHK     -0.162400
     13 CAE        -2.3400   -1.7120    0.2920 c         1 BHK      0.555100
     14 OAO        -1.9830   -1.9970    1.3830 o         1 BHK     -0.598100
     15 CAF        -3.4930   -2.4710   -0.3550 c3        1 BHK      0.006400
     16 OAP        -4.2320   -3.1770    0.6610 oh        1 BHK     -0.609800
     17 HAH         1.6650    0.2260   -2.1150 ha        1 BHK      0.059500
     18 HAI         4.0570    0.2350   -2.1990 ha        1 BHK      0.078000
     19 HAJ         5.3400    1.2860   -0.4550 ha        1 BHK      0.078000
     20 HAK         4.1810    2.2330    1.4200 ha        1 BHK      0.078000
     21 HAL         1.7830    2.2710    1.4860 ha        1 BHK      0.078000
     22 HAD        -0.3510    1.2780   -1.2060 hc        1 BHK      0.046700
     23 HADA       -0.3160    2.0630    0.1730 hc        1 BHK      0.046700
     24 HAB         0.1290   -0.6030    0.5650 hc        1 BHK      0.049700
     25 HAA        -1.2310   -0.9500   -1.2980 hc        1 BHK      0.063700
     26 HAAA       -2.3160    0.0940   -0.7020 hc        1 BHK      0.063700
     27 HAF        -4.0900   -1.8340   -0.8140 h1        1 BHK      0.109700
     28 HAFA       -3.1320   -3.1220   -1.0170 h1        1 BHK      0.109700
     29 HOAP       -4.8270   -3.6460    0.3000 ho        1 BHK      0.400000
@<TRIPOS>BOND
     1    1    6 3   
     2    1   17 1   
     3    2    3 3   
     4    2   18 1   
     5    3   19 1   
     6    4    5 3   
     7    4   20 1   
     8    5   21 1   
     9    6    7 1   
    10    7    8 1   
    11    7   22 1   
    12    7   23 1   
    13    8    9 1   
    14    8   12 1   
    15    8   24 1   
    16    9   10 1   
    17    9   11 1   
    18   12   13 1   
    19   12   25 1   
    20   12   26 1   
    21   13   14 2   
    22   13   15 1   
    23   15   16 1   
    24   15   27 1   
    25   15   28 1   
    26   16   29 1   
@<TRIPOS>SUBSTRUCTURE
     1 BHK         1 TEMP              0 ****  ****    0 ROOT
