@<TRIPOS>MOLECULE
BHK
   29    29     1     0     0
SMALL
bcc


@<TRIPOS>ATOM
      1 CAH         0.1630    0.3980    0.1170 ca        1 BHK     -0.132500
      2 CAI         1.5420    0.2780    0.2820 ca        1 BHK     -0.143500
      3 CAJ         2.0560   -0.4350    1.3640 ca        1 BHK     -0.155000
      4 CAK         1.1840   -1.0280    2.2780 ca        1 BHK     -0.143500
      5 CAL        -0.1950   -0.9100    2.1170 ca        1 BHK     -0.132500
      6 CAG        -0.7180   -0.1930    1.0310 ca        1 BHK     -0.058300
      7 CAD        -2.1880   -0.0280    0.8560 c3        1 BHK     -0.022100
      8 CAB        -2.9920   -1.2780    1.1880 c3        1 BHK     -0.186700
      9 CAC        -3.4380   -1.2330    2.6760 c         1 BHK      0.903600
     10 OAN        -2.8730   -2.0340    3.4760 o         1 BHK     -0.835300
     11 OAM        -4.3450   -0.4190    3.0040 o         1 BHK     -0.835300
     12 CAA        -4.2150   -1.3660    0.2890 c3        1 BHK     -0.162400
     13 CAE        -4.8760   -2.7090    0.3480 c         1 BHK      0.555100
     14 OAO        -5.0480   -3.4110   -0.6620 o         1 BHK     -0.598100
     15 CAF        -5.3460   -3.1830    1.6990 c3        1 BHK      0.006400
     16 OAP        -6.2880   -4.2350    1.6050 oh        1 BHK     -0.609800
     17 HAH        -0.2360    0.9610   -0.7390 ha        1 BHK      0.160000
     18 HAI         2.2230    0.7460   -0.4420 ha        1 BHK      0.115000
     19 HAJ         3.1420   -0.5300    1.4950 ha        1 BHK      0.109000
     20 HAK         1.5840   -1.5920    3.1320 ha        1 BHK      0.115000
     21 HAL        -0.8930   -1.3840    2.8390 ha        1 BHK      0.160000
     22 HAD        -2.5390    0.8070    1.5270 hc        1 BHK      0.046700
     23 HADA       -2.3950    0.2930   -0.2010 hc        1 BHK      0.046700
     24 HAB        -2.3530   -2.1890    1.0380 hc        1 BHK      0.049700
     25 HAA        -3.9390   -1.1440   -0.7750 hc        1 BHK      0.063700
     26 HAAA       -4.9590   -0.5950    0.6350 hc        1 BHK      0.063700
     27 HAF        -4.4490   -3.5090    2.3030 h1        1 BHK      0.109700
     28 HAFA       -5.8580   -2.3510    2.2590 h1        1 BHK      0.109700
     29 HOAP       -5.9830   -4.8270    0.9040 ho        1 BHK      0.400000
@<TRIPOS>BOND
     1    1    2 ar  
     2    1    6 ar  
     3    1   17 1   
     4    2    3 ar  
     5    2   18 1   
     6    3    4 ar  
     7    3   19 1   
     8    4    5 ar  
     9    4   20 1   
    10    5    6 ar  
    11    5   21 1   
    12    6    7 1   
    13    7    8 1   
    14    7   22 1   
    15    7   23 1   
    16    8    9 1   
    17    8   12 1   
    18    8   24 1   
    19    9   10 1   
    20    9   11 1   
    21   12   13 1   
    22   12   25 1   
    23   12   26 1   
    24   13   14 2   
    25   13   15 1   
    26   15   16 1   
    27   15   27 1   
    28   15   28 1   
    29   16   29 1   
@<TRIPOS>SUBSTRUCTURE
     1 BHK         1 TEMP              0 ****  ****    0 ROOT
