@<TRIPOS>MOLECULE
BHL
   21    20     1     0     0
SMALL
bcc


@<TRIPOS>ATOM
      1 BR1        -4.3470   -0.0000   -2.2810 br        1 BHL     -0.178400
      2 C1         -2.4350   -0.0000   -2.2810 c3        1 BHL     -0.009000
      3 C2         -1.9300   -0.0000   -0.8550 c3        1 BHL     -0.081400
      4 C3         -0.4180   -0.0000   -0.8550 c3        1 BHL     -0.080400
      5 C4          0.0870    0.0000    0.5710 c3        1 BHL     -0.078400
      6 C5          1.6000   -0.0000    0.5710 c3        1 BHL     -0.084400
      7 C6          2.1040    0.0000    1.9980 c3        1 BHL      0.132400
      8 O7          3.5140   -0.0000    1.9980 oh        1 BHL     -0.601800
      9 H11        -2.1090    0.7970   -2.7410 h1        1 BHL      0.072700
     10 H12        -2.1090   -0.7970   -2.7410 h1        1 BHL      0.072700
     11 H21        -2.2560   -0.7970   -0.3950 hc        1 BHL      0.055700
     12 H22        -2.2560    0.7970   -0.3950 hc        1 BHL      0.055700
     13 H31        -0.0920   -0.7970   -1.3150 hc        1 BHL      0.043700
     14 H32        -0.0920    0.7970   -1.3150 hc        1 BHL      0.043700
     15 H41        -0.2390   -0.7970    1.0320 hc        1 BHL      0.041700
     16 H42        -0.2390    0.7970    1.0320 hc        1 BHL      0.041700
     17 H51         1.9250    0.7970    0.1110 hc        1 BHL      0.055700
     18 H52         1.9250   -0.7970    0.1110 hc        1 BHL      0.055700
     19 H61         1.7780   -0.7970    2.4580 h1        1 BHL      0.020700
     20 H62         1.7790    0.7970    2.4580 h1        1 BHL      0.020700
     21 HO7         3.8100   -0.0000    2.8350 ho        1 BHL      0.400000
@<TRIPOS>BOND
     1    1    2 1   
     2    2    3 1   
     3    2    9 1   
     4    2   10 1   
     5    3    4 1   
     6    3   11 1   
     7    3   12 1   
     8    4    5 1   
     9    4   13 1   
    10    4   14 1   
    11    5    6 1   
    12    5   15 1   
    13    5   16 1   
    14    6    7 1   
    15    6   17 1   
    16    6   18 1   
    17    7    8 1   
    18    7   19 1   
    19    7   20 1   
    20    8   21 1   
@<TRIPOS>SUBSTRUCTURE
     1 BHL         1 TEMP              0 ****  ****    0 ROOT
