@<TRIPOS>MOLECULE
BHL
   21    20     1     0     0
SMALL
bcc


@<TRIPOS>ATOM
      1 BR1         0.0330    0.0000   -3.0810 br        1 BHL     -0.178400
      2 C1         -0.8250    0.0000   -1.3550 c3        1 BHL     -0.009000
      3 C2          0.1500   -0.0000   -0.2050 c3        1 BHL     -0.081400
      4 C3         -0.5930   -0.0000    1.1160 c3        1 BHL     -0.080400
      5 C4          0.3730   -0.0000    2.2810 c3        1 BHL     -0.078400
      6 C5         -0.3680   -0.0000    3.6000 c3        1 BHL     -0.084400
      7 C6          0.6110   -0.0000    4.7620 c3        1 BHL      0.132400
      8 O7         -0.1600   -0.0000    5.9540 oh        1 BHL     -0.601800
      9 H11        -1.4710   -0.9080   -1.3250 h1        1 BHL      0.072700
     10 H12        -1.4710    0.9090   -1.3250 h1        1 BHL      0.072700
     11 H21         0.8140    0.9040   -0.2610 hc        1 BHL      0.055700
     12 H22         0.8140   -0.9040   -0.2610 hc        1 BHL      0.055700
     13 H31        -1.2560   -0.9030    1.1770 hc        1 BHL      0.043700
     14 H32        -1.2550    0.9030    1.1770 hc        1 BHL      0.043700
     15 H41         1.0370    0.9030    2.2200 hc        1 BHL      0.041700
     16 H42         1.0360   -0.9030    2.2200 hc        1 BHL      0.041700
     17 H51        -1.0290   -0.9020    3.6750 hc        1 BHL      0.055700
     18 H52        -1.0290    0.9020    3.6750 hc        1 BHL      0.055700
     19 H61         1.2640    0.9130    4.7290 h1        1 BHL      0.020700
     20 H62         1.2640   -0.9130    4.7290 h1        1 BHL      0.020700
     21 HO7         0.4660   -0.0000    6.6860 ho        1 BHL      0.400000
@<TRIPOS>BOND
     1    1    2 1   
     2    2    3 1   
     3    2    9 1   
     4    2   10 1   
     5    3    4 1   
     6    3   11 1   
     7    3   12 1   
     8    4    5 1   
     9    4   13 1   
    10    4   14 1   
    11    5    6 1   
    12    5   15 1   
    13    5   16 1   
    14    6    7 1   
    15    6   17 1   
    16    6   18 1   
    17    7    8 1   
    18    7   19 1   
    19    7   20 1   
    20    8   21 1   
@<TRIPOS>SUBSTRUCTURE
     1 BHL         1 TEMP              0 ****  ****    0 ROOT
