@<TRIPOS>MOLECULE
BHM
   31    31     1     0     0
SMALL
bcc


@<TRIPOS>ATOM
      1 BRAI       -0.0820   -0.1640   -0.1190 br        1 BHM     -0.149400
      2 C13         1.8340   -0.2170    0.0290 c3        1 BHM     -0.052000
      3 C11         2.3900   -0.0040    1.4370 c3        1 BHM      0.100800
      4 O11         2.1210    1.3150    1.8960 oh        1 BHM     -0.606800
      5 C12         1.8840   -1.0410    2.4320 c3        1 BHM     -0.134100
      6 C10         3.9330   -0.1710    1.3410 c         1 BHM      0.677100
      7 O10         4.4070   -1.0080    0.5550 o         1 BHM     -0.577100
      8 N09         4.7070    0.5940    2.2020 n         1 BHM     -0.451100
      9 C06         6.1000    0.6090    2.2950 ca        1 BHM      0.115600
     10 C05         6.7040    1.5810    3.1370 ca        1 BHM     -0.159000
     11 C01         6.9380   -0.3010    1.6150 ca        1 BHM     -0.154000
     12 C02         8.3170   -0.2410    1.7740 ca        1 BHM     -0.043000
     13 C03         8.9020    0.7220    2.6110 ca        1 BHM     -0.174200
     14 N08        10.3830    0.7390    2.7450 no        1 BHM      0.317200
     15 O02        11.0200   -0.0760    2.1320 o         1 BHM     -0.195000
     16 O01        10.9030    1.5560    3.4540 o         1 BHM     -0.195000
     17 C04         8.0820    1.6370    3.2950 ca        1 BHM     -0.076300
     18 C07         8.6670    2.7120    4.2230 c3        1 BHM      0.695200
     19 F01         7.7190    3.5190    4.8100 f         1 BHM     -0.221967
     20 F02         9.3710    2.2080    5.2850 f         1 BHM     -0.221967
     21 F03         9.5060    3.5940    3.5960 f         1 BHM     -0.221967
     22 H131        2.1630   -1.2150   -0.3510 h1        1 BHM      0.104200
     23 H132        2.2230    0.5810   -0.6460 h1        1 BHM      0.104200
     24 H11         1.1620    1.3940    1.9890 ho        1 BHM      0.434000
     25 H121        2.1540   -2.0660    2.0820 hc        1 BHM      0.065033
     26 H122        2.3450   -0.8610    3.4330 hc        1 BHM      0.065033
     27 H123        0.7750   -0.9720    2.5370 hc        1 BHM      0.065033
     28 H09         4.2220    1.2950    2.7280 hn        1 BHM      0.347500
     29 H05         6.0780    2.3110    3.6810 ha        1 BHM      0.167000
     30 H01         6.5140   -1.0720    0.9470 ha        1 BHM      0.192000
     31 H02         8.9580   -0.9620    1.2320 ha        1 BHM      0.183000
@<TRIPOS>BOND
     1    1    2 1   
     2    2    3 1   
     3    2   22 1   
     4    2   23 1   
     5    3    4 1   
     6    3    5 1   
     7    3    6 1   
     8    4   24 1   
     9    5   25 1   
    10    5   26 1   
    11    5   27 1   
    12    6    7 2   
    13    6    8 1   
    14    8    9 1   
    15    8   28 1   
    16    9   10 ar  
    17    9   11 ar  
    18   10   17 ar  
    19   10   29 1   
    20   11   12 ar  
    21   11   30 1   
    22   12   13 ar  
    23   12   31 1   
    24   13   14 1   
    25   13   17 ar  
    26   14   15 1   
    27   14   16 1   
    28   17   18 1   
    29   18   19 1   
    30   18   20 1   
    31   18   21 1   
@<TRIPOS>SUBSTRUCTURE
     1 BHM         1 TEMP              0 ****  ****    0 ROOT
