@<TRIPOS>MOLECULE
BHM
   31    29     1     0     0
SMALL
bcc


@<TRIPOS>ATOM
      1 BRAI        1.3490   -4.2200    0.8310 br        1 BHM     -0.006000
      2 C13        -0.5590   -4.1050    0.8210 c3        1 BHM     -0.266000
      3 C11        -0.9980   -3.0850   -0.2080 c3        1 BHM      0.076000
      4 O11        -0.3370   -3.3330   -1.4260 oh        1 BHM     -0.326000
      5 C12        -2.4920   -3.1890   -0.4150 c3        1 BHM     -0.245000
      6 C10        -0.6510   -1.6960    0.2790 c2        1 BHM      0.325000
      7 O10        -0.9650   -1.3510    1.4000 o         1 BHM     -0.339000
      8 N09         0.0580   -0.8040   -0.5660 n         1 BHM     -0.299000
      9 C06         0.4000    0.4940   -0.1010 c2        1 BHM      0.128000
     10 C05         0.3470    1.5750   -0.9660 c1        1 BHM     -0.159000
     11 C01         0.8480    0.6670    1.1980 c2        1 BHM     -0.156000
     12 C02         1.2440    1.9230    1.6330 c1        1 BHM     -0.042000
     13 C03         1.1910    3.0040    0.7690 c1        1 BHM     -0.130000
     14 N08         1.6430    4.2770    1.1980 no        1 BHM      0.572000
     15 O02         1.6250    5.2250    0.4260 o         1 BHM     -0.346500
     16 O01         2.1120    4.4420    2.4700 o         1 BHM     -0.346500
     17 C04         0.7430    2.8310   -0.5300 c1        1 BHM     -0.069000
     18 C07         0.7150    4.0040   -1.4830 c3        1 BHM      0.474000
     19 F01         1.9480    4.5150   -1.5990 f         1 BHM     -0.151000
     20 F02        -0.1150    4.9430   -1.0110 f         1 BHM     -0.151000
     21 F03         0.2880    3.5940   -2.6840 f         1 BHM     -0.151000
     22 H131       -0.8740   -3.8320    1.7060 h1        1 BHM      0.133500
     23 H132       -0.9370   -4.9790    0.5960 h1        1 BHM      0.133500
     24 H11        -0.9280   -3.6020   -2.0340 ho        1 BHM      0.226000
     25 H121       -2.9320   -3.3360    0.4480 hc        1 BHM      0.103667
     26 H122       -2.6880   -3.9390   -1.0140 hc        1 BHM      0.103667
     27 H123       -2.8250   -2.3570   -0.8140 hc        1 BHM      0.103667
     28 H09         0.3130   -1.0710   -1.4000 hn        1 BHM      0.264000
     29 H05         0.0320    1.4530   -1.8790 ha        1 BHM      0.167000
     30 H01         0.8850   -0.0930    1.8070 ha        1 BHM      0.192000
     31 H02         1.5590    2.0450    2.5480 ha        1 BHM      0.182000
@<TRIPOS>BOND
     1    1    2 1   
     2    2    3 1   
     3    2   22 1   
     4    2   23 1   
     5    3    4 1   
     6    3    5 1   
     7    3    6 1   
     8    4   24 1   
     9    5   25 1   
    10    5   26 1   
    11    5   27 1   
    12    6    7 1   
    13    6    8 1   
    14    8    9 1   
    15    8   28 1   
    16    9   10 1   
    17    9   11 1   
    18   10   29 1   
    19   11   12 1   
    20   11   30 1   
    21   12   31 1   
    22   13   14 1   
    23   13   17 1   
    24   14   15 1   
    25   14   16 1   
    26   17   18 1   
    27   18   19 1   
    28   18   20 1   
    29   18   21 1   
@<TRIPOS>SUBSTRUCTURE
     1 BHM         1 TEMP              0 ****  ****    0 ROOT
