@<TRIPOS>MOLECULE
BHM
   31    31     1     0     0
SMALL
bcc


@<TRIPOS>ATOM
      1 BRAI        5.8990   -0.0290    0.2820 br        1 BHM     -0.129400
      2 C13         4.1110   -0.7140    0.4010 c3        1 BHM     -0.057000
      3 C11         3.0520    0.0520   -0.3880 c3        1 BHM      0.103800
      4 O11         2.9580    1.4180   -0.0140 oh        1 BHM     -0.586800
      5 C12         3.3080    0.0240   -1.8910 c3        1 BHM     -0.100100
      6 C10         1.6940   -0.6670   -0.1300 c         1 BHM      0.635100
      7 O10         1.6660   -1.8720    0.1710 o         1 BHM     -0.575100
      8 N09         0.5540    0.1070   -0.2970 n         1 BHM     -0.458100
      9 C06        -0.7760   -0.2940   -0.1540 ca        1 BHM      0.116600
     10 C05        -1.7930    0.6850   -0.3150 ca        1 BHM     -0.161000
     11 C01        -1.1630   -1.6210    0.1350 ca        1 BHM     -0.155000
     12 C02        -2.5060   -1.9500    0.2570 ca        1 BHM     -0.042000
     13 C03        -3.5030   -0.9740    0.0960 ca        1 BHM     -0.174200
     14 N08        -4.9260   -1.3830    0.2380 no        1 BHM      0.317200
     15 O02        -5.1650   -2.5350    0.4850 o         1 BHM     -0.194500
     16 O01        -5.7920   -0.5640    0.1040 o         1 BHM     -0.194500
     17 C04        -3.1350    0.3520   -0.1930 ca        1 BHM     -0.075300
     18 C07        -4.1810    1.4610   -0.3790 c3        1 BHM      0.695200
     19 F01        -3.6420    2.6960   -0.6560 f         1 BHM     -0.221633
     20 F02        -5.0470    1.2410   -1.4170 f         1 BHM     -0.221633
     21 F03        -4.9600    1.6830    0.7250 f         1 BHM     -0.221633
     22 H131        3.8440   -0.7210    1.4850 h1        1 BHM      0.099700
     23 H132        4.1400   -1.7700    0.0360 h1        1 BHM      0.099700
     24 H11         3.1750    1.4890    0.9240 ho        1 BHM      0.421000
     25 H121        4.2880    0.5070   -2.1180 hc        1 BHM      0.065700
     26 H122        3.3210   -1.0330   -2.2480 hc        1 BHM      0.065700
     27 H123        2.5060    0.5880   -2.4240 hc        1 BHM      0.065700
     28 H09         0.7050    1.0740   -0.5100 hn        1 BHM      0.344500
     29 H05        -1.5240    1.7320   -0.5420 ha        1 BHM      0.167000
     30 H01        -0.4070   -2.4160    0.2680 ha        1 BHM      0.192000
     31 H02        -2.7920   -2.9950    0.4830 ha        1 BHM      0.183000
@<TRIPOS>BOND
     1    1    2 1   
     2    2    3 1   
     3    2   22 1   
     4    2   23 1   
     5    3    4 1   
     6    3    5 1   
     7    3    6 1   
     8    4   24 1   
     9    5   25 1   
    10    5   26 1   
    11    5   27 1   
    12    6    7 2   
    13    6    8 1   
    14    8    9 1   
    15    8   28 1   
    16    9   10 ar  
    17    9   11 ar  
    18   10   17 ar  
    19   10   29 1   
    20   11   12 ar  
    21   11   30 1   
    22   12   13 ar  
    23   12   31 1   
    24   13   14 1   
    25   13   17 ar  
    26   14   15 1   
    27   14   16 1   
    28   17   18 1   
    29   18   19 1   
    30   18   20 1   
    31   18   21 1   
@<TRIPOS>SUBSTRUCTURE
     1 BHM         1 TEMP              0 ****  ****    0 ROOT
