@<TRIPOS>MOLECULE
BHM
   31    31     1     0     0
SMALL
bcc


@<TRIPOS>ATOM
      1 BrAI       -0.0790   -0.1620   -0.1270 br        1 BHM     -0.149400
      2 C13         1.8370   -0.2070    0.0200 c3        1 BHM     -0.052000
      3 C11         2.3920   -0.0110    1.4310 c3        1 BHM      0.100800
      4 O11         2.1170    1.3010    1.9070 oh        1 BHM     -0.606800
      5 C12         1.8920   -1.0630    2.4110 c3        1 BHM     -0.134100
      6 C10         3.9370   -0.1680    1.3320 c         1 BHM      0.677100
      7 O10         4.4140   -0.9930    0.5360 o         1 BHM     -0.577100
      8 N09         4.7060    0.5900    2.2030 ns        1 BHM     -0.451100
      9 C06         6.1000    0.6110    2.2960 ca        1 BHM      0.115600
     10 C05         6.6990    1.5760    3.1510 ca        1 BHM     -0.159000
     11 C01         6.9420   -0.2860    1.6050 ca        1 BHM     -0.154000
     12 C02         8.3200   -0.2210    1.7640 ca        1 BHM     -0.043000
     13 C03         8.9010    0.7340    2.6130 ca        1 BHM     -0.174200
     14 N08        10.3820    0.7570    2.7480 no        1 BHM      0.317200
     15 O02        11.0220   -0.0470    2.1240 o         1 BHM     -0.195000
     16 O01        10.8980    1.5670    3.4660 o         1 BHM     -0.195000
     17 C04         8.0760    1.6370    3.3090 ca        1 BHM     -0.076300
     18 C07         8.6560    2.7030    4.2500 c3        1 BHM      0.695200
     19 F01         7.7040    3.4980    4.8470 f         1 BHM     -0.221967
     20 F02         9.3630    2.1900    5.3050 f         1 BHM     -0.221967
     21 F03         9.4910    3.5970    3.6340 f         1 BHM     -0.221967
     22 H131        2.1720   -1.1980   -0.3730 h1        1 BHM      0.104200
     23 H132        2.2220    0.6030   -0.6440 h1        1 BHM      0.104200
     24 H11         1.1570    1.3740    2.0020 ho        1 BHM      0.434000
     25 H121        2.1670   -2.0820    2.0480 hc        1 BHM      0.065033
     26 H122        0.7830   -1.0010    2.5180 hc        1 BHM      0.065033
     27 H123        2.3530   -0.8950    3.4150 hc        1 BHM      0.065033
     28 H09         4.2180    1.2810    2.7390 hn        1 BHM      0.347500
     29 H05         6.0690    2.2950    3.7040 ha        1 BHM      0.167000
     30 H01         6.5220   -1.0510    0.9270 ha        1 BHM      0.192000
     31 H02         8.9650   -0.9320    1.2140 ha        1 BHM      0.183000
@<TRIPOS>BOND
     1    1    2 1   
     2    2    3 1   
     3    2   22 1   
     4    2   23 1   
     5    3    4 1   
     6    3    5 1   
     7    3    6 1   
     8    4   24 1   
     9    5   25 1   
    10    5   26 1   
    11    5   27 1   
    12    6    7 2   
    13    6    8 1   
    14    8    9 1   
    15    8   28 1   
    16    9   10 ar  
    17    9   11 ar  
    18   10   17 ar  
    19   10   29 1   
    20   11   12 ar  
    21   11   30 1   
    22   12   13 ar  
    23   12   31 1   
    24   13   14 1   
    25   13   17 ar  
    26   14   15 1   
    27   14   16 1   
    28   17   18 1   
    29   18   19 1   
    30   18   20 1   
    31   18   21 1   
@<TRIPOS>SUBSTRUCTURE
     1 BHM         1 TEMP              0 ****  ****    0 ROOT
