@<TRIPOS>MOLECULE
BHM
   31    31     1     0     0
SMALL
bcc


@<TRIPOS>ATOM
      1 BRAI       -0.0770   -0.1770   -0.1270 br        1 BHM     -0.149400
      2 C13         1.8390   -0.2220    0.0220 c3        1 BHM     -0.052000
      3 C11         2.3930   -0.0150    1.4320 c3        1 BHM      0.100800
      4 O11         2.1170    1.3000    1.8990 oh        1 BHM     -0.606800
      5 C12         1.8920   -1.0600    2.4200 c3        1 BHM     -0.134100
      6 C10         3.9370   -0.1740    1.3360 c         1 BHM      0.677100
      7 O10         4.4150   -1.0040    0.5460 o         1 BHM     -0.577100
      8 N09         4.7060    0.5900    2.2020 n         1 BHM     -0.451100
      9 C06         6.1000    0.6110    2.2960 ca        1 BHM      0.115600
     10 C05         6.6990    1.5820    3.1440 ca        1 BHM     -0.159000
     11 C01         6.9420   -0.2910    1.6120 ca        1 BHM     -0.154000
     12 C02         8.3200   -0.2260    1.7720 ca        1 BHM     -0.043000
     13 C03         8.9010    0.7360    2.6140 ca        1 BHM     -0.174200
     14 N08        10.3820    0.7600    2.7500 no        1 BHM      0.317200
     15 O02        11.0220   -0.0500    2.1320 o         1 BHM     -0.195000
     16 O01        10.8980    1.5750    3.4620 o         1 BHM     -0.195000
     17 C04         8.0760    1.6440    3.3030 ca        1 BHM     -0.076300
     18 C07         8.6550    2.7160    4.2360 c3        1 BHM      0.695200
     19 F01         7.7030    3.5160    4.8270 f         1 BHM     -0.221967
     20 F02         9.3610    2.2110    5.2960 f         1 BHM     -0.221967
     21 F03         9.4900    3.6060    3.6140 f         1 BHM     -0.221967
     22 H131        2.2250    0.5820   -0.6470 h1        1 BHM      0.104200
     23 H132        2.1730   -1.2160   -0.3630 h1        1 BHM      0.104200
     24 H11         1.1580    1.3740    1.9920 ho        1 BHM      0.434000
     25 H121        0.7820   -0.9970    2.5250 hc        1 BHM      0.065033
     26 H122        2.3510   -0.8840    3.4230 hc        1 BHM      0.065033
     27 H123        2.1660   -2.0820    2.0650 hc        1 BHM      0.065033
     28 H09         4.2180    1.2850    2.7320 hn        1 BHM      0.347500
     29 H05         6.0680    2.3060    3.6910 ha        1 BHM      0.167000
     30 H01         6.5220   -1.0610    0.9400 ha        1 BHM      0.192000
     31 H02         8.9660   -0.9410    1.2270 ha        1 BHM      0.183000
@<TRIPOS>BOND
     1    1    2 1   
     2    2    3 1   
     3    2   22 1   
     4    2   23 1   
     5    3    4 1   
     6    3    5 1   
     7    3    6 1   
     8    4   24 1   
     9    5   25 1   
    10    5   26 1   
    11    5   27 1   
    12    6    7 2   
    13    6    8 1   
    14    8    9 1   
    15    8   28 1   
    16    9   10 ar  
    17    9   11 ar  
    18   10   17 ar  
    19   10   29 1   
    20   11   12 ar  
    21   11   30 1   
    22   12   13 ar  
    23   12   31 1   
    24   13   14 1   
    25   13   17 ar  
    26   14   15 1   
    27   14   16 1   
    28   17   18 1   
    29   18   19 1   
    30   18   20 1   
    31   18   21 1   
@<TRIPOS>SUBSTRUCTURE
     1 BHM         1 TEMP              0 ****  ****    0 ROOT
