@<TRIPOS>MOLECULE
BHN
   52    53     1     0     0
SMALL
bcc


@<TRIPOS>ATOM
      1 C1         -1.2690   -0.2680   -0.1460 ca        1 BHN     -0.197800
      2 C2         -2.2690   -1.1950    0.1650 ca        1 BHN     -0.073000
      3 C3         -2.0030   -2.5610    0.1170 ca        1 BHN     -0.163500
      4 C4         -0.7360   -3.0180   -0.2520 ca        1 BHN     -0.069500
      5 C5          0.2780   -2.1160   -0.5590 ca        1 BHN     -0.198000
      6 C6          0.0160   -0.7390   -0.4890 ca        1 BHN      0.155600
      7 O6          0.9890    0.2050   -0.6950 oh        1 BHN     -0.523100
      8 C7         -1.5490    1.1940   -0.0640 c3        1 BHN      0.184600
      9 N8         -1.1970    1.9380   -1.3280 nx        1 BHN     -0.674400
     10 C9         -1.8780    1.2830   -2.4830 c3        1 BHN      0.088800
     11 C10        -2.0420    2.0810   -3.7800 c3        1 BHN      0.088800
     12 N11        -0.8010    2.6240   -4.3990 nx        1 BHN     -0.674400
     13 C12        -1.1540    3.5750   -5.5160 c3        1 BHN      0.184600
     14 C13        -0.5000    4.8990   -5.3240 ca        1 BHN     -0.197800
     15 C14        -1.0810    5.8610   -4.4880 ca        1 BHN     -0.073000
     16 C15        -0.4870    7.1120   -4.3450 ca        1 BHN     -0.163500
     17 C16         0.6950    7.4130   -5.0270 ca        1 BHN     -0.069500
     18 C17         1.2980    6.4650   -5.8480 ca        1 BHN     -0.198000
     19 C18         0.7020    5.2040   -5.9900 ca        1 BHN      0.155600
     20 O18         1.2450    4.2090   -6.7700 oh        1 BHN     -0.523100
     21 C19        -1.5370    3.3780   -1.1740 c3        1 BHN     -0.049200
     22 C20        -3.0450    3.6970   -1.4630 c         1 BHN      0.907100
     23 O20        -3.2400    4.5910   -2.3280 o         1 BHN     -0.794800
     24 C21         0.1330    1.5460   -4.8410 c3        1 BHN     -0.049200
     25 O21        -3.8990    3.0040   -0.8630 o         1 BHN     -0.794800
     26 C22         0.9530    1.0230   -3.6260 c         1 BHN      0.907100
     27 O22         1.1770   -0.2050   -3.5450 o         1 BHN     -0.794800
     28 O23         1.2930    1.8890   -2.7630 o         1 BHN     -0.794800
     29 H2         -3.2720   -0.8380    0.4480 ha        1 BHN      0.170000
     30 H3         -2.7950   -3.2810    0.3670 ha        1 BHN      0.147000
     31 H4         -0.5350   -4.1000   -0.2990 ha        1 BHN      0.141000
     32 H5          1.2760   -2.4630   -0.8640 ha        1 BHN      0.149000
     33 HO6         1.5640   -0.0810   -1.4350 ho        1 BHN      0.459500
     34 H7         -2.6420    1.4020    0.1510 hx        1 BHN      0.109200
     35 H7A        -0.9160    1.6460    0.7550 hx        1 BHN      0.109200
     36 H9         -1.3080    0.3270   -2.6900 hx        1 BHN      0.126700
     37 H9A        -2.9360    1.0380   -2.1560 hx        1 BHN      0.126700
     38 H10        -2.5210    1.3790   -4.5230 hx        1 BHN      0.126700
     39 H10A       -2.7490    2.9540   -3.6030 hx        1 BHN      0.126700
     40 H12        -0.8290    3.1100   -6.4920 hx        1 BHN      0.109200
     41 H12A       -2.2740    3.7100   -5.5420 hx        1 BHN      0.109200
     42 H14        -2.0090    5.6200   -3.9280 ha        1 BHN      0.170000
     43 H15        -0.9520    7.8630   -3.6880 ha        1 BHN      0.147000
     44 H16         1.1580    8.4050   -4.9110 ha        1 BHN      0.141000
     45 H17         2.2340    6.6950   -6.3770 ha        1 BHN      0.149000
     46 HO18        2.0710    4.5420   -7.1540 ho        1 BHN      0.459500
     47 H19        -0.8840    3.9720   -1.8690 hx        1 BHN      0.090200
     48 H19A       -1.3100    3.6930   -0.1200 hx        1 BHN      0.090200
     49 H21         0.8590    1.9830   -5.5830 hx        1 BHN      0.090200
     50 H21A       -0.4430    0.7120   -5.3180 hx        1 BHN      0.090200
     51 H81        -0.1600    1.8470   -1.4650 hn        1 BHN      0.483800
     52 H111       -0.2800    3.1600   -3.6740 hn        1 BHN      0.483800
@<TRIPOS>BOND
     1    1    2 ar  
     2    1    6 ar  
     3    1    8 1   
     4    2    3 ar  
     5    2   29 1   
     6    3    4 ar  
     7    3   30 1   
     8    4    5 ar  
     9    4   31 1   
    10    5    6 ar  
    11    5   32 1   
    12    6    7 1   
    13    7   33 1   
    14    8    9 1   
    15    8   34 1   
    16    8   35 1   
    17    9   10 1   
    18    9   21 1   
    19    9   51 1   
    20   10   11 1   
    21   10   36 1   
    22   10   37 1   
    23   11   12 1   
    24   11   38 1   
    25   11   39 1   
    26   12   13 1   
    27   12   24 1   
    28   12   52 1   
    29   13   14 1   
    30   13   40 1   
    31   13   41 1   
    32   14   15 ar  
    33   14   19 ar  
    34   15   16 ar  
    35   15   42 1   
    36   16   17 ar  
    37   16   43 1   
    38   17   18 ar  
    39   17   44 1   
    40   18   19 ar  
    41   18   45 1   
    42   19   20 1   
    43   20   46 1   
    44   21   22 1   
    45   21   47 1   
    46   21   48 1   
    47   22   23 1   
    48   22   25 1   
    49   24   26 1   
    50   24   49 1   
    51   24   50 1   
    52   26   27 1   
    53   26   28 1   
@<TRIPOS>SUBSTRUCTURE
     1 BHN         1 TEMP              0 ****  ****    0 ROOT
