@<TRIPOS>MOLECULE
BHN
   52    53     1     0     0
SMALL
bcc


@<TRIPOS>ATOM
      1 C1         -0.7600   -0.0960   -0.2430 ca        1 BHN     -0.195800
      2 C2          0.0210   -0.9020   -1.0820 ca        1 BHN     -0.074500
      3 C3          1.1370   -1.5680   -0.5820 ca        1 BHN     -0.160500
      4 C4          1.4870   -1.4410    0.7640 ca        1 BHN     -0.065000
      5 C5          0.7300   -0.6430    1.6150 ca        1 BHN     -0.220000
      6 C6         -0.3920    0.0340    1.1100 ca        1 BHN      0.156100
      7 O6         -1.1770    0.8410    1.8960 oh        1 BHN     -0.500600
      8 C7         -1.9880    0.5760   -0.7610 c3        1 BHN      0.182100
      9 N8         -1.6680    1.5290   -1.8840 n4        1 BHN     -0.674400
     10 C9         -2.8600    1.6520   -2.7720 c3        1 BHN      0.083800
     11 C10        -2.7970    2.7420   -3.8460 c3        1 BHN      0.083800
     12 N11        -1.6770    2.6420   -4.8260 n4        1 BHN     -0.674400
     13 C12        -1.5940    3.9080   -5.6420 c3        1 BHN      0.182100
     14 C13        -0.3820    4.7040   -5.2960 ca        1 BHN     -0.195800
     15 C14        -0.3490    5.5030   -4.1470 ca        1 BHN     -0.074500
     16 C15         0.7740    6.2750   -3.8620 ca        1 BHN     -0.160500
     17 C16         1.8780    6.2560   -4.7170 ca        1 BHN     -0.065000
     18 C17         1.8720    5.4600   -5.8590 ca        1 BHN     -0.220000
     19 C18         0.7420    4.6800   -6.1450 ca        1 BHN      0.156100
     20 O18         0.6680    3.8650   -7.2500 oh        1 BHN     -0.500600
     21 C19        -1.2140    2.8440   -1.3530 c3        1 BHN     -0.058700
     22 C20        -2.3990    3.8280   -1.0460 c         1 BHN      0.912100
     23 O20        -2.3230    4.9420   -1.6270 o         1 BHN     -0.788800
     24 C21        -1.7790    1.4160   -5.6690 c3        1 BHN     -0.058700
     25 O21        -3.3240    3.3980   -0.3200 o         1 BHN     -0.788800
     26 C22        -1.2730    0.1600   -4.8820 c         1 BHN      0.912100
     27 O22        -1.8790   -0.9100   -5.0690 o         1 BHN     -0.788800
     28 O23        -0.3000    0.3580   -4.0900 o         1 BHN     -0.788800
     29 H2         -0.2390   -1.0040   -2.1550 ha        1 BHN      0.189000
     30 H3          1.7420   -2.1960   -1.2530 ha        1 BHN      0.152500
     31 H4          2.3670   -1.9740    1.1550 ha        1 BHN      0.140500
     32 H5          1.0030   -0.5380    2.6750 ha        1 BHN      0.141500
     33 HO6        -0.8120    0.8400    2.7940 ho        1 BHN      0.433000
     34 H7         -2.5190    1.1720    0.0450 hx        1 BHN      0.111450
     35 H7A        -2.6910   -0.2110   -1.1610 hx        1 BHN      0.111450
     36 H9         -3.7460    1.9170   -2.1130 hx        1 BHN      0.131450
     37 H9A        -3.0260    0.6430   -3.2560 hx        1 BHN      0.131450
     38 H10        -2.7370    3.7670   -3.3520 hx        1 BHN      0.131450
     39 H10A       -3.7680    2.6820   -4.4200 hx        1 BHN      0.131450
     40 H12        -2.5210    4.5220   -5.4550 hx        1 BHN      0.111450
     41 H12A       -1.5750    3.6240   -6.7340 hx        1 BHN      0.111450
     42 H14        -1.2120    5.5180   -3.4480 ha        1 BHN      0.189000
     43 H15         0.7870    6.9010   -2.9560 ha        1 BHN      0.152500
     44 H16         2.7620    6.8720   -4.4880 ha        1 BHN      0.140500
     45 H17         2.7420    5.4370   -6.5310 ha        1 BHN      0.141500
     46 HO18        1.5060    3.9320   -7.7330 ho        1 BHN      0.433000
     47 H19        -0.5320    3.3120   -2.1130 hx        1 BHN      0.088950
     48 H19A       -0.6460    2.6680   -0.4000 hx        1 BHN      0.088950
     49 H21        -2.8390    1.2680   -6.0000 hx        1 BHN      0.088950
     50 H21A       -1.1130    1.5340   -6.5670 hx        1 BHN      0.088950
     51 H81        -0.8890    1.1070   -2.4370 hn        1 BHN      0.471800
     52 H111       -0.7860    2.5380   -4.3010 hn        1 BHN      0.471800
@<TRIPOS>BOND
     1    1    2 ar  
     2    1    6 ar  
     3    1    8 1   
     4    2    3 ar  
     5    2   29 1   
     6    3    4 ar  
     7    3   30 1   
     8    4    5 ar  
     9    4   31 1   
    10    5    6 ar  
    11    5   32 1   
    12    6    7 1   
    13    7   33 1   
    14    8    9 1   
    15    8   34 1   
    16    8   35 1   
    17    9   10 1   
    18    9   21 1   
    19    9   51 1   
    20   10   11 1   
    21   10   36 1   
    22   10   37 1   
    23   11   12 1   
    24   11   38 1   
    25   11   39 1   
    26   12   13 1   
    27   12   24 1   
    28   12   52 1   
    29   13   14 1   
    30   13   40 1   
    31   13   41 1   
    32   14   15 ar  
    33   14   19 ar  
    34   15   16 ar  
    35   15   42 1   
    36   16   17 ar  
    37   16   43 1   
    38   17   18 ar  
    39   17   44 1   
    40   18   19 ar  
    41   18   45 1   
    42   19   20 1   
    43   20   46 1   
    44   21   22 1   
    45   21   47 1   
    46   21   48 1   
    47   22   23 1   
    48   22   25 1   
    49   24   26 1   
    50   24   49 1   
    51   24   50 1   
    52   26   27 1   
    53   26   28 1   
@<TRIPOS>SUBSTRUCTURE
     1 BHN         1 TEMP              0 ****  ****    0 ROOT
