@<TRIPOS>MOLECULE
BHN
   50    51     1     0     0
SMALL
bcc


@<TRIPOS>ATOM
      1 C1         -3.3790   -0.6440   -0.8120 ca        1 BHN     -0.142800
      2 C2         -2.8600   -1.8380   -1.3180 ca        1 BHN     -0.083500
      3 C3         -3.6340   -2.9960   -1.3810 ca        1 BHN     -0.202500
      4 C4         -4.9510   -2.9730   -0.9250 ca        1 BHN     -0.116000
      5 C5         -5.4880   -1.8070   -0.3950 ca        1 BHN     -0.203500
      6 C6         -4.7020   -0.6380   -0.3220 ca        1 BHN      0.182600
      7 O6         -5.3270    0.4470    0.2170 oh        1 BHN     -0.537600
      8 C7         -2.5160    0.5890   -0.8390 c3        1 BHN      0.203100
      9 N8         -1.5430    0.6120    0.2460 n3        1 BHN     -0.731100
     10 C9         -0.2930    1.2670   -0.1230 c3        1 BHN      0.171800
     11 C10         0.8920    0.7820    0.7480 c3        1 BHN      0.171800
     12 N11         2.1760    0.7980    0.0520 n3        1 BHN     -0.731100
     13 C12         3.1940    0.0920    0.8200 c3        1 BHN      0.203100
     14 C13         3.0780   -1.4030    0.7220 ca        1 BHN     -0.142800
     15 C14         2.6950   -2.1480    1.8370 ca        1 BHN     -0.083500
     16 C15         2.6280   -3.5410    1.7900 ca        1 BHN     -0.202500
     17 C16         2.9360   -4.2070    0.6050 ca        1 BHN     -0.116000
     18 C17         3.3100   -3.4930   -0.5260 ca        1 BHN     -0.203500
     19 C18         3.3800   -2.0830   -0.4790 ca        1 BHN      0.182600
     20 O18         3.7600   -1.4800   -1.6370 oh        1 BHN     -0.537600
     21 C19        -2.0950    1.0580    1.5120 c3        1 BHN      0.046800
     22 C20        -2.7160    2.4720    1.5970 c         1 BHN      0.898600
     23 O20        -3.7390    2.7340    0.8840 o         1 BHN     -0.850050
     24 C21         2.5880    2.1340   -0.3500 c3        1 BHN      0.046800
     25 O21        -2.2210    3.2960    2.4110 o         1 BHN     -0.850050
     26 C22         3.9150    2.2760   -1.1330 c         1 BHN      0.898600
     27 O22         4.5750    1.2650   -1.5260 o         1 BHN     -0.850050
     28 O23         4.2970    3.4600   -1.3560 o         1 BHN     -0.850050
     29 H2         -1.8140   -1.8570   -1.6650 ha        1 BHN      0.130500
     30 H3         -3.2040   -3.9220   -1.7830 ha        1 BHN      0.108500
     31 H4         -5.5670   -3.8820   -0.9760 ha        1 BHN      0.101000
     32 H5         -6.5190   -1.7750   -0.0190 ha        1 BHN      0.125500
     33 HO6        -4.6710    1.1620    0.4050 ho        1 BHN      0.503500
     34 H7         -1.9690    0.5820   -1.8270 h1        1 BHN      0.052700
     35 H7A        -3.1710    1.5120   -0.8340 h1        1 BHN      0.052700
     36 H9         -0.0690    1.0330   -1.2020 h1        1 BHN      0.035700
     37 H9A        -0.3680    2.3880   -0.0210 h1        1 BHN      0.035700
     38 H10         0.9190    1.4190    1.6800 h1        1 BHN      0.035700
     39 H10A        0.7110   -0.2840    1.0700 h1        1 BHN      0.035700
     40 H12         4.2130    0.3860    0.4230 h1        1 BHN      0.052700
     41 H12A        3.1630    0.3800    1.9140 h1        1 BHN      0.052700
     42 H14         2.4340   -1.6230    2.7690 ha        1 BHN      0.130500
     43 H15         2.3210   -4.1060    2.6790 ha        1 BHN      0.108500
     44 H16         2.8780   -5.3030    0.5610 ha        1 BHN      0.101000
     45 H17         3.5470   -4.0030   -1.4680 ha        1 BHN      0.125500
     46 HO18        3.7910   -0.5000   -1.5240 ho        1 BHN      0.503500
     47 H19        -2.9070    0.3260    1.7870 h1        1 BHN      0.033450
     48 H19A       -1.2750    0.9880    2.2790 h1        1 BHN      0.033450
     49 H21         1.7810    2.5340   -1.0260 h1        1 BHN      0.033450
     50 H21A        2.6580    2.8260    0.5390 h1        1 BHN      0.033450
@<TRIPOS>BOND
     1    1    2 ar  
     2    1    6 ar  
     3    1    8 1   
     4    2    3 ar  
     5    2   29 1   
     6    3    4 ar  
     7    3   30 1   
     8    4    5 ar  
     9    4   31 1   
    10    5    6 ar  
    11    5   32 1   
    12    6    7 1   
    13    7   33 1   
    14    8    9 1   
    15    8   34 1   
    16    8   35 1   
    17    9   10 1   
    18    9   21 1   
    19   10   11 1   
    20   10   36 1   
    21   10   37 1   
    22   11   12 1   
    23   11   38 1   
    24   11   39 1   
    25   12   13 1   
    26   12   24 1   
    27   13   14 1   
    28   13   40 1   
    29   13   41 1   
    30   14   15 ar  
    31   14   19 ar  
    32   15   16 ar  
    33   15   42 1   
    34   16   17 ar  
    35   16   43 1   
    36   17   18 ar  
    37   17   44 1   
    38   18   19 ar  
    39   18   45 1   
    40   19   20 1   
    41   20   46 1   
    42   21   22 1   
    43   21   47 1   
    44   21   48 1   
    45   22   23 1   
    46   22   25 1   
    47   24   26 1   
    48   24   49 1   
    49   24   50 1   
    50   26   27 1   
    51   26   28 1   
@<TRIPOS>SUBSTRUCTURE
     1 BHN         1 TEMP              0 ****  ****    0 ROOT
