@<TRIPOS>MOLECULE
BHN
   52    53     1     0     0
SMALL
bcc


@<TRIPOS>ATOM
      1 C1         -1.1320   -0.4110   -0.2630 ca        1 BHN     -0.197800
      2 C2         -2.0840   -1.3980    0.0080 ca        1 BHN     -0.073000
      3 C3         -1.7540   -2.7460   -0.1040 ca        1 BHN     -0.163500
      4 C4         -0.4690   -3.1250   -0.4990 ca        1 BHN     -0.069500
      5 C5          0.4980   -2.1620   -0.7680 ca        1 BHN     -0.198000
      6 C6          0.1720   -0.8040   -0.6330 ca        1 BHN      0.155600
      7 O6          1.0980    0.1940   -0.7990 oh        1 BHN     -0.523100
      8 C7         -1.4810    1.0310   -0.1120 c3        1 BHN      0.184600
      9 N8         -1.1730    1.8480   -1.3420 n4        1 BHN     -0.674400
     10 C9         -1.8290    1.2150   -2.5230 c3        1 BHN      0.088800
     11 C10        -2.0380    2.0630   -3.7810 c3        1 BHN      0.088800
     12 N11        -0.8280    2.6930   -4.3800 n4        1 BHN     -0.674400
     13 C12        -1.2330    3.6760   -5.4500 c3        1 BHN      0.184600
     14 C13        -0.6430    5.0200   -5.1980 ca        1 BHN     -0.197800
     15 C14        -1.2650    5.9130   -4.3170 ca        1 BHN     -0.073000
     16 C15        -0.7310    7.1840   -4.1180 ca        1 BHN     -0.163500
     17 C16         0.4310    7.5720   -4.7890 ca        1 BHN     -0.069500
     18 C17         1.0740    6.6940   -5.6570 ca        1 BHN     -0.198000
     19 C18         0.5390    5.4130   -5.8540 ca        1 BHN      0.155600
     20 O18         1.1250    4.4830   -6.6820 oh        1 BHN     -0.523100
     21 C19        -1.5800    3.2610   -1.1200 c3        1 BHN     -0.049200
     22 C20        -3.1030    3.5200   -1.3880 c         1 BHN      0.907100
     23 O20        -3.3470    4.4430   -2.2090 o         1 BHN     -0.794800
     24 C21         0.1530    1.6830   -4.8750 c3        1 BHN     -0.049200
     25 O21        -3.9190    2.7600   -0.8170 o         1 BHN     -0.794800
     26 C22         1.0050    1.1440   -3.6890 c         1 BHN      0.907100
     27 O22         1.2880   -0.0740   -3.6650 o         1 BHN     -0.794800
     28 O23         1.3080    1.9840   -2.7880 o         1 BHN     -0.794800
     29 H2         -3.1020   -1.1030    0.3120 ha        1 BHN      0.170000
     30 H3         -2.5100   -3.5150    0.1160 ha        1 BHN      0.147000
     31 H4         -0.2170   -4.1920   -0.5970 ha        1 BHN      0.141000
     32 H5          1.5100   -2.4470   -1.0930 ha        1 BHN      0.149000
     33 HO6         1.6810   -0.0300   -1.5540 ho        1 BHN      0.459500
     34 H7         -2.5810    1.1760    0.1160 hx        1 BHN      0.109200
     35 H7A        -0.8650    1.4740    0.7240 hx        1 BHN      0.109200
     36 H9         -1.2150    0.2980   -2.7760 hx        1 BHN      0.126700
     37 H9A        -2.8720    0.9050   -2.2040 hx        1 BHN      0.126700
     38 H10        -2.4890    1.3740   -4.5540 hx        1 BHN      0.126700
     39 H10A       -2.7860    2.8930   -3.5610 hx        1 BHN      0.126700
     40 H12        -0.8930    3.2740   -6.4470 hx        1 BHN      0.109200
     41 H12A       -2.3590    3.7580   -5.4650 hx        1 BHN      0.109200
     42 H14        -2.1770    5.6020   -3.7650 ha        1 BHN      0.170000
     43 H15        -1.2270    7.8800   -3.4260 ha        1 BHN      0.147000
     44 H16         0.8470    8.5800   -4.6290 ha        1 BHN      0.141000
     45 H17         1.9950    6.9930   -6.1770 ha        1 BHN      0.149000
     46 HO18        1.9310    4.8730   -7.0520 ho        1 BHN      0.459500
     47 H19        -0.9610    3.9170   -1.7890 hx        1 BHN      0.090200
     48 H19A       -1.3620    3.5370   -0.0530 hx        1 BHN      0.090200
     49 H21         0.8530    2.1880   -5.5990 hx        1 BHN      0.090200
     50 H21A       -0.3850    0.8450   -5.3870 hx        1 BHN      0.090200
     51 H81        -0.1340    1.8140   -1.4870 hn        1 BHN      0.483800
     52 H111       -0.3300    3.2200   -3.6320 hn        1 BHN      0.483800
@<TRIPOS>BOND
     1    1    2 ar  
     2    1    6 ar  
     3    1    8 1   
     4    2    3 ar  
     5    2   29 1   
     6    3    4 ar  
     7    3   30 1   
     8    4    5 ar  
     9    4   31 1   
    10    5    6 ar  
    11    5   32 1   
    12    6    7 1   
    13    7   33 1   
    14    8    9 1   
    15    8   34 1   
    16    8   35 1   
    17    9   10 1   
    18    9   21 1   
    19    9   51 1   
    20   10   11 1   
    21   10   36 1   
    22   10   37 1   
    23   11   12 1   
    24   11   38 1   
    25   11   39 1   
    26   12   13 1   
    27   12   24 1   
    28   12   52 1   
    29   13   14 1   
    30   13   40 1   
    31   13   41 1   
    32   14   15 ar  
    33   14   19 ar  
    34   15   16 ar  
    35   15   42 1   
    36   16   17 ar  
    37   16   43 1   
    38   17   18 ar  
    39   17   44 1   
    40   18   19 ar  
    41   18   45 1   
    42   19   20 1   
    43   20   46 1   
    44   21   22 1   
    45   21   47 1   
    46   21   48 1   
    47   22   23 1   
    48   22   25 1   
    49   24   26 1   
    50   24   49 1   
    51   24   50 1   
    52   26   27 1   
    53   26   28 1   
@<TRIPOS>SUBSTRUCTURE
     1 BHN         1 TEMP              0 ****  ****    0 ROOT
