@<TRIPOS>MOLECULE
BHN
   50    46     1     0     0
SMALL
bcc


@<TRIPOS>ATOM
      1 C1          1.1940   -1.8160    2.2670 c1        1 BHN     -0.113000
      2 C2          2.3420   -2.4480    1.8060 c1        1 BHN     -0.145500
      3 C3          3.6080   -1.9880    2.2110 c1        1 BHN     -0.145500
      4 C4          3.7080   -0.9060    3.0700 c1        1 BHN     -0.145500
      5 C5          2.5560   -0.2740    3.5310 c1        1 BHN     -0.145500
      6 C6          1.2990   -0.7300    3.1290 c1        1 BHN      0.068000
      7 O6          0.1740   -0.1460    3.6280 oh        1 BHN     -0.282000
      8 C7         -0.2310   -2.4330    1.9480 c3        1 BHN     -0.039000
      9 N8         -0.4100   -2.5380    0.4940 n3        1 BHN     -0.260000
     10 C9         -1.4230   -1.5990    0.0680 c3        1 BHN     -0.057000
     11 C10        -0.9870   -0.9320   -1.3070 c3        1 BHN     -0.064000
     12 N11        -1.2770    0.5190   -1.2640 n3        1 BHN     -0.256000
     13 C12        -0.7820    1.1540   -2.5020 c3        1 BHN     -0.048000
     14 C13        -0.3330    2.6210   -2.1950 c2        1 BHN     -0.110000
     15 C14        -1.2710    3.6420   -2.1660 c2        1 BHN     -0.072000
     16 C15        -0.8860    4.9220   -1.8300 c1        1 BHN     -0.180000
     17 C16         0.4300    5.1860   -1.5240 c1        1 BHN     -0.145500
     18 C17         1.3600    4.1730   -1.5530 c1        1 BHN     -0.145500
     19 C18         0.9740    2.8850   -1.8910 c1        1 BHN      0.080000
     20 O18         1.9480    1.8860   -2.0630 oh        1 BHN     -0.282000
     21 C19        -0.8290   -3.8670    0.1610 c3        1 BHN     -0.131000
     22 C20         0.3430   -4.6430   -0.3920 c2        1 BHN      0.324000
     23 O20         1.1440   -4.0880   -1.2000 o         1 BHN     -0.582500
     24 C21        -2.7230    0.7180   -1.1590 c3        1 BHN     -0.133000
     25 O21         0.4980   -5.8600   -0.0840 o         1 BHN     -0.582500
     26 C22        -3.0100    1.9860   -0.3550 c2        1 BHN      0.329000
     27 O22        -4.1610    2.5160   -0.3980 o         1 BHN     -0.585500
     28 O23        -2.1150    2.4810    0.3870 o         1 BHN     -0.585500
     29 H2          2.2710   -3.2070    1.2030 ha        1 BHN      0.128833
     30 H3          4.4000   -2.4220    1.8940 ha        1 BHN      0.128833
     31 H4          4.5880   -0.6000    3.3720 ha        1 BHN      0.128833
     32 H5          2.6250    0.4690    4.1220 ha        1 BHN      0.128833
     33 HO6         0.1120   -0.3170    4.4800 ho        1 BHN      0.229000
     34 H7         -0.9370   -1.8470    2.3270 h1        1 BHN      0.095500
     35 H7A        -0.2970   -3.3130    2.3440 h1        1 BHN      0.095500
     36 H9         -1.5300   -0.8980    0.7530 h1        1 BHN      0.063000
     37 H9A        -2.2650   -2.0670   -0.0510 h1        1 BHN      0.063000
     38 H10        -1.4970   -1.3490   -2.0580 h1        1 BHN      0.064000
     39 H10A       -0.0150   -1.0730   -1.4490 h1        1 BHN      0.064000
     40 H12        -0.0180    0.6420   -2.8490 h1        1 BHN      0.098000
     41 H12A       -1.4890    1.1650   -3.1640 h1        1 BHN      0.098000
     42 H14        -2.2280    3.4480   -2.3880 ha        1 BHN      0.202000
     43 H15        -1.5580    5.6540   -1.8100 ha        1 BHN      0.115000
     44 H16         0.7190    6.1120   -1.3530 ha        1 BHN      0.128833
     45 H17         2.3050    4.3630   -1.3330 ha        1 BHN      0.128833
     46 HO18        2.6370    2.2170   -2.5360 ho        1 BHN      0.238000
     47 H19        -1.5530   -3.8250   -0.5250 h1        1 BHN      0.059000
     48 H19A       -1.1720   -4.3190    0.9750 h1        1 BHN      0.059000
     49 H21        -3.1110    0.8090   -2.0680 h1        1 BHN      0.060500
     50 H21A       -3.1310   -0.0620   -0.7020 h1        1 BHN      0.060500
@<TRIPOS>BOND
     1    1    6 1   
     2    1    8 1   
     3    2    3 1   
     4    2   29 1   
     5    3   30 1   
     6    4    5 1   
     7    4   31 1   
     8    5   32 1   
     9    6    7 1   
    10    7   33 1   
    11    8    9 1   
    12    8   34 1   
    13    8   35 1   
    14    9   10 1   
    15    9   21 1   
    16   10   11 1   
    17   10   36 1   
    18   10   37 1   
    19   11   12 1   
    20   11   38 1   
    21   11   39 1   
    22   12   13 1   
    23   12   24 1   
    24   13   14 1   
    25   13   40 1   
    26   13   41 1   
    27   14   15 1   
    28   14   19 1   
    29   15   16 1   
    30   15   42 1   
    31   16   43 1   
    32   17   18 1   
    33   17   44 1   
    34   18   45 1   
    35   19   20 1   
    36   20   46 1   
    37   21   22 1   
    38   21   47 1   
    39   21   48 1   
    40   22   23 1   
    41   22   25 1   
    42   24   26 1   
    43   24   49 1   
    44   24   50 1   
    45   26   27 1   
    46   26   28 1   
@<TRIPOS>SUBSTRUCTURE
     1 BHN         1 TEMP              0 ****  ****    0 ROOT
