@<TRIPOS>MOLECULE
BHO
   17    17     1     0     0
SMALL
bcc


@<TRIPOS>ATOM
      1 C1          0.0180    0.1220   -0.2460 ca        1 BHO     -0.154600
      2 C2         -1.1250   -0.0370   -1.0420 ca        1 BHO     -0.084500
      3 C3         -1.0020   -0.1280   -2.4270 ca        1 BHO     -0.140500
      4 C4          0.2570   -0.0500   -3.0230 ca        1 BHO     -0.102000
      5 C5          1.3940    0.1220   -2.2330 ca        1 BHO     -0.140500
      6 C6          1.2790    0.2080   -0.8460 ca        1 BHO     -0.084500
      7 C          -0.1680    0.2100    1.2240 c         1 BHO      0.602700
      8 O1         -1.1860    0.6980    1.7430 o         1 BHO     -0.558100
      9 N           0.9310   -0.1890    2.0540 n         1 BHO     -0.348400
     10 O2          0.5960   -0.4580    3.3190 oh        1 BHO     -0.438100
     11 H2         -2.1160   -0.0790   -0.5610 ha        1 BHO      0.150000
     12 H3         -1.9000   -0.2560   -3.0490 ha        1 BHO      0.139000
     13 H4          0.3530   -0.1200   -4.1170 ha        1 BHO      0.137000
     14 H5          2.3850    0.1940   -2.7040 ha        1 BHO      0.139000
     15 H6          2.1840    0.3610   -0.2380 ha        1 BHO      0.150000
     16 HN          1.4130   -1.0030    1.6880 hn        1 BHO      0.297500
     17 HO2         0.3710    0.4030    3.7250 ho        1 BHO      0.436000
@<TRIPOS>BOND
     1    1    2 ar  
     2    1    6 ar  
     3    1    7 1   
     4    2    3 ar  
     5    2   11 1   
     6    3    4 ar  
     7    3   12 1   
     8    4    5 ar  
     9    4   13 1   
    10    5    6 ar  
    11    5   14 1   
    12    6   15 1   
    13    7    8 2   
    14    7    9 1   
    15    9   10 1   
    16    9   16 1   
    17   10   17 1   
@<TRIPOS>SUBSTRUCTURE
     1 BHO         1 TEMP              0 ****  ****    0 ROOT
