@<TRIPOS>MOLECULE
BHO
   18    18     1     0     0
SMALL
bcc


@<TRIPOS>ATOM
      1 C1         -0.1020   -0.0460    0.0330 ca        1 BHO     -0.215600
      2 C2          1.2980    0.0270   -0.1200 ca        1 BHO     -0.056500
      3 C3          2.1180    0.0440    1.0060 ca        1 BHO     -0.123000
      4 C4          1.5580   -0.0160    2.2820 ca        1 BHO     -0.033000
      5 C5          0.1680   -0.0960    2.4360 ca        1 BHO     -0.123000
      6 C6         -0.6620   -0.1110    1.3220 ca        1 BHO     -0.056500
      7 C          -0.8780   -0.0620   -1.1930 c         1 BHO      0.575700
      8 O1         -0.5290   -0.1740   -2.3570 o         1 BHO     -0.423100
      9 N          -2.4100    0.1010   -1.0290 n4        1 BHO     -0.466300
     10 O2         -3.0840    0.3240   -2.1780 oh        1 BHO     -0.359300
     11 H2          1.7400    0.0700   -1.1320 ha        1 BHO      0.151500
     12 H3          3.2130    0.1030    0.8820 ha        1 BHO      0.175500
     13 H4          2.2090   -0.0040    3.1740 ha        1 BHO      0.175000
     14 H5         -0.2690   -0.1500    3.4470 ha        1 BHO      0.175500
     15 H6         -1.7470   -0.1890    1.4850 ha        1 BHO      0.151500
     16 HN         -2.8010   -0.7490   -0.5810 hn        1 BHO      0.480800
     17 HO2        -2.5420    0.0130   -2.9470 ho        1 BHO      0.490000
     18 HN3        -2.6030    0.9210   -0.4200 hn        1 BHO      0.480800
@<TRIPOS>BOND
     1    1    2 ar  
     2    1    6 ar  
     3    1    7 1   
     4    2    3 ar  
     5    2   11 1   
     6    3    4 ar  
     7    3   12 1   
     8    4    5 ar  
     9    4   13 1   
    10    5    6 ar  
    11    5   14 1   
    12    6   15 1   
    13    7    8 2   
    14    7    9 1   
    15    9   10 1   
    16    9   16 1   
    17    9   18 1   
    18   10   17 1   
@<TRIPOS>SUBSTRUCTURE
     1 BHO         1 TEMP              0 ****  ****    0 ROOT
