@<TRIPOS>MOLECULE
BHO
   18    18     1     0     0
SMALL
bcc


@<TRIPOS>ATOM
      1 C1         -0.1070   -0.0050    0.0220 ca        1 BHO     -0.215600
      2 C2          1.2780    0.1830   -0.1640 ca        1 BHO     -0.056500
      3 C3          2.1400    0.1050    0.9280 ca        1 BHO     -0.123000
      4 C4          1.6380   -0.1620    2.2010 ca        1 BHO     -0.033000
      5 C5          0.2630   -0.3560    2.3860 ca        1 BHO     -0.123000
      6 C6         -0.6100   -0.2790    1.3080 ca        1 BHO     -0.056500
      7 C          -0.9300    0.0900   -1.1690 c         1 BHO      0.575700
      8 O1         -0.6220    0.1620   -2.3480 o         1 BHO     -0.423100
      9 N          -2.4610    0.1190   -0.9370 n4        1 BHO     -0.466300
     10 O2         -3.1950    0.4440   -2.0230 oh        1 BHO     -0.359300
     11 H2          1.6740    0.3910   -1.1730 ha        1 BHO      0.151500
     12 H3          3.2230    0.2550    0.7780 ha        1 BHO      0.175500
     13 H4          2.3220   -0.2240    3.0650 ha        1 BHO      0.175000
     14 H5         -0.1290   -0.5730    3.3950 ha        1 BHO      0.175500
     15 H6         -1.6800   -0.4510    1.4940 ha        1 BHO      0.151500
     16 HN         -2.7760   -0.8090   -0.5960 hn        1 BHO      0.480800
     17 HO2        -2.6650    0.2800   -2.8440 ho        1 BHO      0.490000
     18 HN3        -2.6840    0.8340   -0.2170 hn        1 BHO      0.480800
@<TRIPOS>BOND
     1    1    2 ar  
     2    1    6 ar  
     3    1    7 1   
     4    2    3 ar  
     5    2   11 1   
     6    3    4 ar  
     7    3   12 1   
     8    4    5 ar  
     9    4   13 1   
    10    5    6 ar  
    11    5   14 1   
    12    6   15 1   
    13    7    8 2   
    14    7    9 1   
    15    9   10 1   
    16    9   16 1   
    17    9   18 1   
    18   10   17 1   
@<TRIPOS>SUBSTRUCTURE
     1 BHO         1 TEMP              0 ****  ****    0 ROOT
