@<TRIPOS>MOLECULE
BHO
   17    14     1     0     0
SMALL
bcc


@<TRIPOS>ATOM
      1 C1          0.2070    0.0220   -0.2810 cg        1 BHO     -0.103200
      2 C2          1.5950   -0.0450   -0.2500 c1        1 BHO     -0.057250
      3 C3          2.2630   -0.1610    0.9710 c1        1 BHO     -0.057250
      4 C4          1.5430   -0.2080    2.1510 c1        1 BHO     -0.057250
      5 C5          0.1550   -0.1410    2.1210 c1        1 BHO     -0.057250
      6 C6         -0.5130   -0.0250    0.8970 c1        1 BHO     -0.035500
      7 C          -0.5190    0.1000   -1.6090 c         1 BHO      0.551300
      8 O1          0.1110    0.1030   -2.6450 o         1 BHO     -0.558100
      9 N          -1.9520    0.0880   -1.6420 n         1 BHO     -0.348400
     10 O2         -2.6160    0.2180   -2.8490 oh        1 BHO     -0.438100
     11 H2          2.1110   -0.0110   -1.0960 ha        1 BHO      0.085250
     12 H3          3.2400   -0.2080    0.9910 ha        1 BHO      0.085250
     13 H4          2.0080   -0.2890    3.0010 ha        1 BHO      0.085250
     14 H5         -0.3590   -0.1750    2.9620 ha        1 BHO      0.085250
     15 H6         -1.5000    0.0220    0.8740 ha        1 BHO      0.086500
     16 HN         -2.4240    0.0340   -0.8670 hn        1 BHO      0.297500
     17 HO2        -3.3460    0.6760   -2.7310 ho        1 BHO      0.436000
@<TRIPOS>BOND
     1    1    6 3   
     2    1    7 1   
     3    2    3 3   
     4    2   11 1   
     5    3   12 1   
     6    4    5 3   
     7    4   13 1   
     8    5   14 1   
     9    6   15 1   
    10    7    8 2   
    11    7    9 1   
    12    9   10 1   
    13    9   16 1   
    14   10   17 1   
@<TRIPOS>SUBSTRUCTURE
     1 BHO         1 TEMP              0 ****  ****    0 ROOT
