@<TRIPOS>MOLECULE
BHP
   72    67     1     0     0
SMALL
bcc


@<TRIPOS>ATOM
      1 C9         -1.7510    4.8310    1.3010 c3        1 BHP     -0.162000
      2 C8         -2.5000    5.0710    2.6200 c3        1 BHP     -0.154000
      3 C7         -3.9780    4.5800    2.4760 c3        1 BHP     -0.127000
      4 C6         -4.9440    5.7670    2.7150 c2        1 BHP     -0.063000
      5 C1         -5.0140    6.8050    1.7880 c2        1 BHP     -0.126000
      6 C5         -5.7780    5.7720    3.8320 c1        1 BHP     -0.130000
      7 C2         -5.9190    7.8500    1.9780 c1        1 BHP     -0.129000
      8 C4         -6.6810    6.8150    4.0220 c1        1 BHP     -0.135000
      9 C3         -6.7510    7.8550    3.0940 c1        1 BHP     -0.135000
     10 C13         1.3840    2.3940   -0.9050 c1        1 BHP      0.294000
     11 O1          2.4430    2.7560   -1.3890 o         1 BHP     -0.392000
     12 C12         0.9310    2.9570    0.4510 c2        1 BHP     -0.191000
     13 C11         0.5000    4.4270    0.2790 c3        1 BHP     -0.163000
     14 C10        -0.2440    4.8940    1.5470 c3        1 BHP     -0.154000
     15 N           0.5760    1.3650   -1.5870 n3        1 BHP     -0.331000
     16 C14         1.2010    0.1420   -2.0400 c3        1 BHP      0.016000
     17 C15         2.1820   -0.3410   -0.9910 c3        1 BHP     -0.137000
     18 C16         2.1810   -1.8810   -0.9540 c2        1 BHP     -0.054000
     19 C17         1.0170   -2.5750   -0.5880 c2        1 BHP     -0.109000
     20 C18         1.0300   -3.9750   -0.5140 c1        1 BHP     -0.142000
     21 C21         3.3530   -2.5870   -1.2440 c1        1 BHP     -0.120000
     22 C20         3.3670   -3.9880   -1.1700 c1        1 BHP     -0.163000
     23 C19         2.2060   -4.6820   -0.8050 c1        1 BHP      0.026000
     24 O2          2.1990   -6.1280   -0.7970 os        1 BHP     -0.232000
     25 C29         1.9370    0.4010   -3.3320 c3        1 BHP     -0.176000
     26 C30         1.0050    0.1170   -4.5320 c3        1 BHP     -0.237000
     27 C31         1.7590    0.4310   -5.8610 c2        1 BHP      0.332000
     28 O3          2.5350   -0.4340   -6.3700 o         1 BHP     -0.579000
     29 O4T         1.5240    1.5160   -6.4810 o         1 BHP     -0.579000
     30 C22         2.5230   -6.7180    0.4940 c3        1 BHP      0.017000
     31 C23         2.4800   -8.2640    0.3800 c2        1 BHP     -0.076000
     32 C24         1.4000   -8.8790   -0.2080 c2        1 BHP     -0.102000
     33 C28         3.5500   -9.0260    0.8470 c1        1 BHP     -0.132000
     34 C25         1.3720  -10.2630   -0.3370 c1        1 BHP     -0.134000
     35 C27         3.5260  -10.4050    0.7200 c1        1 BHP     -0.135000
     36 C26         2.4410  -11.0260    0.1300 c1        1 BHP     -0.135000
     37 H91        -1.9870    3.9510    0.9480 hc        1 BHP      0.082000
     38 H92        -1.9990    5.5090    0.6640 hc        1 BHP      0.082000
     39 H81        -2.0530    4.5670    3.3520 hc        1 BHP      0.082000
     40 H82        -2.4920    6.0410    2.8330 hc        1 BHP      0.082000
     41 H71        -4.1180    4.2200    1.5680 hc        1 BHP      0.089000
     42 H72        -4.1560    3.8750    3.1400 hc        1 BHP      0.089000
     43 H1         -4.4310    6.7970    0.9960 ha        1 BHP      0.137000
     44 H5         -5.7280    5.0420    4.4830 ha        1 BHP      0.130000
     45 H2         -5.9690    8.5920    1.3160 ha        1 BHP      0.128000
     46 H4         -7.2720    6.8180    4.8140 ha        1 BHP      0.125000
     47 H3         -7.3760    8.5990    3.2380 ha        1 BHP      0.125000
     48 H121        1.6790    2.9070    1.0950 ha        1 BHP      0.099000
     49 H122        0.1870    2.4400    0.7820 ha        1 BHP      0.099000
     50 H111        1.2890    4.9850    0.1440 hc        1 BHP      0.101000
     51 H112       -0.0920    4.5050   -0.4980 hc        1 BHP      0.101000
     52 H101        0.0190    5.8310    1.7610 hc        1 BHP      0.079500
     53 H102       -0.0100    4.3110    2.2940 hc        1 BHP      0.079500
     54 H          -0.2980    1.5410   -1.8060 hn        1 BHP      0.210000
     55 H14         0.5130   -0.5420   -2.1850 h1        1 BHP      0.090000
     56 H151        3.0880   -0.0180   -1.2160 hc        1 BHP      0.111000
     57 H152        1.9180    0.0070   -0.1100 hc        1 BHP      0.111000
     58 H17         0.2180   -2.0780   -0.3130 ha        1 BHP      0.162000
     59 H18         0.2260   -4.4610   -0.2130 ha        1 BHP      0.137000
     60 H21         4.1700   -2.1030   -1.4680 ha        1 BHP      0.138000
     61 H20         4.1600   -4.4840   -1.4590 ha        1 BHP      0.131000
     62 H291        2.7160   -0.1820   -3.3810 hc        1 BHP      0.102000
     63 H292        2.2280    1.3390   -3.3600 hc        1 BHP      0.102000
     64 H301        0.2030    0.6860   -4.4680 hc        1 BHP      0.056500
     65 H302        0.7370   -0.8310   -4.5230 hc        1 BHP      0.056500
     66 H221        3.4140   -6.4380    0.7630 h1        1 BHP      0.083500
     67 H222        1.8670   -6.4200    1.1660 h1        1 BHP      0.083500
     68 H24         0.6460   -8.3390   -0.5370 ha        1 BHP      0.156000
     69 H28         4.3200   -8.5840    1.2660 ha        1 BHP      0.129000
     70 H25         0.6360  -10.6940   -0.8120 ha        1 BHP      0.129000
     71 H27         4.2620  -10.9560    1.1180 ha        1 BHP      0.125000
     72 H26         2.4230  -12.0040    0.0400 ha        1 BHP      0.125000
@<TRIPOS>BOND
     1    1    2 1   
     2    1   14 1   
     3    1   37 1   
     4    1   38 1   
     5    2    3 1   
     6    2   39 1   
     7    2   40 1   
     8    3    4 1   
     9    3   41 1   
    10    3   42 1   
    11    4    5 1   
    12    4    6 1   
    13    5    7 1   
    14    5   43 1   
    15    6   44 1   
    16    7   45 1   
    17    8    9 1   
    18    8   46 1   
    19    9   47 1   
    20   10   11 1   
    21   10   15 1   
    22   12   13 1   
    23   12   48 1   
    24   12   49 1   
    25   13   14 1   
    26   13   50 1   
    27   13   51 1   
    28   14   52 1   
    29   14   53 1   
    30   15   16 1   
    31   15   54 1   
    32   16   17 1   
    33   16   25 1   
    34   16   55 1   
    35   17   18 1   
    36   17   56 1   
    37   17   57 1   
    38   18   19 1   
    39   18   21 1   
    40   19   20 1   
    41   19   58 1   
    42   20   59 1   
    43   21   60 1   
    44   22   23 1   
    45   22   61 1   
    46   23   24 1   
    47   24   30 1   
    48   25   26 1   
    49   25   62 1   
    50   25   63 1   
    51   26   27 1   
    52   26   64 1   
    53   26   65 1   
    54   27   28 1   
    55   27   29 1   
    56   30   31 1   
    57   30   66 1   
    58   30   67 1   
    59   31   32 1   
    60   31   33 1   
    61   32   34 1   
    62   32   68 1   
    63   33   69 1   
    64   34   70 1   
    65   35   36 1   
    66   35   71 1   
    67   36   72 1   
@<TRIPOS>SUBSTRUCTURE
     1 BHP         1 TEMP              0 ****  ****    0 ROOT
