@<TRIPOS>MOLECULE
BHP
   73    75     1     0     0
SMALL
bcc


@<TRIPOS>ATOM
      1 C9         -0.0180   -0.0140   -0.0340 c3        1 BHP     -0.079400
      2 C8          1.4850   -0.1760   -0.1120 c3        1 BHP     -0.076400
      3 C7          2.1140   -0.0920    1.2660 c3        1 BHP     -0.037100
      4 C6          3.5960   -0.2170    1.2030 ca        1 BHP     -0.077300
      5 C1          4.3720    0.8490    0.7300 ca        1 BHP     -0.127500
      6 C5          4.2300   -1.3910    1.6230 ca        1 BHP     -0.127500
      7 C2          5.7600    0.7400    0.6770 ca        1 BHP     -0.128000
      8 C4          5.6200   -1.4980    1.5690 ca        1 BHP     -0.128000
      9 C3          6.3860   -0.4340    1.0960 ca        1 BHP     -0.133000
     10 C13        -4.2880    0.0960   -2.6210 c         1 BHP      0.645100
     11 O1         -4.9040    0.0860   -1.5370 o         1 BHP     -0.603100
     12 C12        -2.7790   -0.0280   -2.7010 c3        1 BHP     -0.150400
     13 C11        -2.1510    0.0600   -1.3260 c3        1 BHP     -0.074400
     14 C10        -0.6490   -0.1030   -1.4070 c3        1 BHP     -0.079400
     15 N          -4.9670    0.2810   -3.8220 n         1 BHP     -0.563900
     16 C14        -6.4040    0.0980   -3.9040 c3        1 BHP      0.089700
     17 C15        -6.8200   -0.7680   -5.1110 c3        1 BHP     -0.050100
     18 C16        -6.0960   -2.0640   -5.1660 ca        1 BHP     -0.129300
     19 C17        -6.4060   -3.0850   -4.2550 ca        1 BHP     -0.094000
     20 C18        -5.7490   -4.3060   -4.3050 ca        1 BHP     -0.178000
     21 C21        -5.1140   -2.2880   -6.1340 ca        1 BHP     -0.094000
     22 C20        -4.4400   -3.5080   -6.2020 ca        1 BHP     -0.178000
     23 C19        -4.7580   -4.5160   -5.2860 ca        1 BHP      0.132100
     24 O2         -4.1590   -5.7580   -5.2380 os        1 BHP     -0.324900
     25 C29        -7.1610    1.4360   -4.0050 c3        1 BHP     -0.086400
     26 C30        -7.1640    2.2000   -2.6950 c3        1 BHP     -0.188400
     27 C31        -6.7270    3.6220   -2.8780 c         1 BHP      0.628100
     28 O3         -7.3760    4.6380   -2.6320 o         1 BHP     -0.495000
     29 O4T        -5.4720    3.8750   -3.3610 oh        1 BHP     -0.588100
     30 C22        -3.2290   -6.0410   -6.2960 c3        1 BHP      0.175700
     31 C23        -2.7460   -7.4410   -6.1140 ca        1 BHP     -0.097300
     32 C24        -2.3710   -8.1790   -7.2430 ca        1 BHP     -0.112000
     33 C28        -2.6330   -8.0120   -4.8430 ca        1 BHP     -0.112000
     34 C25        -1.8790   -9.4750   -7.0970 ca        1 BHP     -0.130500
     35 C27        -2.1460   -9.3110   -4.7020 ca        1 BHP     -0.130500
     36 C26        -1.7660  -10.0420   -5.8270 ca        1 BHP     -0.123000
     37 H91        -0.2680    0.9760    0.4310 hc        1 BHP      0.043700
     38 H92        -0.4500   -0.8090    0.6300 hc        1 BHP      0.043700
     39 H81         1.9190    0.6230   -0.7700 hc        1 BHP      0.043700
     40 H82         1.7350   -1.1640   -0.5800 hc        1 BHP      0.043700
     41 H71         1.8440    0.8910    1.7380 hc        1 BHP      0.048700
     42 H72         1.6870   -0.9000    1.9190 hc        1 BHP      0.048700
     43 H1          3.8790    1.7750    0.4000 ha        1 BHP      0.131000
     44 H5          3.6300   -2.2330    1.9990 ha        1 BHP      0.131000
     45 H2          6.3620    1.5810    0.3050 ha        1 BHP      0.130000
     46 H4          6.1100   -2.4250    1.9020 ha        1 BHP      0.130000
     47 H3          7.4820   -0.5190    1.0550 ha        1 BHP      0.130000
     48 H121       -2.5310   -1.0160   -3.1720 hc        1 BHP      0.066200
     49 H122       -2.3620    0.7800   -3.3600 hc        1 BHP      0.066200
     50 H111       -2.5910   -0.7330   -0.6650 hc        1 BHP      0.060200
     51 H112       -2.4070    1.0480   -0.8610 hc        1 BHP      0.060200
     52 H101       -0.2170    0.6920   -2.0710 hc        1 BHP      0.039200
     53 H102       -0.4000   -1.0940   -1.8720 hc        1 BHP      0.039200
     54 H          -5.0090    3.0390   -3.5100 ho        1 BHP      0.429000
     55 H14        -6.7480   -0.4260   -2.9590 h1        1 BHP      0.081700
     56 H151       -6.6540   -0.1900   -6.0590 hc        1 BHP      0.059200
     57 H152       -7.9230   -0.9600   -5.0250 hc        1 BHP      0.059200
     58 H17        -7.1810   -2.9140   -3.4910 ha        1 BHP      0.135000
     59 H18        -5.9860   -5.1110   -3.5960 ha        1 BHP      0.146500
     60 H21        -4.8690   -1.4980   -6.8610 ha        1 BHP      0.135000
     61 H20        -3.6740   -3.6600   -6.9750 ha        1 BHP      0.146500
     62 H291       -6.7210    2.0600   -4.8270 hc        1 BHP      0.056200
     63 H292       -8.2200    1.2090   -4.2990 hc        1 BHP      0.056200
     64 H301       -8.1960    2.2030   -2.2530 hc        1 BHP      0.095700
     65 H302       -6.4810    1.7150   -1.9420 hc        1 BHP      0.095700
     66 H221       -3.7440   -5.9160   -7.2860 h1        1 BHP      0.048700
     67 H222       -2.3670   -5.3230   -6.2250 h1        1 BHP      0.048700
     68 H24        -2.4660   -7.7380   -8.2460 ha        1 BHP      0.138500
     69 H28        -2.9400   -7.4330   -3.9590 ha        1 BHP      0.138500
     70 H25        -1.5820  -10.0510   -7.9860 ha        1 BHP      0.134000
     71 H27        -2.0620   -9.7580   -3.7010 ha        1 BHP      0.134000
     72 H26        -1.3790  -11.0660   -5.7150 ha        1 BHP      0.133000
     73 HN3        -4.4650    0.0890   -4.6600 hn        1 BHP      0.302500
@<TRIPOS>BOND
     1    1    2 1   
     2    1   14 1   
     3    1   37 1   
     4    1   38 1   
     5    2    3 1   
     6    2   39 1   
     7    2   40 1   
     8    3    4 1   
     9    3   41 1   
    10    3   42 1   
    11    4    5 ar  
    12    4    6 ar  
    13    5    7 ar  
    14    5   43 1   
    15    6    8 ar  
    16    6   44 1   
    17    7    9 ar  
    18    7   45 1   
    19    8    9 ar  
    20    8   46 1   
    21    9   47 1   
    22   10   11 2   
    23   10   12 1   
    24   10   15 1   
    25   12   13 1   
    26   12   48 1   
    27   12   49 1   
    28   13   14 1   
    29   13   50 1   
    30   13   51 1   
    31   14   52 1   
    32   14   53 1   
    33   15   16 1   
    34   15   73 1   
    35   16   17 1   
    36   16   25 1   
    37   16   55 1   
    38   17   18 1   
    39   17   56 1   
    40   17   57 1   
    41   18   19 ar  
    42   18   21 ar  
    43   19   20 ar  
    44   19   58 1   
    45   20   23 ar  
    46   20   59 1   
    47   21   22 ar  
    48   21   60 1   
    49   22   23 ar  
    50   22   61 1   
    51   23   24 1   
    52   24   30 1   
    53   25   26 1   
    54   25   62 1   
    55   25   63 1   
    56   26   27 1   
    57   26   64 1   
    58   26   65 1   
    59   27   28 2   
    60   27   29 1   
    61   29   54 1   
    62   30   31 1   
    63   30   66 1   
    64   30   67 1   
    65   31   32 ar  
    66   31   33 ar  
    67   32   34 ar  
    68   32   68 1   
    69   33   35 ar  
    70   33   69 1   
    71   34   36 ar  
    72   34   70 1   
    73   35   36 ar  
    74   35   71 1   
    75   36   72 1   
@<TRIPOS>SUBSTRUCTURE
     1 BHP         1 TEMP              0 ****  ****    0 ROOT
