@<TRIPOS>MOLECULE
BHP
   73    75     1     0     0
SMALL
bcc


@<TRIPOS>ATOM
      1 C9         -0.0240   -0.0330   -0.0170 c3        1 BHP     -0.079400
      2 C8          1.4810   -0.1880   -0.0850 c3        1 BHP     -0.076400
      3 C7          2.0990   -0.1190    1.2990 c3        1 BHP     -0.037100
      4 C6          3.5820   -0.2340    1.2460 ca        1 BHP     -0.077300
      5 C1          4.3550    0.8450    0.7970 ca        1 BHP     -0.127500
      6 C5          4.2200   -1.4120    1.6490 ca        1 BHP     -0.127500
      7 C2          5.7440    0.7450    0.7530 ca        1 BHP     -0.128000
      8 C4          5.6100   -1.5090    1.6050 ca        1 BHP     -0.128000
      9 C3          6.3740   -0.4320    1.1560 ca        1 BHP     -0.133000
     10 C13        -4.2720    0.1050   -2.6370 c         1 BHP      0.645100
     11 O1         -4.8960    0.0990   -1.5580 o         1 BHP     -0.603100
     12 C12        -2.7630   -0.0240   -2.7060 c3        1 BHP     -0.150400
     13 C11        -2.1470    0.0520   -1.3250 c3        1 BHP     -0.074400
     14 C10        -0.6430   -0.1080   -1.3960 c3        1 BHP     -0.079400
     15 N          -4.9420    0.2940   -3.8430 n         1 BHP     -0.563900
     16 C14        -6.3790    0.1200   -3.9360 c3        1 BHP      0.089700
     17 C15        -6.7920   -0.7440   -5.1450 c3        1 BHP     -0.050100
     18 C16        -6.0770   -2.0460   -5.1930 ca        1 BHP     -0.129300
     19 C17        -6.3990   -3.0620   -4.2800 ca        1 BHP     -0.094000
     20 C18        -5.7510   -4.2880   -4.3230 ca        1 BHP     -0.178000
     21 C21        -5.0930   -2.2810   -6.1560 ca        1 BHP     -0.094000
     22 C20        -4.4290   -3.5060   -6.2180 ca        1 BHP     -0.178000
     23 C19        -4.7590   -4.5090   -5.3000 ca        1 BHP      0.132100
     24 O2         -4.1700   -5.7560   -5.2470 os        1 BHP     -0.324900
     25 C29        -7.1270    1.4620   -4.0430 c3        1 BHP     -0.086400
     26 C30        -7.1340    2.2270   -2.7340 c3        1 BHP     -0.188400
     27 C31        -6.6860    3.6460   -2.9150 c         1 BHP      0.628100
     28 O3         -7.3290    4.6670   -2.6740 o         1 BHP     -0.495000
     29 O4T        -5.4260    3.8910   -3.3890 oh        1 BHP     -0.588100
     30 C22        -3.2430   -6.0510   -6.3020 c3        1 BHP      0.175700
     31 C23        -2.7740   -7.4560   -6.1170 ca        1 BHP     -0.097300
     32 C24        -2.4080   -8.2020   -7.2440 ca        1 BHP     -0.112000
     33 C28        -2.6660   -8.0240   -4.8440 ca        1 BHP     -0.112000
     34 C25        -1.9300   -9.5020   -7.0940 ca        1 BHP     -0.130500
     35 C27        -2.1930   -9.3280   -4.6990 ca        1 BHP     -0.130500
     36 C26        -1.8220  -10.0670   -5.8220 ca        1 BHP     -0.123000
     37 H91        -0.2810    0.9500    0.4580 hc        1 BHP      0.043700
     38 H92        -0.4570   -0.8380    0.6340 hc        1 BHP      0.043700
     39 H81         1.7390   -1.1690   -0.5640 hc        1 BHP      0.043700
     40 H82         1.9170    0.6210   -0.7290 hc        1 BHP      0.043700
     41 H71         1.8190    0.8560    1.7820 hc        1 BHP      0.048700
     42 H72         1.6710   -0.9390    1.9370 hc        1 BHP      0.048700
     43 H1          3.8580    1.7740    0.4810 ha        1 BHP      0.131000
     44 H5          3.6220   -2.2640    2.0050 ha        1 BHP      0.131000
     45 H2          6.3430    1.5970    0.4010 ha        1 BHP      0.130000
     46 H4          6.1040   -2.4390    1.9240 ha        1 BHP      0.130000
     47 H3          7.4700   -0.5100    1.1220 ha        1 BHP      0.130000
     48 H121       -2.3380    0.7870   -3.3560 hc        1 BHP      0.066200
     49 H122       -2.5150   -1.0100   -3.1820 hc        1 BHP      0.066200
     50 H111       -2.4070    1.0360   -0.8530 hc        1 BHP      0.060700
     51 H112       -2.5900   -0.7470   -0.6750 hc        1 BHP      0.060700
     52 H101       -0.3900   -1.0940   -1.8690 hc        1 BHP      0.039200
     53 H102       -0.2070    0.6940   -2.0480 hc        1 BHP      0.039200
     54 H          -4.9680    3.0510   -3.5350 ho        1 BHP      0.429000
     55 H14        -6.7330   -0.4010   -2.9930 h1        1 BHP      0.081700
     56 H151       -7.8970   -0.9280   -5.0680 hc        1 BHP      0.059200
     57 H152       -6.6130   -0.1680   -6.0920 hc        1 BHP      0.059200
     58 H17        -7.1740   -2.8820   -3.5190 ha        1 BHP      0.135000
     59 H18        -5.9970   -5.0890   -3.6120 ha        1 BHP      0.146500
     60 H21        -4.8390   -1.4960   -6.8850 ha        1 BHP      0.135000
     61 H20        -3.6620   -3.6670   -6.9870 ha        1 BHP      0.146500
     62 H291       -6.6780    2.0830   -4.8630 hc        1 BHP      0.056200
     63 H292       -8.1850    1.2410   -4.3430 hc        1 BHP      0.056200
     64 H301       -8.1690    2.2380   -2.2990 hc        1 BHP      0.095700
     65 H302       -6.4600    1.7380   -1.9750 hc        1 BHP      0.095700
     66 H221       -3.7550   -5.9240   -7.2940 h1        1 BHP      0.048700
     67 H222       -2.3720   -5.3430   -6.2330 h1        1 BHP      0.048700
     68 H24        -2.4990   -7.7630   -8.2480 ha        1 BHP      0.138500
     69 H28        -2.9660   -7.4390   -3.9610 ha        1 BHP      0.138500
     70 H25        -1.6400  -10.0850   -7.9810 ha        1 BHP      0.134000
     71 H27        -2.1130   -9.7720   -3.6960 ha        1 BHP      0.134000
     72 H26        -1.4470  -11.0940   -5.7070 ha        1 BHP      0.133000
     73 HN3        -4.4350    0.1000   -4.6770 hn        1 BHP      0.302500
@<TRIPOS>BOND
     1    1    2 1   
     2    1   14 1   
     3    1   37 1   
     4    1   38 1   
     5    2    3 1   
     6    2   39 1   
     7    2   40 1   
     8    3    4 1   
     9    3   41 1   
    10    3   42 1   
    11    4    5 ar  
    12    4    6 ar  
    13    5    7 ar  
    14    5   43 1   
    15    6    8 ar  
    16    6   44 1   
    17    7    9 ar  
    18    7   45 1   
    19    8    9 ar  
    20    8   46 1   
    21    9   47 1   
    22   10   11 2   
    23   10   12 1   
    24   10   15 1   
    25   12   13 1   
    26   12   48 1   
    27   12   49 1   
    28   13   14 1   
    29   13   50 1   
    30   13   51 1   
    31   14   52 1   
    32   14   53 1   
    33   15   16 1   
    34   15   73 1   
    35   16   17 1   
    36   16   25 1   
    37   16   55 1   
    38   17   18 1   
    39   17   56 1   
    40   17   57 1   
    41   18   19 ar  
    42   18   21 ar  
    43   19   20 ar  
    44   19   58 1   
    45   20   23 ar  
    46   20   59 1   
    47   21   22 ar  
    48   21   60 1   
    49   22   23 ar  
    50   22   61 1   
    51   23   24 1   
    52   24   30 1   
    53   25   26 1   
    54   25   62 1   
    55   25   63 1   
    56   26   27 1   
    57   26   64 1   
    58   26   65 1   
    59   27   28 2   
    60   27   29 1   
    61   29   54 1   
    62   30   31 1   
    63   30   66 1   
    64   30   67 1   
    65   31   32 ar  
    66   31   33 ar  
    67   32   34 ar  
    68   32   68 1   
    69   33   35 ar  
    70   33   69 1   
    71   34   36 ar  
    72   34   70 1   
    73   35   36 ar  
    74   35   71 1   
    75   36   72 1   
@<TRIPOS>SUBSTRUCTURE
     1 BHP         1 TEMP              0 ****  ****    0 ROOT
