@<TRIPOS>MOLECULE
BHP
   72    74     1     0     0
SMALL
bcc


@<TRIPOS>ATOM
      1 C9         -0.3570    0.8420    4.3090 c3        1 BHP     -0.079400
      2 C8         -0.7480    0.2610    5.6500 c3        1 BHP     -0.076400
      3 C7         -1.5880    1.2440    6.4450 c3        1 BHP     -0.040100
      4 C6         -1.9570    0.7050    7.7820 ca        1 BHP     -0.071300
      5 C1         -0.9850    0.5820    8.7840 ca        1 BHP     -0.128000
      6 C5         -3.2740    0.3240    8.0590 ca        1 BHP     -0.128000
      7 C2         -1.3270    0.0860   10.0400 ca        1 BHP     -0.130000
      8 C4         -3.6150   -0.1720    9.3170 ca        1 BHP     -0.130000
      9 C3         -2.6430   -0.2920   10.3090 ca        1 BHP     -0.138000
     10 C13         2.1500    0.0830    0.0530 c         1 BHP      0.655100
     11 O1          1.8860    1.2690   -0.2400 o         1 BHP     -0.632100
     12 C12         1.7310   -0.5150    1.3870 c3        1 BHP     -0.155400
     13 C11         0.8760    0.4530    2.1740 c3        1 BHP     -0.072400
     14 C10         0.4900   -0.1310    3.5160 c3        1 BHP     -0.079400
     15 N           2.7840   -0.7700   -0.8330 n         1 BHP     -0.533900
     16 C14         3.5460   -0.2740   -1.9640 c3        1 BHP      0.081700
     17 C15         3.0130   -0.8010   -3.3090 c3        1 BHP     -0.043100
     18 C16         1.5790   -0.5500   -3.6040 ca        1 BHP     -0.083300
     19 C17         0.9100    0.5970   -3.1540 ca        1 BHP     -0.099000
     20 C18        -0.4170    0.8280   -3.4930 ca        1 BHP     -0.180500
     21 C21         0.8820   -1.4680   -4.3990 ca        1 BHP     -0.099000
     22 C20        -0.4500   -1.2560   -4.7530 ca        1 BHP     -0.180500
     23 C19        -1.0960   -0.1020   -4.3000 ca        1 BHP      0.102100
     24 O2         -2.4100    0.2350   -4.5900 os        1 BHP     -0.334900
     25 C29         5.0350   -0.6630   -1.8850 c3        1 BHP     -0.084400
     26 C30         5.7310   -0.1330   -0.6580 c3        1 BHP     -0.204400
     27 C31         7.2300   -0.4990   -0.6950 c         1 BHP      0.910600
     28 O3          7.8700   -0.2900   -1.7640 o         1 BHP     -0.846300
     29 O4T         7.7370   -0.9860    0.3550 o         1 BHP     -0.846300
     30 C22        -3.1390   -0.7410   -5.3410 c3        1 BHP      0.174700
     31 C23        -4.5360   -0.2450   -5.5280 ca        1 BHP     -0.084300
     32 C24        -4.8780    1.0960   -5.3320 ca        1 BHP     -0.115500
     33 C28        -5.5180   -1.1580   -5.9330 ca        1 BHP     -0.115500
     34 C25        -6.1910    1.5190   -5.5390 ca        1 BHP     -0.133500
     35 C27        -6.8270   -0.7300   -6.1430 ca        1 BHP     -0.133500
     36 C26        -7.1660    0.6090   -5.9460 ca        1 BHP     -0.134000
     37 H91         0.2130    1.7960    4.4620 hc        1 BHP      0.041200
     38 H92        -1.2800    1.0990    3.7250 hc        1 BHP      0.041200
     39 H81        -1.3250   -0.6890    5.4970 hc        1 BHP      0.043200
     40 H82         0.1740   -0.0000    6.2340 hc        1 BHP      0.043200
     41 H71        -1.0120    2.1990    6.5780 hc        1 BHP      0.048200
     42 H72        -2.5140    1.4950    5.8620 hc        1 BHP      0.048200
     43 H1          0.0530    0.8790    8.5720 ha        1 BHP      0.132500
     44 H5         -4.0450    0.4150    7.2790 ha        1 BHP      0.132500
     45 H2         -0.5570   -0.0080   10.8200 ha        1 BHP      0.127000
     46 H4         -4.6520   -0.4700    9.5250 ha        1 BHP      0.127000
     47 H3         -2.9110   -0.6840   11.3010 ha        1 BHP      0.126000
     48 H121        1.1660   -1.4690    1.2140 hc        1 BHP      0.063200
     49 H122        2.6600   -0.7650    1.9680 hc        1 BHP      0.063200
     50 H111        1.4400    1.4130    2.3180 hc        1 BHP      0.057200
     51 H112       -0.0440    0.7040    1.5830 hc        1 BHP      0.057200
     52 H101       -0.0780   -1.0870    3.3640 hc        1 BHP      0.038200
     53 H102        1.4150   -0.3840    4.0980 hc        1 BHP      0.038200
     54 H           3.1110   -1.6340   -0.4630 hn        1 BHP      0.299500
     55 H14         3.4730    0.8560   -1.9660 h1        1 BHP      0.077700
     56 H151        3.6270   -0.3080   -4.1140 hc        1 BHP      0.052700
     57 H152        3.2180   -1.9050   -3.3690 hc        1 BHP      0.052700
     58 H17         1.4330    1.3160   -2.4980 ha        1 BHP      0.149000
     59 H18        -0.9440    1.7240   -3.1360 ha        1 BHP      0.133500
     60 H21         1.3920   -2.3770   -4.7540 ha        1 BHP      0.149000
     61 H20        -0.9670   -1.9940   -5.3780 ha        1 BHP      0.133500
     62 H291        5.5580   -0.2570   -2.7920 hc        1 BHP      0.054200
     63 H292        5.1350   -1.7800   -1.9190 hc        1 BHP      0.054200
     64 H301        5.2810   -0.5520    0.2760 hc        1 BHP      0.023200
     65 H302        5.6450    0.9810   -0.6150 hc        1 BHP      0.023200
     66 H221       -2.6480   -0.8800   -6.3430 h1        1 BHP      0.047200
     67 H222       -3.1390   -1.7180   -4.7860 h1        1 BHP      0.047200
     68 H24        -4.1060    1.8110   -5.0060 ha        1 BHP      0.142000
     69 H28        -5.2540   -2.2150   -6.0830 ha        1 BHP      0.142000
     70 H25        -6.4550    2.5750   -5.3800 ha        1 BHP      0.128000
     71 H27        -7.5940   -1.4500   -6.4620 ha        1 BHP      0.128000
     72 H26        -8.1990    0.9450   -6.1110 ha        1 BHP      0.125000
@<TRIPOS>BOND
     1    1    2 1   
     2    1   14 1   
     3    1   37 1   
     4    1   38 1   
     5    2    3 1   
     6    2   39 1   
     7    2   40 1   
     8    3    4 1   
     9    3   41 1   
    10    3   42 1   
    11    4    5 ar  
    12    4    6 ar  
    13    5    7 ar  
    14    5   43 1   
    15    6    8 ar  
    16    6   44 1   
    17    7    9 ar  
    18    7   45 1   
    19    8    9 ar  
    20    8   46 1   
    21    9   47 1   
    22   10   11 2   
    23   10   12 1   
    24   10   15 1   
    25   12   13 1   
    26   12   48 1   
    27   12   49 1   
    28   13   14 1   
    29   13   50 1   
    30   13   51 1   
    31   14   52 1   
    32   14   53 1   
    33   15   16 1   
    34   15   54 1   
    35   16   17 1   
    36   16   25 1   
    37   16   55 1   
    38   17   18 1   
    39   17   56 1   
    40   17   57 1   
    41   18   19 ar  
    42   18   21 ar  
    43   19   20 ar  
    44   19   58 1   
    45   20   23 ar  
    46   20   59 1   
    47   21   22 ar  
    48   21   60 1   
    49   22   23 ar  
    50   22   61 1   
    51   23   24 1   
    52   24   30 1   
    53   25   26 1   
    54   25   62 1   
    55   25   63 1   
    56   26   27 1   
    57   26   64 1   
    58   26   65 1   
    59   27   28 1   
    60   27   29 1   
    61   30   31 1   
    62   30   66 1   
    63   30   67 1   
    64   31   32 ar  
    65   31   33 ar  
    66   32   34 ar  
    67   32   68 1   
    68   33   35 ar  
    69   33   69 1   
    70   34   36 ar  
    71   34   70 1   
    72   35   36 ar  
    73   35   71 1   
    74   36   72 1   
@<TRIPOS>SUBSTRUCTURE
     1 BHP         1 TEMP              0 ****  ****    0 ROOT
