@<TRIPOS>MOLECULE
BHQ
   38    38     1     0     0
SMALL
bcc


@<TRIPOS>ATOM
      1 O1         -0.0200    0.0350    0.0370 oh        1 BHQ     -0.502100
      2 O2          5.5080   -0.0370   -0.0350 oh        1 BHQ     -0.502100
      3 C1          1.3610    0.0170    0.0210 ca        1 BHQ      0.094100
      4 C2          2.0420    0.0010    1.2580 ca        1 BHQ     -0.049300
      5 C3          3.4370   -0.0170    1.2020 ca        1 BHQ     -0.183000
      6 C4          4.1260   -0.0190   -0.0190 ca        1 BHQ      0.094100
      7 C5          3.4460   -0.0030   -1.2560 ca        1 BHQ     -0.049300
      8 C6          2.0510    0.0150   -1.2000 ca        1 BHQ     -0.183000
      9 C7          1.3060    0.0030    2.5710 c3        1 BHQ      0.004300
     10 C8          2.2530   -0.0160    3.7670 c3        1 BHQ     -0.088100
     11 C9          0.4470    1.2610    2.6780 c3        1 BHQ     -0.088100
     12 C10         0.4140   -1.2330    2.6630 c3        1 BHQ     -0.088100
     13 C11         4.1820   -0.0050   -2.5690 c3        1 BHQ      0.004300
     14 C12         3.2340    0.0140   -3.7650 c3        1 BHQ     -0.088100
     15 C13         5.0410   -1.2630   -2.6760 c3        1 BHQ     -0.088100
     16 C14         5.0740    1.2310   -2.6620 c3        1 BHQ     -0.088100
     17 HO1        -0.3280    0.0440   -0.8810 ho        1 BHQ      0.414000
     18 HO2         5.8160   -0.0460    0.8820 ho        1 BHQ      0.414000
     19 H3          4.0310   -0.0300    2.1290 ha        1 BHQ      0.137000
     20 H6          1.4570    0.0280   -2.1270 ha        1 BHQ      0.137000
     21 H81         2.8860   -0.9350    3.7560 hc        1 BHQ      0.038811
     22 H82         1.6580   -0.0140    4.7130 hc        1 BHQ      0.038811
     23 H83         2.9100    0.8860    3.7670 hc        1 BHQ      0.038811
     24 H91         1.0870    2.1730    2.6060 hc        1 BHQ      0.038811
     25 H92        -0.3130    1.2890    1.8600 hc        1 BHQ      0.038811
     26 H93        -0.0860    1.2730    3.6590 hc        1 BHQ      0.038811
     27 H101       -0.1190   -1.2410    3.6440 hc        1 BHQ      0.038811
     28 H102        1.0300   -2.1600    2.5810 hc        1 BHQ      0.038811
     29 H103       -0.3460   -1.2310    1.8450 hc        1 BHQ      0.038811
     30 H121        2.5770   -0.8880   -3.7650 hc        1 BHQ      0.038811
     31 H122        3.8290    0.0120   -4.7110 hc        1 BHQ      0.038811
     32 H123        2.6010    0.9330   -3.7550 hc        1 BHQ      0.038811
     33 H131        5.5740   -1.2740   -3.6570 hc        1 BHQ      0.038811
     34 H132        5.8000   -1.2900   -1.8580 hc        1 BHQ      0.038811
     35 H133        4.4010   -2.1740   -2.6040 hc        1 BHQ      0.038811
     36 H141        4.4580    2.1580   -2.5800 hc        1 BHQ      0.038811
     37 H142        5.6060    1.2400   -3.6430 hc        1 BHQ      0.038811
     38 H143        5.8330    1.2290   -1.8440 hc        1 BHQ      0.038811
@<TRIPOS>BOND
     1    1    3 1   
     2    1   17 1   
     3    2    6 1   
     4    2   18 1   
     5    3    4 ar  
     6    3    8 ar  
     7    4    5 ar  
     8    4    9 1   
     9    5    6 ar  
    10    5   19 1   
    11    6    7 ar  
    12    7    8 ar  
    13    7   13 1   
    14    8   20 1   
    15    9   10 1   
    16    9   11 1   
    17    9   12 1   
    18   10   21 1   
    19   10   22 1   
    20   10   23 1   
    21   11   24 1   
    22   11   25 1   
    23   11   26 1   
    24   12   27 1   
    25   12   28 1   
    26   12   29 1   
    27   13   14 1   
    28   13   15 1   
    29   13   16 1   
    30   14   30 1   
    31   14   31 1   
    32   14   32 1   
    33   15   33 1   
    34   15   34 1   
    35   15   35 1   
    36   16   36 1   
    37   16   37 1   
    38   16   38 1   
@<TRIPOS>SUBSTRUCTURE
     1 BHQ         1 TEMP              0 ****  ****    0 ROOT
