@<TRIPOS>MOLECULE
BHQ
   38    38     1     0     0
SMALL
bcc


@<TRIPOS>ATOM
      1 O1         -0.0200    0.0300    0.0430 oh        1 BHQ     -0.502100
      2 O2          5.5080   -0.0310   -0.0410 oh        1 BHQ     -0.502100
      3 C1          1.3610    0.0150    0.0240 ca        1 BHQ      0.094100
      4 C2          2.0450    0.0000    1.2590 ca        1 BHQ     -0.049300
      5 C3          3.4390   -0.0150    1.2000 ca        1 BHQ     -0.183000
      6 C4          4.1260   -0.0160   -0.0220 ca        1 BHQ      0.094100
      7 C5          3.4430   -0.0020   -1.2570 ca        1 BHQ     -0.049300
      8 C6          2.0480    0.0140   -1.1980 ca        1 BHQ     -0.183000
      9 C7          1.3110    0.0010    2.5740 c3        1 BHQ      0.004300
     10 C8          2.2610   -0.0160    3.7680 c3        1 BHQ     -0.088100
     11 C9          0.4500    1.2570    2.6820 c3        1 BHQ     -0.088100
     12 C10         0.4220   -1.2370    2.6680 c3        1 BHQ     -0.088100
     13 C11         4.1760   -0.0030   -2.5720 c3        1 BHQ      0.004300
     14 C12         3.2260    0.0140   -3.7660 c3        1 BHQ     -0.088100
     15 C13         5.0380   -1.2590   -2.6800 c3        1 BHQ     -0.088100
     16 C14         5.0650    1.2350   -2.6670 c3        1 BHQ     -0.088100
     17 HO1        -0.3300    0.0380   -0.8740 ho        1 BHQ      0.414000
     18 HO2         5.8180   -0.0400    0.8760 ho        1 BHQ      0.414000
     19 H3          4.0350   -0.0270    2.1260 ha        1 BHQ      0.137000
     20 H6          1.4520    0.0250   -2.1240 ha        1 BHQ      0.137000
     21 H81         2.8960   -0.9340    3.7560 hc        1 BHQ      0.038811
     22 H82         1.6680   -0.0150    4.7150 hc        1 BHQ      0.038811
     23 H83         2.9170    0.8870    3.7660 hc        1 BHQ      0.038811
     24 H91         1.0880    2.1700    2.6100 hc        1 BHQ      0.038811
     25 H92        -0.3110    1.2830    1.8660 hc        1 BHQ      0.038811
     26 H93        -0.0810    1.2680    3.6650 hc        1 BHQ      0.038811
     27 H101       -0.1090   -1.2460    3.6510 hc        1 BHQ      0.038811
     28 H102        1.0390   -2.1630    2.5850 hc        1 BHQ      0.038811
     29 H103       -0.3400   -1.2360    1.8520 hc        1 BHQ      0.038811
     30 H121        2.5710   -0.8890   -3.7640 hc        1 BHQ      0.038811
     31 H122        3.8190    0.0130   -4.7130 hc        1 BHQ      0.038811
     32 H123        2.5910    0.9320   -3.7550 hc        1 BHQ      0.038811
     33 H131        5.5680   -1.2690   -3.6630 hc        1 BHQ      0.038811
     34 H132        5.7990   -1.2840   -1.8640 hc        1 BHQ      0.038811
     35 H133        4.4000   -2.1710   -2.6070 hc        1 BHQ      0.038811
     36 H141        4.4480    2.1610   -2.5840 hc        1 BHQ      0.038811
     37 H142        5.5960    1.2450   -3.6490 hc        1 BHQ      0.038811
     38 H143        5.8270    1.2350   -1.8510 hc        1 BHQ      0.038811
@<TRIPOS>BOND
     1    1    3 1   
     2    1   17 1   
     3    2    6 1   
     4    2   18 1   
     5    3    4 ar  
     6    3    8 ar  
     7    4    5 ar  
     8    4    9 1   
     9    5    6 ar  
    10    5   19 1   
    11    6    7 ar  
    12    7    8 ar  
    13    7   13 1   
    14    8   20 1   
    15    9   10 1   
    16    9   11 1   
    17    9   12 1   
    18   10   21 1   
    19   10   22 1   
    20   10   23 1   
    21   11   24 1   
    22   11   25 1   
    23   11   26 1   
    24   12   27 1   
    25   12   28 1   
    26   12   29 1   
    27   13   14 1   
    28   13   15 1   
    29   13   16 1   
    30   14   30 1   
    31   14   31 1   
    32   14   32 1   
    33   15   33 1   
    34   15   34 1   
    35   15   35 1   
    36   16   36 1   
    37   16   37 1   
    38   16   38 1   
@<TRIPOS>SUBSTRUCTURE
     1 BHQ         1 TEMP              0 ****  ****    0 ROOT
