@<TRIPOS>MOLECULE
BHQ
   38    38     1     0     0
SMALL
bcc


@<TRIPOS>ATOM
      1 O1         -1.6600    2.2100   -0.0420 oh        1 BHQ     -0.502100
      2 O2          1.6600   -2.2100   -0.0390 oh        1 BHQ     -0.502100
      3 C1         -0.8320    1.1040   -0.0410 ca        1 BHQ      0.094100
      4 C2         -1.4290   -0.1750   -0.0400 ca        1 BHQ     -0.049300
      5 C3         -0.5600   -1.2680   -0.0390 ca        1 BHQ     -0.183000
      6 C4          0.8320   -1.1040   -0.0390 ca        1 BHQ      0.094100
      7 C5          1.4290    0.1750   -0.0400 ca        1 BHQ     -0.049300
      8 C6          0.5600    1.2680   -0.0410 ca        1 BHQ     -0.183000
      9 C7         -2.9240   -0.3560   -0.0400 c3        1 BHQ      0.004300
     10 C8         -3.3300   -1.8270   -0.0390 c3        1 BHQ     -0.088100
     11 C9         -3.5200    0.2930    1.2070 c3        1 BHQ     -0.088100
     12 C10        -3.5200    0.2920   -1.2880 c3        1 BHQ     -0.088100
     13 C11         2.9240    0.3550   -0.0400 c3        1 BHQ      0.004300
     14 C12         3.3300    1.8260   -0.0410 c3        1 BHQ     -0.088100
     15 C13         3.5200   -0.2930   -1.2870 c3        1 BHQ     -0.088100
     16 C14         3.5200   -0.2920    1.2070 c3        1 BHQ     -0.088100
     17 HO1        -1.1010    3.0000   -0.0420 ho        1 BHQ      0.414000
     18 HO2         1.1010   -3.0010   -0.0380 ho        1 BHQ      0.414000
     19 H3         -0.9590   -2.2950   -0.0390 ha        1 BHQ      0.137000
     20 H6          0.9590    2.2950   -0.0420 ha        1 BHQ      0.137000
     21 H81        -2.9450   -2.3440    0.8720 hc        1 BHQ      0.038811
     22 H82        -4.4450   -1.9040   -0.0390 hc        1 BHQ      0.038811
     23 H83        -2.9450   -2.3450   -0.9490 hc        1 BHQ      0.038811
     24 H91        -3.3080    1.3890    1.2190 hc        1 BHQ      0.038811
     25 H92        -4.6270    0.1440    1.2170 hc        1 BHQ      0.038811
     26 H93        -3.0880   -0.1680    2.1260 hc        1 BHQ      0.038811
     27 H101       -3.0880   -0.1710   -2.2060 hc        1 BHQ      0.038811
     28 H102       -4.6270    0.1430   -1.2970 hc        1 BHQ      0.038811
     29 H103       -3.3080    1.3870   -1.3010 hc        1 BHQ      0.038811
     30 H121        2.9450    2.3440   -0.9520 hc        1 BHQ      0.038811
     31 H122        2.9450    2.3450    0.8690 hc        1 BHQ      0.038811
     32 H123        4.4450    1.9040   -0.0410 hc        1 BHQ      0.038811
     33 H131        4.6270   -0.1450   -1.2970 hc        1 BHQ      0.038811
     34 H132        3.3080   -1.3890   -1.2990 hc        1 BHQ      0.038811
     35 H133        3.0880    0.1680   -2.2060 hc        1 BHQ      0.038811
     36 H141        3.0880    0.1700    2.1260 hc        1 BHQ      0.038811
     37 H142        3.3080   -1.3880    1.2210 hc        1 BHQ      0.038811
     38 H143        4.6270   -0.1430    1.2170 hc        1 BHQ      0.038811
@<TRIPOS>BOND
     1    1    3 1   
     2    1   17 1   
     3    2    6 1   
     4    2   18 1   
     5    3    4 ar  
     6    3    8 ar  
     7    4    5 ar  
     8    4    9 1   
     9    5    6 ar  
    10    5   19 1   
    11    6    7 ar  
    12    7    8 ar  
    13    7   13 1   
    14    8   20 1   
    15    9   10 1   
    16    9   11 1   
    17    9   12 1   
    18   10   21 1   
    19   10   22 1   
    20   10   23 1   
    21   11   24 1   
    22   11   25 1   
    23   11   26 1   
    24   12   27 1   
    25   12   28 1   
    26   12   29 1   
    27   13   14 1   
    28   13   15 1   
    29   13   16 1   
    30   14   30 1   
    31   14   31 1   
    32   14   32 1   
    33   15   33 1   
    34   15   34 1   
    35   15   35 1   
    36   16   36 1   
    37   16   37 1   
    38   16   38 1   
@<TRIPOS>SUBSTRUCTURE
     1 BHQ         1 TEMP              0 ****  ****    0 ROOT
