@<TRIPOS>MOLECULE
BHQ
   38    36     1     0     0
SMALL
bcc


@<TRIPOS>ATOM
      1 O1         -2.7960    0.0340   -0.0120 oh        1 BHQ     -0.256000
      2 O2          2.7880   -0.1880    0.0070 oh        1 BHQ     -0.256000
      3 C1         -1.3880    0.0620   -0.0050 c2        1 BHQ      0.049000
      4 C2         -0.7000    0.0100    1.2000 c2        1 BHQ     -0.042000
      5 C3          0.6850   -0.0570    1.2050 c1        1 BHQ     -0.183000
      6 C4          1.3860   -0.0720    0.0020 c1        1 BHQ      0.049000
      7 C5          0.6980   -0.0200   -1.2020 c1        1 BHQ     -0.042000
      8 C6         -0.6870    0.0470   -1.2070 c1        1 BHQ     -0.183000
      9 C7         -1.4690    0.0650    2.5250 c3        1 BHQ     -0.003000
     10 C8         -0.5010    0.3300    3.6610 c3        1 BHQ     -0.206000
     11 C9         -2.1710   -1.2590    2.7570 c3        1 BHQ     -0.206000
     12 C10        -2.4950    1.1760    2.4680 c3        1 BHQ     -0.206000
     13 C11         1.4710    0.0000   -2.5240 c3        1 BHQ     -0.003000
     14 C12         0.4940    0.0760   -3.6790 c3        1 BHQ     -0.206000
     15 C13         2.3840    1.2050   -2.5570 c3        1 BHQ     -0.206000
     16 C14         2.2990   -1.2650   -2.6450 c3        1 BHQ     -0.206000
     17 HO1        -3.0810   -0.3710   -0.7530 ho        1 BHQ      0.213000
     18 HO2         3.0480   -0.6050    0.7480 ho        1 BHQ      0.213000
     19 H3          1.1690   -0.0940    2.0520 ha        1 BHQ      0.137000
     20 H6         -1.1710    0.0840   -2.0550 ha        1 BHQ      0.137000
     21 H81         0.0200    1.1350    3.4640 hc        1 BHQ      0.078111
     22 H82         0.1040   -0.4340    3.7590 hc        1 BHQ      0.078111
     23 H83        -1.0030    0.4600    4.4950 hc        1 BHQ      0.078111
     24 H91        -2.7300   -1.4720    1.9810 hc        1 BHQ      0.078111
     25 H92        -1.5040   -1.9650    2.8830 hc        1 BHQ      0.078111
     26 H93        -2.7350   -1.1940    3.5580 hc        1 BHQ      0.078111
     27 H101       -2.1370    1.9240    1.9460 hc        1 BHQ      0.078111
     28 H102       -3.3140    0.8440    2.0440 hc        1 BHQ      0.078111
     29 H103       -2.6980    1.4800    3.3780 hc        1 BHQ      0.078111
     30 H121        0.0200    0.9330   -3.6490 hc        1 BHQ      0.078111
     31 H122        0.9840    0.0020   -4.5280 hc        1 BHQ      0.078111
     32 H123       -0.1520   -0.6560   -3.6090 hc        1 BHQ      0.078111
     33 H131        1.9430    1.9610   -2.1180 hc        1 BHQ      0.078111
     34 H132        2.5830    1.4390   -3.4880 hc        1 BHQ      0.078111
     35 H133        3.2190    0.9950   -2.0880 hc        1 BHQ      0.078111
     36 H141        2.5870   -1.3810   -3.5760 hc        1 BHQ      0.078111
     37 H142        1.7600   -2.0350   -2.3710 hc        1 BHQ      0.078111
     38 H143        3.0880   -1.1960   -2.0660 hc        1 BHQ      0.078111
@<TRIPOS>BOND
     1    1    3 1   
     2    1   17 1   
     3    2    6 1   
     4    2   18 1   
     5    3    4 1   
     6    3    8 1   
     7    4    5 1   
     8    4    9 1   
     9    5   19 1   
    10    6    7 1   
    11    7   13 1   
    12    8   20 1   
    13    9   10 1   
    14    9   11 1   
    15    9   12 1   
    16   10   21 1   
    17   10   22 1   
    18   10   23 1   
    19   11   24 1   
    20   11   25 1   
    21   11   26 1   
    22   12   27 1   
    23   12   28 1   
    24   12   29 1   
    25   13   14 1   
    26   13   15 1   
    27   13   16 1   
    28   14   30 1   
    29   14   31 1   
    30   14   32 1   
    31   15   33 1   
    32   15   34 1   
    33   15   35 1   
    34   16   36 1   
    35   16   37 1   
    36   16   38 1   
@<TRIPOS>SUBSTRUCTURE
     1 BHQ         1 TEMP              0 ****  ****    0 ROOT
