@<TRIPOS>MOLECULE
BHR
   53    54     1     0     0
SMALL
bcc


@<TRIPOS>ATOM
      1 C1         -0.8630   -0.1040   -0.2290 ca        1 BHR     -0.160300
      2 C2         -0.0900   -0.9140   -1.0730 ca        1 BHR     -0.108000
      3 C3          1.0060   -1.6110   -0.5760 ca        1 BHR     -0.127000
      4 C4          1.3560   -1.5180    0.7720 ca        1 BHR     -0.149000
      5 C5          0.5980   -0.7120    1.6210 ca        1 BHR      0.032100
      6 O5          0.8660   -0.5490    2.9660 oh        1 BHR     -0.515100
      7 C6         -0.5150    0.0080    1.1270 ca        1 BHR      0.142100
      8 O6         -1.2830    0.8160    1.9250 oh        1 BHR     -0.487100
      9 C7         -2.0730    0.5990   -0.7510 c3        1 BHR      0.177100
     10 N8         -1.7270    1.5480   -1.8700 n4        1 BHR     -0.677400
     11 C9         -2.9060    1.6830   -2.7740 c3        1 BHR      0.092800
     12 C10        -2.8220    2.7750   -3.8440 c3        1 BHR      0.074800
     13 N11        -1.6890    2.6700   -4.8090 n4        1 BHR     -0.671400
     14 C12        -1.5880    3.9370   -5.6210 c3        1 BHR      0.185100
     15 C13        -0.3710    4.7200   -5.2660 ca        1 BHR     -0.206300
     16 C14        -0.3390    5.5170   -4.1140 ca        1 BHR     -0.072000
     17 C15         0.7910    6.2780   -3.8200 ca        1 BHR     -0.158000
     18 C16         1.9010    6.2490   -4.6670 ca        1 BHR     -0.061000
     19 C17         1.8960    5.4550   -5.8100 ca        1 BHR     -0.218000
     20 C18         0.7600    4.6860   -6.1050 ca        1 BHR      0.157100
     21 O18         0.6860    3.8730   -7.2120 oh        1 BHR     -0.510100
     22 C19        -1.2660    2.8580   -1.3330 c3        1 BHR     -0.062200
     23 C20        -2.4460    3.8550   -1.0430 c         1 BHR      0.916600
     24 O20        -2.3450    4.9710   -1.6180 o         1 BHR     -0.788800
     25 C21        -1.7870    1.4470   -5.6570 c3        1 BHR     -0.056200
     26 O21        -3.3890    3.4330   -0.3380 o         1 BHR     -0.788800
     27 C22        -1.3000    0.1870   -4.8650 c         1 BHR      0.907600
     28 O22        -1.9110   -0.8790   -5.0600 o         1 BHR     -0.788300
     29 O23        -0.3340    0.3770   -4.0610 o         1 BHR     -0.788300
     30 H2         -0.3430   -0.9960   -2.1490 ha        1 BHR      0.185000
     31 H3          1.6040   -2.2420   -1.2520 ha        1 BHR      0.150000
     32 H4          2.2200   -2.0740    1.1640 ha        1 BHR      0.140000
     33 HO5         1.6290   -1.1020    3.1840 ho        1 BHR      0.433000
     34 HO6        -0.9230    0.7880    2.8270 ho        1 BHR      0.448000
     35 H7         -2.5950    1.2040    0.0550 hx        1 BHR      0.121700
     36 H7A        -2.7910   -0.1720   -1.1550 hx        1 BHR      0.121700
     37 H9         -3.7990    1.9540   -2.1250 hx        1 BHR      0.131700
     38 H9A        -3.0730    0.6770   -3.2620 hx        1 BHR      0.131700
     39 H10        -3.7850    2.7220   -4.4300 hx        1 BHR      0.131200
     40 H10A       -2.7610    3.7980   -3.3470 hx        1 BHR      0.131200
     41 H12        -2.5100    4.5610   -5.4390 hx        1 BHR      0.103200
     42 H12A       -1.5640    3.6570   -6.7150 hx        1 BHR      0.103200
     43 H14        -1.2060    5.5400   -3.4220 ha        1 BHR      0.196000
     44 H15         0.8030    6.9010   -2.9130 ha        1 BHR      0.157000
     45 H16         2.7890    6.8550   -4.4300 ha        1 BHR      0.143000
     46 H17         2.7700    5.4230   -6.4750 ha        1 BHR      0.143000
     47 HO18        1.5280    3.9330   -7.6890 ho        1 BHR      0.436000
     48 H19        -0.7150    2.6780   -0.3710 hx        1 BHR      0.082700
     49 H19A       -0.5690    3.3190   -2.0830 hx        1 BHR      0.082700
     50 H21        -2.8440    1.3060   -6.0020 hx        1 BHR      0.096200
     51 H21A       -1.1090    1.5640   -6.5450 hx        1 BHR      0.096200
     52 H81        -0.9450    1.1190   -2.4130 hn        1 BHR      0.477800
     53 H111       -0.8060    2.5610   -4.2730 hn        1 BHR      0.465800
@<TRIPOS>BOND
     1    1    2 ar  
     2    1    7 ar  
     3    1    9 1   
     4    2    3 ar  
     5    2   30 1   
     6    3    4 ar  
     7    3   31 1   
     8    4    5 ar  
     9    4   32 1   
    10    5    6 1   
    11    5    7 ar  
    12    6   33 1   
    13    7    8 1   
    14    8   34 1   
    15    9   10 1   
    16    9   35 1   
    17    9   36 1   
    18   10   11 1   
    19   10   22 1   
    20   10   52 1   
    21   11   12 1   
    22   11   37 1   
    23   11   38 1   
    24   12   13 1   
    25   12   39 1   
    26   12   40 1   
    27   13   14 1   
    28   13   25 1   
    29   13   53 1   
    30   14   15 1   
    31   14   41 1   
    32   14   42 1   
    33   15   16 ar  
    34   15   20 ar  
    35   16   17 ar  
    36   16   43 1   
    37   17   18 ar  
    38   17   44 1   
    39   18   19 ar  
    40   18   45 1   
    41   19   20 ar  
    42   19   46 1   
    43   20   21 1   
    44   21   47 1   
    45   22   23 1   
    46   22   48 1   
    47   22   49 1   
    48   23   24 1   
    49   23   26 1   
    50   25   27 1   
    51   25   50 1   
    52   25   51 1   
    53   27   28 1   
    54   27   29 1   
@<TRIPOS>SUBSTRUCTURE
     1 BHR         1 TEMP              0 ****  ****    0 ROOT
