@<TRIPOS>MOLECULE
BHR
   53    54     1     0     0
SMALL
bcc


@<TRIPOS>ATOM
      1 C1         -0.8690   -0.1030   -0.2290 ca        1 BHR     -0.160300
      2 C2         -0.0760   -0.9050   -1.0620 ca        1 BHR     -0.108000
      3 C3          1.0220   -1.5890   -0.5500 ca        1 BHR     -0.127000
      4 C4          1.3520   -1.4910    0.8030 ca        1 BHR     -0.149000
      5 C5          0.5730   -0.6930    1.6410 ca        1 BHR      0.032100
      6 O5          0.8220   -0.5260    2.9890 oh        1 BHR     -0.515100
      7 C6         -0.5410    0.0130    1.1320 ca        1 BHR      0.142100
      8 O6         -1.3280    0.8140    1.9190 oh        1 BHR     -0.487100
      9 C7         -2.0800    0.5850   -0.7670 c3        1 BHR      0.177100
     10 N8         -1.7300    1.5370   -1.8830 n4        1 BHR     -0.677400
     11 C9         -2.8990    1.6580   -2.8020 c3        1 BHR      0.092800
     12 C10        -2.8130    2.7500   -3.8720 c3        1 BHR      0.074800
     13 N11        -1.6660    2.6580   -4.8220 n4        1 BHR     -0.671400
     14 C12        -1.5690    3.9260   -5.6340 c3        1 BHR      0.185100
     15 C13        -0.3660    4.7230   -5.2620 ca        1 BHR     -0.206300
     16 C14        -0.3580    5.5200   -4.1110 ca        1 BHR     -0.072000
     17 C15         0.7580    6.2940   -3.8020 ca        1 BHR     -0.158000
     18 C16         1.8790    6.2780   -4.6340 ca        1 BHR     -0.061000
     19 C17         1.8990    5.4830   -5.7760 ca        1 BHR     -0.218000
     20 C18         0.7760    4.7010   -6.0860 ca        1 BHR      0.157100
     21 O18         0.7270    3.8870   -7.1930 oh        1 BHR     -0.510100
     22 C19        -1.2930    2.8540   -1.3410 c3        1 BHR     -0.062200
     23 C20        -2.4870    3.8370   -1.0670 c         1 BHR      0.916600
     24 O20        -2.3920    4.9530   -1.6420 o         1 BHR     -0.788800
     25 C21        -1.7400    1.4330   -5.6700 c3        1 BHR     -0.056200
     26 O21        -3.4350    3.4040   -0.3740 o         1 BHR     -0.788800
     27 C22        -1.2480    0.1790   -4.8710 c         1 BHR      0.907600
     28 O22        -1.8440   -0.8940   -5.0730 o         1 BHR     -0.788800
     29 O23        -0.2960    0.3810   -4.0540 o         1 BHR     -0.788800
     30 H2         -0.3140   -0.9900   -2.1410 ha        1 BHR      0.185000
     31 H3          1.6350   -2.2130   -1.2180 ha        1 BHR      0.150000
     32 H4          2.2170   -2.0370    1.2070 ha        1 BHR      0.140000
     33 HO5         1.5890   -1.0710    3.2180 ho        1 BHR      0.433000
     34 HO6        -0.9800    0.7910    2.8250 ho        1 BHR      0.448000
     35 H7         -2.7840   -0.1940   -1.1800 hx        1 BHR      0.121700
     36 H7A        -2.6200    1.1850    0.0310 hx        1 BHR      0.121700
     37 H9         -3.0480    0.6500   -3.2920 hx        1 BHR      0.131700
     38 H9A        -3.8030    1.9190   -2.1660 hx        1 BHR      0.131700
     39 H10        -3.7680    2.6860   -4.4710 hx        1 BHR      0.131200
     40 H10A       -2.7710    3.7740   -3.3750 hx        1 BHR      0.131200
     41 H12        -2.5010    4.5390   -5.4650 hx        1 BHR      0.103200
     42 H12A       -1.5270    3.6440   -6.7260 hx        1 BHR      0.103200
     43 H14        -1.2350    5.5330   -3.4310 ha        1 BHR      0.196000
     44 H15         0.7500    6.9180   -2.8950 ha        1 BHR      0.157000
     45 H16         2.7570    6.8940   -4.3850 ha        1 BHR      0.143000
     46 H17         2.7830    5.4620   -6.4300 ha        1 BHR      0.143000
     47 HO18        1.5740    3.9560   -7.6590 ho        1 BHR      0.436000
     48 H19        -0.7510    2.6800   -0.3720 hx        1 BHR      0.082700
     49 H19A       -0.5910    3.3220   -2.0820 hx        1 BHR      0.082700
     50 H21        -1.0500    1.5570   -6.5500 hx        1 BHR      0.096200
     51 H21A       -2.7890    1.2790   -6.0290 hx        1 BHR      0.096200
     52 H81        -0.9360    1.1170   -2.4150 hn        1 BHR      0.477800
     53 H111       -0.7890    2.5590   -4.2740 hn        1 BHR      0.465800
@<TRIPOS>BOND
     1    1    2 ar  
     2    1    7 ar  
     3    1    9 1   
     4    2    3 ar  
     5    2   30 1   
     6    3    4 ar  
     7    3   31 1   
     8    4    5 ar  
     9    4   32 1   
    10    5    6 1   
    11    5    7 ar  
    12    6   33 1   
    13    7    8 1   
    14    8   34 1   
    15    9   10 1   
    16    9   35 1   
    17    9   36 1   
    18   10   11 1   
    19   10   22 1   
    20   10   52 1   
    21   11   12 1   
    22   11   37 1   
    23   11   38 1   
    24   12   13 1   
    25   12   39 1   
    26   12   40 1   
    27   13   14 1   
    28   13   25 1   
    29   13   53 1   
    30   14   15 1   
    31   14   41 1   
    32   14   42 1   
    33   15   16 ar  
    34   15   20 ar  
    35   16   17 ar  
    36   16   43 1   
    37   17   18 ar  
    38   17   44 1   
    39   18   19 ar  
    40   18   45 1   
    41   19   20 ar  
    42   19   46 1   
    43   20   21 1   
    44   21   47 1   
    45   22   23 1   
    46   22   48 1   
    47   22   49 1   
    48   23   24 1   
    49   23   26 1   
    50   25   27 1   
    51   25   50 1   
    52   25   51 1   
    53   27   28 1   
    54   27   29 1   
@<TRIPOS>SUBSTRUCTURE
     1 BHR         1 TEMP              0 ****  ****    0 ROOT
