@<TRIPOS>MOLECULE
BHR
   51    52     1     0     0
SMALL
bcc


@<TRIPOS>ATOM
      1 C1          3.1310   -0.5480    0.8440 ca        1 BHR     -0.101300
      2 C2          2.6530   -1.8030    1.2430 ca        1 BHR     -0.110000
      3 C3          3.4910   -2.9130    1.2910 ca        1 BHR     -0.164000
      4 C4          4.8340   -2.8030    0.9310 ca        1 BHR     -0.155000
      5 C5          5.3230   -1.5650    0.5110 ca        1 BHR      0.064100
      6 O5          6.6570   -1.4870    0.1640 oh        1 BHR     -0.529100
      7 C6          4.4740   -0.4290    0.4580 ca        1 BHR      0.094100
      8 O6          5.0830    0.7250    0.0460 oh        1 BHR     -0.568100
      9 C7          2.1970    0.6320    0.8720 c3        1 BHR      0.205100
     10 N8          1.2370    0.6080   -0.2250 n3        1 BHR     -0.736600
     11 C9         -0.0190    1.2710    0.1090 c3        1 BHR      0.178800
     12 C10        -1.1900    0.7610   -0.7650 c3        1 BHR      0.163800
     13 N11        -2.4830    0.7880   -0.0840 n3        1 BHR     -0.723600
     14 C12        -3.4870    0.0520   -0.8440 c3        1 BHR      0.200100
     15 C13        -3.3610   -1.4380   -0.7030 ca        1 BHR     -0.145300
     16 C14        -2.9580   -2.2110   -1.7930 ca        1 BHR     -0.092000
     17 C15        -2.8800   -3.6000   -1.7060 ca        1 BHR     -0.204000
     18 C16        -3.1960   -4.2360   -0.5060 ca        1 BHR     -0.113000
     19 C17        -3.5890   -3.4940    0.6000 ca        1 BHR     -0.205000
     20 C18        -3.6700   -2.0870    0.5130 ca        1 BHR      0.196100
     21 O18        -4.0680   -1.4560    1.6490 oh        1 BHR     -0.530100
     22 C19         1.8020    1.0130   -1.4990 c3        1 BHR      0.048800
     23 C20         2.3880    2.4370   -1.6400 c         1 BHR      0.885600
     24 O20         3.3540    2.7840   -0.8850 o         1 BHR     -0.848300
     25 C21        -2.9090    2.1310    0.2750 c3        1 BHR      0.044800
     26 O21         1.9250    3.1860   -2.5400 o         1 BHR     -0.848300
     27 C22        -4.2420    2.2850    1.0460 c         1 BHR      0.912600
     28 O22        -4.9030    1.2790    1.4510 o         1 BHR     -0.851300
     29 O23        -4.6270    3.4720    1.2430 o         1 BHR     -0.851300
     30 H2          1.5900   -1.9010    1.5120 ha        1 BHR      0.144000
     31 H3          3.0930   -3.8860    1.6080 ha        1 BHR      0.113000
     32 H4          5.5070   -3.6690    0.9640 ha        1 BHR      0.122000
     33 HO5         6.8040   -0.6020   -0.2050 ho        1 BHR      0.434000
     34 HO6         4.4000    1.3650   -0.2740 ho        1 BHR      0.509000
     35 H7          1.6360    0.5780    1.8510 h1        1 BHR      0.055200
     36 H7A         2.7950    1.5930    0.8840 h1        1 BHR      0.055200
     37 H9         -0.2560    1.0660    1.1910 h1        1 BHR      0.040700
     38 H9A         0.0580    2.3890   -0.0220 h1        1 BHR      0.040700
     39 H10        -1.2090    1.3780   -1.7120 h1        1 BHR      0.031700
     40 H10A       -1.0010   -0.3100   -1.0620 h1        1 BHR      0.031700
     41 H12        -4.5120    0.3500   -0.4660 h1        1 BHR      0.051200
     42 H12A       -3.4460    0.3110   -1.9450 h1        1 BHR      0.051200
     43 H14        -2.6910   -1.7100   -2.7360 ha        1 BHR      0.122000
     44 H15        -2.5590   -4.1880   -2.5750 ha        1 BHR      0.107000
     45 H16        -3.1290   -5.3310   -0.4310 ha        1 BHR      0.102000
     46 H17        -3.8330   -3.9800    1.5530 ha        1 BHR      0.126000
     47 HO18       -4.1070   -0.4790    1.5080 ho        1 BHR      0.508000
     48 H19         2.6370    0.2920   -1.7280 h1        1 BHR      0.037200
     49 H19A        0.9970    0.8890   -2.2750 h1        1 BHR      0.037200
     50 H21        -2.1090    2.5580    0.9440 h1        1 BHR      0.030700
     51 H21A       -2.9790    2.7960   -0.6340 h1        1 BHR      0.030700
@<TRIPOS>BOND
     1    1    2 ar  
     2    1    7 ar  
     3    1    9 1   
     4    2    3 ar  
     5    2   30 1   
     6    3    4 ar  
     7    3   31 1   
     8    4    5 ar  
     9    4   32 1   
    10    5    6 1   
    11    5    7 ar  
    12    6   33 1   
    13    7    8 1   
    14    8   34 1   
    15    9   10 1   
    16    9   35 1   
    17    9   36 1   
    18   10   11 1   
    19   10   22 1   
    20   11   12 1   
    21   11   37 1   
    22   11   38 1   
    23   12   13 1   
    24   12   39 1   
    25   12   40 1   
    26   13   14 1   
    27   13   25 1   
    28   14   15 1   
    29   14   41 1   
    30   14   42 1   
    31   15   16 ar  
    32   15   20 ar  
    33   16   17 ar  
    34   16   43 1   
    35   17   18 ar  
    36   17   44 1   
    37   18   19 ar  
    38   18   45 1   
    39   19   20 ar  
    40   19   46 1   
    41   20   21 1   
    42   21   47 1   
    43   22   23 1   
    44   22   48 1   
    45   22   49 1   
    46   23   24 1   
    47   23   26 1   
    48   25   27 1   
    49   25   50 1   
    50   25   51 1   
    51   27   28 1   
    52   27   29 1   
@<TRIPOS>SUBSTRUCTURE
     1 BHR         1 TEMP              0 ****  ****    0 ROOT
