@<TRIPOS>MOLECULE
BHR
   51    47     1     0     0
SMALL
bcc


@<TRIPOS>ATOM
      1 C1          0.8830   -1.6070    2.6400 c1        1 BHR     -0.067000
      2 C2          1.6600   -0.4600    2.4530 c1        1 BHR     -0.139250
      3 C3          2.6890   -0.1580    3.3490 c1        1 BHR     -0.139250
      4 C4          2.9380   -0.9910    4.4180 c1        1 BHR     -0.163000
      5 C5          2.1600   -2.1390    4.6040 c1        1 BHR      0.035000
      6 O5          2.3850   -2.9810    5.7490 o         1 BHR     -0.278000
      7 C6          1.1300   -2.4400    3.7060 c2        1 BHR     -0.013000
      8 O6          0.3370   -3.6180    3.8900 oh        1 BHR     -0.295000
      9 C7         -0.1830   -2.0140    1.5660 c3        1 BHR     -0.042000
     10 N8         -0.9620   -0.9040    1.2340 n3        1 BHR     -0.261000
     11 C9         -1.3090   -0.9600   -0.1890 c3        1 BHR     -0.055000
     12 C10        -1.4410    0.5370   -0.7780 c3        1 BHR     -0.062000
     13 N11        -1.4660    0.4870   -2.2110 n3        1 BHR     -0.252000
     14 C12        -1.2460    1.8010   -2.7350 c3        1 BHR     -0.049000
     15 C13         0.2810    2.0040   -3.0210 c2        1 BHR     -0.111000
     16 C14         1.0090    1.0050   -3.6350 c2        1 BHR     -0.069000
     17 C15         2.3610    1.1920   -3.8990 c1        1 BHR     -0.180000
     18 C16         2.9780    2.3790   -3.5470 c1        1 BHR     -0.139250
     19 C17         2.2490    3.3810   -2.9310 c1        1 BHR     -0.139250
     20 C18         0.9000    3.1950   -2.6680 c1        1 BHR      0.074000
     21 O18         0.1460    4.2350   -2.0170 oh        1 BHR     -0.281000
     22 C19        -2.1960   -0.9220    2.0460 c3        1 BHR     -0.131000
     23 C20        -2.1360    0.1610    3.0530 c2        1 BHR      0.324000
     24 O20        -1.3520    1.1270    2.8860 o         1 BHR     -0.582000
     25 C21        -2.7820    0.0010   -2.6600 c3        1 BHR     -0.134000
     26 O21        -2.9450    0.1640    4.0170 o         1 BHR     -0.582000
     27 C22        -2.6330   -0.7180   -3.9730 c2        1 BHR      0.329000
     28 O22        -1.9470   -1.7360   -4.0430 o         1 BHR     -0.584500
     29 O23        -3.2420   -0.2880   -5.0060 o         1 BHR     -0.584500
     30 H2          1.4780    0.1500    1.6700 ha        1 BHR      0.138250
     31 H3          3.1620    0.6960    3.2780 ha        1 BHR      0.138250
     32 H4          3.6820   -0.7720    5.0660 ha        1 BHR      0.123000
     33 HO5         3.0810   -3.5290    5.5860 ho        1 BHR      0.225000
     34 HO6         0.8340   -4.3310    3.7550 ho        1 BHR      0.237000
     35 H7         -0.7650   -2.7220    1.9330 h1        1 BHR      0.100000
     36 H7A         0.2720   -2.3490    0.7630 h1        1 BHR      0.100000
     37 H9         -2.1640   -1.4320   -0.2980 h1        1 BHR      0.063500
     38 H9A        -0.6160   -1.4320   -0.6680 h1        1 BHR      0.063500
     39 H10        -2.2760    0.9480   -0.4500 h1        1 BHR      0.062000
     40 H10A       -0.6640    1.0810   -0.4790 h1        1 BHR      0.062000
     41 H12        -1.5480    2.4750   -2.0740 h1        1 BHR      0.098000
     42 H12A       -1.7580    1.9110   -3.5760 h1        1 BHR      0.098000
     43 H14         0.5810    0.1540   -3.8600 ha        1 BHR      0.202000
     44 H15         2.8750    0.4880   -4.3320 ha        1 BHR      0.116000
     45 H16         3.9610    2.5150   -3.7390 ha        1 BHR      0.138250
     46 H17         2.6790    4.2090   -2.6850 ha        1 BHR      0.138250
     47 HO18        0.6800    4.6760   -1.4330 ho        1 BHR      0.232000
     48 H19        -2.9430   -0.7910    1.4860 h1        1 BHR      0.059000
     49 H19A       -2.2760   -1.8140    2.5150 h1        1 BHR      0.059000
     50 H21        -3.3820    0.7540   -2.7720 h1        1 BHR      0.059500
     51 H21A       -3.1550   -0.6220   -1.9810 h1        1 BHR      0.059500
@<TRIPOS>BOND
     1    1    7 1   
     2    1    9 1   
     3    2    3 1   
     4    2   30 1   
     5    3   31 1   
     6    4    5 1   
     7    4   32 1   
     8    5    7 1   
     9    6   33 1   
    10    7    8 1   
    11    8   34 1   
    12    9   10 1   
    13    9   35 1   
    14    9   36 1   
    15   10   11 1   
    16   10   22 1   
    17   11   12 1   
    18   11   37 1   
    19   11   38 1   
    20   12   13 1   
    21   12   39 1   
    22   12   40 1   
    23   13   14 1   
    24   13   25 1   
    25   14   15 1   
    26   14   41 1   
    27   14   42 1   
    28   15   16 1   
    29   15   20 1   
    30   16   17 1   
    31   16   43 1   
    32   17   44 1   
    33   18   19 1   
    34   18   45 1   
    35   19   46 1   
    36   20   21 1   
    37   21   47 1   
    38   22   23 1   
    39   22   48 1   
    40   22   49 1   
    41   23   24 1   
    42   23   26 1   
    43   25   27 1   
    44   25   50 1   
    45   25   51 1   
    46   27   28 1   
    47   27   29 1   
@<TRIPOS>SUBSTRUCTURE
     1 BHR         1 TEMP              0 ****  ****    0 ROOT
