@<TRIPOS>MOLECULE
BHR
   53    54     1     0     0
SMALL
bcc


@<TRIPOS>ATOM
      1 C1         -0.9180   -0.3360   -0.2260 ca        1 BHR     -0.163300
      2 C2         -0.8790   -1.4480   -1.0790 ca        1 BHR     -0.100000
      3 C3         -0.1760   -2.5920   -0.7160 ca        1 BHR     -0.123000
      4 C4          0.5020   -2.6520    0.5030 ca        1 BHR     -0.147000
      5 C5          0.4780   -1.5470    1.3550 ca        1 BHR      0.032100
      6 O5          1.1200   -1.5080    2.5780 oh        1 BHR     -0.516100
      7 C6         -0.2250   -0.3750    0.9940 ca        1 BHR      0.141100
      8 O6         -0.2590    0.7410    1.7900 oh        1 BHR     -0.492100
      9 C7         -1.7200    0.8670   -0.5990 c3        1 BHR      0.181100
     10 N8         -1.1740    1.5280   -1.8410 nx        1 BHR     -0.673400
     11 C9         -2.3080    2.1530   -2.5830 c3        1 BHR      0.085800
     12 C10        -1.9660    3.1000   -3.7370 c3        1 BHR      0.093800
     13 N11        -1.1930    2.5220   -4.8750 nx        1 BHR     -0.669400
     14 C12        -1.0230    3.5070   -5.9970 c3        1 BHR      0.195100
     15 C13        -0.7150    4.9100   -5.6030 ca        1 BHR     -0.204300
     16 C14        -1.3890    5.9530   -6.2550 ca        1 BHR     -0.083000
     17 C15        -1.1020    7.2790   -5.9590 ca        1 BHR     -0.162000
     18 C16        -0.1410    7.5910   -4.9900 ca        1 BHR     -0.069000
     19 C17         0.5420    6.5780   -4.3310 ca        1 BHR     -0.167000
     20 C18         0.2690    5.2360   -4.6510 ca        1 BHR      0.173100
     21 O18         0.9450    4.2020   -4.0560 oh        1 BHR     -0.561100
     22 C19        -0.0860    2.4850   -1.5000 c3        1 BHR     -0.059200
     23 C20        -0.5690    3.9240   -1.1290 c         1 BHR      0.920600
     24 O20         0.1520    4.8540   -1.5810 o         1 BHR     -0.798300
     25 C21        -1.8160    1.2680   -5.3990 c3        1 BHR     -0.050200
     26 O21        -1.6260    4.0360   -0.4650 o         1 BHR     -0.798300
     27 C22        -1.4180    0.0510   -4.5070 c         1 BHR      0.896600
     28 O22        -2.3270   -0.7280   -4.1520 o         1 BHR     -0.785800
     29 O23        -0.2070    0.0160   -4.1360 o         1 BHR     -0.785800
     30 H2         -1.3980   -1.4130   -2.0590 ha        1 BHR      0.185000
     31 H3         -0.1490   -3.4560   -1.3980 ha        1 BHR      0.151000
     32 H4          1.0540   -3.5580    0.7910 ha        1 BHR      0.140000
     33 HO5         1.5800   -2.3500    2.6970 ho        1 BHR      0.433000
     34 HO6         0.2440    0.5540    2.6000 ho        1 BHR      0.448000
     35 H7         -2.7800    0.5420   -0.8090 hx        1 BHR      0.117700
     36 H7A        -1.7320    1.6460    0.2230 hx        1 BHR      0.117700
     37 H9         -2.9620    1.3090   -2.9560 hx        1 BHR      0.134200
     38 H9A        -2.8780    2.7940   -1.8360 hx        1 BHR      0.134200
     39 H10        -2.9480    3.4790   -4.1420 hx        1 BHR      0.126200
     40 H10A       -1.3770    3.9850   -3.3350 hx        1 BHR      0.126200
     41 H12        -1.9760    3.4860   -6.6020 hx        1 BHR      0.089200
     42 H12A       -0.1790    3.1070   -6.6340 hx        1 BHR      0.089200
     43 H14        -2.1550    5.7160   -7.0100 ha        1 BHR      0.131000
     44 H15        -1.6370    8.0870   -6.4800 ha        1 BHR      0.142000
     45 H16         0.0680    8.6430   -4.7440 ha        1 BHR      0.145000
     46 H17         1.2670    6.8030   -3.5330 ha        1 BHR      0.167000
     47 HO18        1.2790    4.5120   -3.1850 ho        1 BHR      0.490000
     48 H19         0.4780    2.0760   -0.6160 hx        1 BHR      0.090700
     49 H19A        0.6080    2.5410   -2.3840 hx        1 BHR      0.090700
     50 H21        -1.4280    1.0720   -6.4350 hx        1 BHR      0.091200
     51 H21A       -2.9300    1.3870   -5.4290 hx        1 BHR      0.091200
     52 H81        -0.7500    0.7770   -2.4270 hn        1 BHR      0.478800
     53 H111       -0.2460    2.2730   -4.5200 hn        1 BHR      0.480800
@<TRIPOS>BOND
     1    1    2 ar  
     2    1    7 ar  
     3    1    9 1   
     4    2    3 ar  
     5    2   30 1   
     6    3    4 ar  
     7    3   31 1   
     8    4    5 ar  
     9    4   32 1   
    10    5    6 1   
    11    5    7 ar  
    12    6   33 1   
    13    7    8 1   
    14    8   34 1   
    15    9   10 1   
    16    9   35 1   
    17    9   36 1   
    18   10   11 1   
    19   10   22 1   
    20   10   52 1   
    21   11   12 1   
    22   11   37 1   
    23   11   38 1   
    24   12   13 1   
    25   12   39 1   
    26   12   40 1   
    27   13   14 1   
    28   13   25 1   
    29   13   53 1   
    30   14   15 1   
    31   14   41 1   
    32   14   42 1   
    33   15   16 ar  
    34   15   20 ar  
    35   16   17 ar  
    36   16   43 1   
    37   17   18 ar  
    38   17   44 1   
    39   18   19 ar  
    40   18   45 1   
    41   19   20 ar  
    42   19   46 1   
    43   20   21 1   
    44   21   47 1   
    45   22   23 1   
    46   22   48 1   
    47   22   49 1   
    48   23   24 1   
    49   23   26 1   
    50   25   27 1   
    51   25   50 1   
    52   25   51 1   
    53   27   28 1   
    54   27   29 1   
@<TRIPOS>SUBSTRUCTURE
     1 BHR         1 TEMP              0 ****  ****    0 ROOT
