@<TRIPOS>MOLECULE
BHS
   32    33     1     0     0
SMALL
bcc


@<TRIPOS>ATOM
      1 N1         -1.1120    0.2180   -2.5340 nc        1 BHS     -0.695300
      2 C2          0.0230    0.3710   -3.2380 cd        1 BHS      0.663800
      3 N2         -0.0340    1.0060   -4.5070 nh        1 BHS     -0.882800
      4 N3          1.2900    0.0000   -2.7570 n         1 BHS     -0.491400
      5 C4          1.4440   -0.4950   -1.4470 c         1 BHS      0.711700
      6 O4          2.6030   -0.7180   -1.0430 o         1 BHS     -0.643500
      7 C4A         0.2180   -0.6800   -0.6730 cd        1 BHS     -0.186200
      8 C8A        -1.0200   -0.3270   -1.2480 cc        1 BHS      0.373600
      9 N5          0.2900   -1.3210    0.5870 nh        1 BHS     -0.656000
     10 C6         -0.7670   -0.9270    1.5000 c3        1 BHS      0.136500
     11 C7         -2.1550   -1.0000    0.8140 c3        1 BHS      0.208800
     12 N8         -2.2140   -0.5480   -0.5550 nh        1 BHS     -0.717000
     13 C1'        -0.6170    0.4460    2.2030 c3        1 BHS      0.071100
     14 O1'        -0.9500    1.5290    1.3570 oh        1 BHS     -0.592800
     15 C2'         0.7940    0.6440    2.7920 c3        1 BHS      0.103100
     16 O2'         1.2800   -0.5600    3.3570 oh        1 BHS     -0.590800
     17 C3'         0.7890    1.7780    3.8000 c3        1 BHS     -0.127100
     18 HN21       -0.9640    1.1650   -4.8350 hn        1 BHS      0.413300
     19 HN22        0.5600    0.5990   -5.1960 hn        1 BHS      0.413300
     20 HN3         2.1120    0.1680   -3.2940 hn        1 BHS      0.337500
     21 HN5         1.2030   -1.2390    1.0020 hn        1 BHS      0.416800
     22 H6         -0.7500   -1.7010    2.3260 h1        1 BHS      0.079700
     23 H71        -2.4830   -2.0810    0.8120 h1        1 BHS      0.056200
     24 H72        -2.8850   -0.4060    1.4340 h1        1 BHS      0.056200
     25 HN8        -2.9670    0.0700   -0.7710 hn        1 BHS      0.429800
     26 H1'        -1.3820    0.5040    3.0300 h1        1 BHS      0.073700
     27 HO1        -0.3530    1.4970    0.5970 ho        1 BHS      0.408000
     28 H2'         1.5260    0.8710    1.9640 h1        1 BHS      0.083700
     29 HO2         0.7640   -0.7360    4.1540 ho        1 BHS      0.399000
     30 H3'1        1.8270    1.9750    4.1580 hc        1 BHS      0.049367
     31 H3'2        0.3820    2.7000    3.3200 hc        1 BHS      0.049367
     32 H3'3        0.1530    1.5200    4.6800 hc        1 BHS      0.049367
@<TRIPOS>BOND
     1    1    2 2   
     2    1    8 1   
     3    2    3 1   
     4    2    4 1   
     5    3   18 1   
     6    3   19 1   
     7    4    5 1   
     8    4   20 1   
     9    5    6 2   
    10    5    7 1   
    11    7    8 2   
    12    7    9 1   
    13    8   12 1   
    14    9   10 1   
    15    9   21 1   
    16   10   11 1   
    17   10   13 1   
    18   10   22 1   
    19   11   12 1   
    20   11   23 1   
    21   11   24 1   
    22   12   25 1   
    23   13   14 1   
    24   13   15 1   
    25   13   26 1   
    26   14   27 1   
    27   15   16 1   
    28   15   17 1   
    29   15   28 1   
    30   16   29 1   
    31   17   30 1   
    32   17   31 1   
    33   17   32 1   
@<TRIPOS>SUBSTRUCTURE
     1 BHS         1 TEMP              0 ****  ****    0 ROOT
