@<TRIPOS>MOLECULE
BHS
   32    30     1     0     0
SMALL
bcc


@<TRIPOS>ATOM
      1 N1          1.1130   -1.6050   -2.2470 n1        1 BHS     -0.593800
      2 C2          2.5200   -1.7280   -2.2420 c1        1 BHS      0.435400
      3 N2          3.2320   -1.9200   -3.4940 n3        1 BHS     -0.420400
      4 N3          3.2430   -1.6190   -1.0210 n2        1 BHS     -0.793800
      5 C4          2.5820   -1.3950    0.1490 c1        1 BHS      0.603900
      6 O4          3.1720   -1.4880    1.1910 o         1 BHS     -0.622900
      7 C4A         1.2040   -1.2730    0.1510 c1        1 BHS     -0.173200
      8 C8A         0.4590   -1.3860   -1.1050 c1        1 BHS      0.514600
      9 N5          0.4550   -0.8370    1.3550 n3        1 BHS     -0.630800
     10 C6         -0.8430   -0.4430    1.1750 c3        1 BHS      0.153500
     11 C7         -1.6130   -1.1640    0.1620 c3        1 BHS      0.185800
     12 N8         -1.0720   -1.2530   -1.0350 n3        1 BHS     -0.691800
     13 C1'        -0.8350    1.1180    0.7720 c3        1 BHS      0.113100
     14 O1'         0.4250    1.6510    1.0180 oh        1 BHS     -0.600800
     15 C2'        -1.8430    1.8410    1.5700 c3        1 BHS      0.141100
     16 O2'        -3.0030    1.0430    1.7060 oh        1 BHS     -0.613800
     17 C3'        -2.2110    3.1700    0.8520 c3        1 BHS     -0.131100
     18 HN21        2.7660   -2.2170   -4.2600 hn        1 BHS      0.257700
     19 HN22        4.1310   -1.8120   -3.5250 hn        1 BHS      0.257700
     20 HN3         4.1920   -1.7020   -1.0200 hn        1 BHS      0.495400
     21 HN5         0.9180   -0.1750    1.7750 hn        1 BHS      0.404800
     22 H6         -1.3300   -0.5400    2.0710 h1        1 BHS      0.083700
     23 H71        -2.4370   -0.7140    0.0640 h1        1 BHS      0.063700
     24 H72        -1.7560   -2.0880    0.4960 h1        1 BHS      0.063700
     25 HN8        -1.3560   -0.5200   -1.5690 hn        1 BHS      0.421800
     26 H1'        -1.0500    1.2110   -0.1880 h1        1 BHS      0.060700
     27 HO1         0.7330    2.0740    0.2580 ho        1 BHS      0.412000
     28 H2'        -1.4730    2.0410    2.4720 h1        1 BHS      0.050700
     29 HO2        -3.4970    1.3560    2.3540 ho        1 BHS      0.407000
     30 H3'1       -1.4870    3.8630    1.0300 hc        1 BHS      0.049033
     31 H3'2       -2.2810    3.0130   -0.1040 hc        1 BHS      0.049033
     32 H3'3       -3.0610    3.4960    1.1890 hc        1 BHS      0.049033
@<TRIPOS>BOND
     1    1    8 3   
     2    2    3 2   
     3    2    4 2   
     4    3   18 1   
     5    3   19 1   
     6    4   20 1   
     7    5    6 1   
     8    5    7 3   
     9    7    9 1   
    10    8   12 1   
    11    9   10 1   
    12    9   21 1   
    13   10   11 1   
    14   10   13 1   
    15   10   22 1   
    16   11   12 1   
    17   11   23 1   
    18   11   24 1   
    19   12   25 1   
    20   13   14 1   
    21   13   15 1   
    22   13   26 1   
    23   14   27 1   
    24   15   16 1   
    25   15   17 1   
    26   15   28 1   
    27   16   29 1   
    28   17   30 1   
    29   17   31 1   
    30   17   32 1   
@<TRIPOS>SUBSTRUCTURE
     1 BHS         1 TEMP              0 ****  ****    0 ROOT
