@<TRIPOS>MOLECULE
BHS
   32    33     1     0     0
SMALL
bcc


@<TRIPOS>ATOM
      1 N1          0.0320   -0.1580   -0.2180 nc        1 BHS     -0.668300
      2 C2          1.3690   -0.2790   -0.2190 cd        1 BHS      0.648800
      3 N2          2.0740   -0.2020   -1.4510 nv        1 BHS     -0.878800
      4 N3          2.1350   -0.4230    0.9530 ns        1 BHS     -0.489400
      5 C4          1.5360   -0.3010    2.2210 c         1 BHS      0.714700
      6 O4          2.2620   -0.4380    3.2240 o         1 BHS     -0.638500
      7 C4A         0.0870   -0.0510    2.2320 cd        1 BHS     -0.145200
      8 C8A        -0.6170   -0.0910    1.0180 cc        1 BHS      0.327600
      9 N5         -0.4960    0.3130    3.4620 nu        1 BHS     -0.681000
     10 C6         -1.9370    0.4840    3.4650 c3        1 BHS      0.126500
     11 C7         -2.6480   -0.2610    2.3040 c3        1 BHS      0.162800
     12 N8         -2.0310   -0.1140    1.0090 nu        1 BHS     -0.689000
     13 C1'        -2.3520    1.9780    3.4300 c3        1 BHS      0.150100
     14 O1'        -1.9520    2.6250    2.2400 oh        1 BHS     -0.601800
     15 C2'        -1.8240    2.7310    4.6660 c3        1 BHS      0.110100
     16 O2'        -2.2930    2.0090    5.8000 oh        1 BHS     -0.607800
     17 C3'        -2.3320    4.1610    4.6820 c3        1 BHS     -0.132100
     18 HN21        2.7980   -0.8830   -1.5450 hn        1 BHS      0.410300
     19 HN22        1.4750   -0.1620   -2.2500 hn        1 BHS      0.410300
     20 HN3         3.1270   -0.5050    0.9100 hn        1 BHS      0.336500
     21 HN5        -0.1680   -0.2680    4.2120 hn        1 BHS      0.403800
     22 H6         -2.3490    0.0790    4.4390 h1        1 BHS      0.086700
     23 H71        -2.6520   -1.3620    2.5480 h1        1 BHS      0.062200
     24 H72        -3.7150    0.0890    2.2410 h1        1 BHS      0.062200
     25 HN8        -2.4380    0.5960    0.4320 hn        1 BHS      0.419800
     26 H1'        -3.4780    2.0330    3.4170 h1        1 BHS      0.079700
     27 HO1        -0.9870    2.6210    2.2130 ho        1 BHS      0.416000
     28 H2'        -0.6970    2.7260    4.6610 h1        1 BHS      0.054700
     29 HO2        -2.0180    2.5090    6.5770 ho        1 BHS      0.406000
     30 H3'1       -3.4360    4.1780    4.8480 hc        1 BHS      0.047700
     31 H3'2       -2.1070    4.6480    3.7030 hc        1 BHS      0.047700
     32 H3'3       -1.8390    4.7380    5.5000 hc        1 BHS      0.047700
@<TRIPOS>BOND
     1    1    2 2   
     2    1    8 1   
     3    2    3 1   
     4    2    4 1   
     5    3   18 1   
     6    3   19 1   
     7    4    5 1   
     8    4   20 1   
     9    5    6 2   
    10    5    7 1   
    11    7    8 2   
    12    7    9 1   
    13    8   12 1   
    14    9   10 1   
    15    9   21 1   
    16   10   11 1   
    17   10   13 1   
    18   10   22 1   
    19   11   12 1   
    20   11   23 1   
    21   11   24 1   
    22   12   25 1   
    23   13   14 1   
    24   13   15 1   
    25   13   26 1   
    26   14   27 1   
    27   15   16 1   
    28   15   17 1   
    29   15   28 1   
    30   16   29 1   
    31   17   30 1   
    32   17   31 1   
    33   17   32 1   
@<TRIPOS>SUBSTRUCTURE
     1 BHS         1 TEMP              0 ****  ****    0 ROOT
