@<TRIPOS>MOLECULE
BHS
   33    34     1     0     0
SMALL
bcc


@<TRIPOS>ATOM
      1 N1          0.1370   -0.3680   -0.2000 nc        1 BHS     -0.477300
      2 C2          1.4590   -0.4990   -0.1210 cd        1 BHS      0.365800
      3 N2          2.1660   -0.8130   -1.3940 n4        1 BHS     -0.769600
      4 N3          2.2380   -0.3620    1.0420 n         1 BHS     -0.467400
      5 C4          1.6000   -0.0510    2.2500 c         1 BHS      0.686700
      6 O4          2.2920    0.0980    3.2680 o         1 BHS     -0.574500
      7 C4A         0.1140    0.0930    2.2010 cd        1 BHS      0.116800
      8 C8A        -0.5570   -0.0800    0.9560 cc        1 BHS      0.160600
      9 N5         -0.5490    0.3360    3.3560 nh        1 BHS     -0.679000
     10 C6         -1.9840    0.5230    3.3590 c3        1 BHS      0.188500
     11 C7         -2.6420   -0.1930    2.1480 c3        1 BHS      0.157800
     12 N8         -1.9850   -0.0090    0.8730 nh        1 BHS     -0.647000
     13 C1'        -2.4300    2.0040    3.4180 c3        1 BHS      0.120100
     14 O1'        -2.1340    2.5950    2.1620 oh        1 BHS     -0.614800
     15 C2'        -1.7320    2.7890    4.5490 c3        1 BHS      0.105100
     16 O2'        -1.4900    1.8680    5.6060 oh        1 BHS     -0.619800
     17 C3'        -2.5840    3.9590    4.9990 c3        1 BHS     -0.141100
     18 HN21        1.4750   -0.8820   -2.1570 hn        1 BHS      0.473133
     19 HN22        2.8360   -0.0680   -1.6110 hn        1 BHS      0.473133
     20 HN3         3.2280   -0.4740    1.0400 hn        1 BHS      0.349500
     21 HN5        -0.0480    0.5380    4.1990 hn        1 BHS      0.489800
     22 H6         -2.3670    0.0500    4.3170 h1        1 BHS      0.111700
     23 H71        -2.6620   -1.2990    2.3630 h1        1 BHS      0.084200
     24 H72        -3.7020    0.1720    2.0540 h1        1 BHS      0.084200
     25 HN8        -2.2600    0.8530    0.4300 hn        1 BHS      0.406800
     26 H1'        -3.5440    2.0110    3.5890 h1        1 BHS      0.065700
     27 HO1        -2.4340    3.5130    2.2010 ho        1 BHS      0.423000
     28 H2'        -0.7350    3.1630    4.1720 h1        1 BHS      0.053700
     29 HO2        -1.3850    2.3780    6.4190 ho        1 BHS      0.428000
     30 H3'1       -2.0320    4.5730    5.7510 hc        1 BHS      0.057367
     31 H3'2       -3.5330    3.5970    5.4660 hc        1 BHS      0.057367
     32 H3'3       -2.8370    4.6090    4.1280 hc        1 BHS      0.057367
     33 H23         2.6550   -1.7100   -1.3020 hn        1 BHS      0.473133
@<TRIPOS>BOND
     1    1    2 2   
     2    1    8 1   
     3    2    3 1   
     4    2    4 1   
     5    3   18 1   
     6    3   19 1   
     7    3   33 1   
     8    4    5 1   
     9    4   20 1   
    10    5    6 2   
    11    5    7 1   
    12    7    8 2   
    13    7    9 1   
    14    8   12 1   
    15    9   10 1   
    16    9   21 1   
    17   10   11 1   
    18   10   13 1   
    19   10   22 1   
    20   11   12 1   
    21   11   23 1   
    22   11   24 1   
    23   12   25 1   
    24   13   14 1   
    25   13   15 1   
    26   13   26 1   
    27   14   27 1   
    28   15   16 1   
    29   15   17 1   
    30   15   28 1   
    31   16   29 1   
    32   17   30 1   
    33   17   31 1   
    34   17   32 1   
@<TRIPOS>SUBSTRUCTURE
     1 BHS         1 TEMP              0 ****  ****    0 ROOT
