@<TRIPOS>MOLECULE
BHX
   30    29     1     0     0
SMALL
bcc


@<TRIPOS>ATOM
      1 O3          4.9650   -2.1130    0.5360 o         1 BHX     -0.876300
      2 C2          5.0690   -0.9510    0.0410 c         1 BHX      0.908600
      3 O2          6.1940   -0.3730   -0.0870 o         1 BHX     -0.876300
      4 C4          3.8220   -0.2140   -0.4550 c3        1 BHX     -0.168400
      5 C5          2.5670   -0.5230    0.3190 c3        1 BHX     -0.407600
      6 P6          1.2800    0.1870   -0.4300 p5        1 BHX      1.516100
      7 O61         1.4790    1.7700   -0.1640 oh        1 BHX     -0.820400
      8 O6          1.1770   -0.0560   -1.8750 o         1 BHX     -0.896300
      9 C1          0.0040   -0.2470    0.5150 c3        1 BHX     -0.442600
     10 CA         -1.3190    0.3670    0.0730 c3        1 BHX     -0.154700
     11 C          -1.5970    1.7290    0.7630 c         1 BHX      0.904600
     12 O          -0.8310    2.1130    1.7070 o         1 BHX     -0.863300
     13 OC         -2.5400    2.4540    0.3400 o         1 BHX     -0.863300
     14 CB         -2.4670   -0.6040    0.3420 c3        1 BHX     -0.026400
     15 CG         -3.7020   -0.3370   -0.4870 c3        1 BHX     -0.178400
     16 CD         -4.8170   -1.3630   -0.2800 c         1 BHX      0.901600
     17 OE2        -5.7460   -1.4190   -1.1500 o         1 BHX     -0.891300
     18 OE1        -4.8220   -2.1310    0.7310 o         1 BHX     -0.891300
     19 H4          4.0030    0.8900   -0.4190 hc        1 BHX      0.042700
     20 H4A         3.6550   -0.4990   -1.5270 hc        1 BHX      0.042700
     21 H5          2.4860   -1.6400    0.3940 hc        1 BHX      0.092200
     22 H5A         2.7040   -0.1750    1.3740 hc        1 BHX      0.092200
     23 H1         -0.1060   -1.3610    0.5460 hc        1 BHX      0.094700
     24 H1A         0.1500    0.0680    1.5860 hc        1 BHX      0.094700
     25 HA         -1.2550    0.5610   -1.0340 hc        1 BHX      0.048700
     26 HB         -2.1290   -1.6550    0.1330 hc        1 BHX      0.023700
     27 HBA        -2.7400   -0.5630    1.4290 hc        1 BHX      0.023700
     28 HG         -4.1020    0.6800   -0.2340 hc        1 BHX      0.040200
     29 HGA        -3.4340   -0.3270   -1.5750 hc        1 BHX      0.040200
     30 H14         0.8130    2.1940    0.3850 ho        1 BHX      0.491000
@<TRIPOS>BOND
     1    1    2 1   
     2    2    3 1   
     3    2    4 1   
     4    4    5 1   
     5    4   19 1   
     6    4   20 1   
     7    5    6 1   
     8    5   21 1   
     9    5   22 1   
    10    6    7 1   
    11    6    8 2   
    12    6    9 1   
    13    7   30 1   
    14    9   10 1   
    15    9   23 1   
    16    9   24 1   
    17   10   11 1   
    18   10   14 1   
    19   10   25 1   
    20   11   12 1   
    21   11   13 1   
    22   14   15 1   
    23   14   26 1   
    24   14   27 1   
    25   15   16 1   
    26   15   28 1   
    27   15   29 1   
    28   16   17 1   
    29   16   18 1   
@<TRIPOS>SUBSTRUCTURE
     1 BHX         1 TEMP              0 ****  ****    0 ROOT
