@<TRIPOS>MOLECULE
BHX
   30    29     1     0     0
SMALL
bcc


@<TRIPOS>ATOM
      1 O3         -0.0890   -0.2460   -0.1120 o         1 BHX     -0.876800
      2 C2          1.1710   -0.1130   -0.1680 c         1 BHX      0.908600
      3 O2          1.8650    0.1550    0.8630 o         1 BHX     -0.876800
      4 C4          1.9030   -0.3110   -1.4970 c3        1 BHX     -0.167400
      5 C5          1.1260    0.1410   -2.7070 c3        1 BHX     -0.404600
      6 P6          1.9080   -0.3420   -4.0760 p5        1 BHX      1.512100
      7 O61         3.1210    0.7090   -4.2170 oh        1 BHX     -0.832400
      8 O6          2.4570   -1.7050   -4.0630 o         1 BHX     -0.901300
      9 C1          0.8190   -0.0170   -5.2730 c3        1 BHX     -0.428600
     10 CA          1.4560    0.0210   -6.6550 c3        1 BHX     -0.155700
     11 C           1.7790    1.4890   -7.0420 c         1 BHX      0.906600
     12 O           0.8590    2.2770   -7.3950 o         1 BHX     -0.861300
     13 OC          2.9910    1.8610   -6.9260 o         1 BHX     -0.861300
     14 CB          0.5670   -0.6340   -7.7070 c3        1 BHX     -0.041400
     15 CG          1.3300   -1.0940   -8.9290 c3        1 BHX     -0.171400
     16 CD          0.4980   -1.9090   -9.9220 c         1 BHX      0.903600
     17 OE2         0.9850   -2.1010  -11.0840 o         1 BHX     -0.887300
     18 OE1        -0.6240   -2.3990   -9.5920 o         1 BHX     -0.887300
     19 H4          2.8790    0.2370   -1.4690 hc        1 BHX      0.042700
     20 H4A         2.1280   -1.4050   -1.6090 hc        1 BHX      0.042700
     21 H5          0.9990    1.2520   -2.6530 hc        1 BHX      0.093700
     22 H5A         0.0870   -0.2720   -2.6110 hc        1 BHX      0.093700
     23 H1          0.0100   -0.7950   -5.2740 hc        1 BHX      0.090200
     24 H1A         0.2800    0.9570   -5.1290 hc        1 BHX      0.090200
     25 HA          2.4290   -0.5450   -6.5990 hc        1 BHX      0.034700
     26 HB         -0.2230    0.1000   -8.0160 hc        1 BHX      0.038700
     27 HBA         0.0430   -1.5250   -7.2690 hc        1 BHX      0.038700
     28 HG          2.1940   -1.7370   -8.6160 hc        1 BHX      0.026200
     29 HGA         1.7530   -0.2060   -9.4650 hc        1 BHX      0.026200
     30 H14         3.2970    1.0820   -5.0870 ho        1 BHX      0.502000
@<TRIPOS>BOND
     1    1    2 1   
     2    2    3 1   
     3    2    4 1   
     4    4    5 1   
     5    4   19 1   
     6    4   20 1   
     7    5    6 1   
     8    5   21 1   
     9    5   22 1   
    10    6    7 1   
    11    6    8 2   
    12    6    9 1   
    13    7   30 1   
    14    9   10 1   
    15    9   23 1   
    16    9   24 1   
    17   10   11 1   
    18   10   14 1   
    19   10   25 1   
    20   11   12 1   
    21   11   13 1   
    22   14   15 1   
    23   14   26 1   
    24   14   27 1   
    25   15   16 1   
    26   15   28 1   
    27   15   29 1   
    28   16   17 1   
    29   16   18 1   
@<TRIPOS>SUBSTRUCTURE
     1 BHX         1 TEMP              0 ****  ****    0 ROOT
