@<TRIPOS>MOLECULE
BHX
   30    28     1     0     0
SMALL
bcc


@<TRIPOS>ATOM
      1 O3         -3.1750   -2.3630    4.3050 o         1 BHX     -0.603000
      2 C2         -1.9160   -2.3630    4.3050 c1        1 BHX      0.328000
      3 O2         -1.2860   -2.3630    5.3950 os        1 BHX     -0.620000
      4 C4         -1.1600   -2.3630    2.9950 c3        1 BHX     -0.196000
      5 C5         -0.9330   -0.9370    2.5430 c3        1 BHX     -0.891000
      6 P6          0.0730   -0.9340    1.0320 p5        1 BHX      2.832000
      7 O61         1.5850   -1.2040    1.4050 oh        1 BHX     -0.865000
      8 O6         -0.4060   -1.9940    0.1170 o         1 BHX     -1.172000
      9 C1         -0.0690    0.6810    0.2140 c3        1 BHX     -0.914000
     10 CA          0.7290    0.6670   -1.0710 c3        1 BHX     -0.145000
     11 C           2.1470    1.1120   -0.7890 c2        1 BHX      0.326000
     12 O           3.1130    0.3540   -1.0720 o         1 BHX     -0.596000
     13 OC          2.3620    2.2390   -0.2700 o         1 BHX     -0.596000
     14 CB          0.0940    1.6100   -2.0690 c3        1 BHX     -0.120000
     15 CG          0.5740    1.2680   -3.4630 c3        1 BHX     -0.200000
     16 CD         -0.0310    2.2350   -4.4560 c2        1 BHX      0.323000
     17 OE2         0.5490    3.3240   -4.7070 o         1 BHX     -0.622000
     18 OE1        -1.1140    1.9510   -5.0320 o         1 BHX     -0.622000
     19 H4         -1.6790   -2.8400    2.3200 hc        1 BHX      0.082000
     20 H4A        -0.2980   -2.8060    3.1160 hc        1 BHX      0.082000
     21 H5         -1.7940   -0.5130    2.3620 hc        1 BHX      0.133000
     22 H5A        -0.4680   -0.4430    3.2450 hc        1 BHX      0.133000
     23 H1         -1.0070    0.8620    0.0120 hc        1 BHX      0.129500
     24 H1A         0.2770    1.3770    0.8040 hc        1 BHX      0.129500
     25 HA          0.7390   -0.2370   -1.4390 hc        1 BHX      0.074000
     26 HB          0.3470    2.5290   -1.8550 hc        1 BHX      0.078000
     27 HBA        -0.8770    1.5220   -2.0290 hc        1 BHX      0.078000
     28 HG          0.3000    0.3580   -3.6870 hc        1 BHX      0.065500
     29 HGA         1.5470    1.3320   -3.4970 hc        1 BHX      0.065500
     30 H14         1.7760   -2.0590    1.2660 ho        1 BHX      0.301000
@<TRIPOS>BOND
     1    1    2 1   
     2    2    4 1   
     3    4    5 1   
     4    4   19 1   
     5    4   20 1   
     6    5    6 1   
     7    5   21 1   
     8    5   22 1   
     9    6    7 1   
    10    6    8 1   
    11    6    9 1   
    12    7   30 1   
    13    9   10 1   
    14    9   23 1   
    15    9   24 1   
    16   10   11 1   
    17   10   14 1   
    18   10   25 1   
    19   11   12 1   
    20   11   13 1   
    21   14   15 1   
    22   14   26 1   
    23   14   27 1   
    24   15   16 1   
    25   15   28 1   
    26   15   29 1   
    27   16   17 1   
    28   16   18 1   
@<TRIPOS>SUBSTRUCTURE
     1 BHX         1 TEMP              0 ****  ****    0 ROOT
