@<TRIPOS>MOLECULE
BHX
   29    28     1     0     0
SMALL
bcc


@<TRIPOS>ATOM
      1 O3          0.0700    0.2870    0.1370 o         1 BHX     -0.914800
      2 C2          1.3010    0.1260   -0.1470 c         1 BHX      0.900600
      3 O2          2.1850    0.3770    0.7420 o         1 BHX     -0.914800
      4 C4          1.7460   -0.4310   -1.4950 c3        1 BHX     -0.143400
      5 C5          1.1880    0.2200   -2.7270 c3        1 BHX     -0.316600
      6 P6          1.7610   -0.6550   -4.0960 p5        1 BHX      1.268400
      7 O61         3.2160   -0.3600   -4.2690 o         1 BHX     -0.918500
      8 O6          1.3980   -2.1000   -3.9190 o         1 BHX     -0.918500
      9 C1          0.7570    0.0170   -5.2940 c3        1 BHX     -0.342600
     10 CA          1.3720    0.1490   -6.6730 c3        1 BHX     -0.125700
     11 C           1.2120    1.5790   -7.2400 c         1 BHX      0.914600
     12 O           0.1510    2.2520   -7.0310 o         1 BHX     -0.902300
     13 OC          2.1560    2.0850   -7.9310 o         1 BHX     -0.902300
     14 CB          0.7570   -0.8430   -7.6700 c3        1 BHX     -0.038400
     15 CG          1.5420   -0.9650   -8.9600 c3        1 BHX     -0.167400
     16 CD          0.9360   -1.8670  -10.0310 c         1 BHX      0.900600
     17 OE2         1.7290   -2.4680  -10.8370 o         1 BHX     -0.912300
     18 OE1        -0.3200   -2.0050  -10.1740 o         1 BHX     -0.912300
     19 H4          2.8650   -0.3810   -1.5580 hc        1 BHX      0.037200
     20 H4A         1.4560   -1.5170   -1.5290 hc        1 BHX      0.037200
     21 H5          0.0740    0.2220   -2.6710 hc        1 BHX      0.041700
     22 H5A         1.5100    1.2860   -2.7760 hc        1 BHX      0.041700
     23 H1          0.3970    1.0340   -4.9900 hc        1 BHX      0.054700
     24 H1A        -0.1680   -0.6110   -5.3650 hc        1 BHX      0.054700
     25 HA          2.4750   -0.0560   -6.5800 hc        1 BHX      0.059700
     26 HB         -0.2890   -0.5170   -7.9100 hc        1 BHX      0.023200
     27 HBA         0.6870   -1.8560   -7.1940 hc        1 BHX      0.023200
     28 HG          2.5730   -1.3420   -8.7320 hc        1 BHX      0.035700
     29 HGA         1.6570    0.0600   -9.4040 hc        1 BHX      0.035700
@<TRIPOS>BOND
     1    1    2 1   
     2    2    3 1   
     3    2    4 1   
     4    4    5 1   
     5    4   19 1   
     6    4   20 1   
     7    5    6 1   
     8    5   21 1   
     9    5   22 1   
    10    6    7 1   
    11    6    8 1   
    12    6    9 1   
    13    9   10 1   
    14    9   23 1   
    15    9   24 1   
    16   10   11 1   
    17   10   14 1   
    18   10   25 1   
    19   11   12 1   
    20   11   13 1   
    21   14   15 1   
    22   14   26 1   
    23   14   27 1   
    24   15   16 1   
    25   15   28 1   
    26   15   29 1   
    27   16   17 1   
    28   16   18 1   
@<TRIPOS>SUBSTRUCTURE
     1 BHX         1 TEMP              0 ****  ****    0 ROOT
