@<TRIPOS>MOLECULE
BHY
   58    59     1     0     0
SMALL
bcc


@<TRIPOS>ATOM
      1 N1          0.0590    0.0280   -0.1670 ny        1 BHY     -0.711900
      2 C2         -3.6720   -2.8220    0.6610 ca        1 BHY     -0.113500
      3 N2         -7.9210  -10.2250    5.7300 ny        1 BHY     -0.711900
      4 C4         -4.2070   -3.8760    2.7810 cp        1 BHY     -0.025000
      5 O4          2.0770   -0.2070    1.3880 o         1 BHY     -0.553300
      6 C6         -2.7800   -1.9150    2.7150 ca        1 BHY     -0.113500
      7 C7         -6.2740   -6.8550    5.0430 ca        1 BHY     -0.111300
      8 C1         -2.9010   -1.8580    1.3210 ca        1 BHY     -0.111300
      9 O1         -8.9280  -11.1290    3.5590 o         1 BHY     -0.553300
     10 S1         -8.1680  -11.6870    4.5620 s6        1 BHY      1.420900
     11 O2         -6.8730  -12.1050    4.3590 o         1 BHY     -0.553300
     12 S2          1.9060   -0.3150    0.0270 s6        1 BHY      1.420900
     13 C3         -4.3210   -3.8200    1.3850 ca        1 BHY     -0.106000
     14 O3          2.0400   -1.5110   -0.6410 o         1 BHY     -0.553300
     15 C5         -3.4230   -2.9150    3.4380 ca        1 BHY     -0.106000
     16 C8         -4.9600   -6.5050    5.3710 ca        1 BHY     -0.113500
     17 C9         -4.2820   -5.5380    4.6300 ca        1 BHY     -0.106000
     18 C10        -4.9060   -4.9080    3.5450 cp        1 BHY     -0.025000
     19 C11        -6.2200   -5.2700    3.2110 ca        1 BHY     -0.106000
     20 C12        -6.8970   -6.2320    3.9550 ca        1 BHY     -0.113500
     21 C13        -7.0040   -7.8630    5.8740 c3        1 BHY     -0.024400
     22 C14        -2.2460   -0.7650    0.5350 c3        1 BHY     -0.024400
     23 C15        -0.7240   -0.9630    0.6130 c3        1 BHY      0.090800
     24 C16        -2.6550    0.6030    1.0410 c3        1 BHY     -0.116100
     25 C17        -8.3060   -7.3020    6.4110 c3        1 BHY     -0.116100
     26 C18        -7.2430   -9.1140    5.0140 c3        1 BHY      0.090800
     27 C19        -9.0210  -12.6450    5.5820 c3        1 BHY     -0.477300
     28 C20         2.4620    0.9780   -0.8140 c3        1 BHY     -0.477300
     29 HN1        -0.2320   -0.0300   -1.1420 hn        1 BHY      0.451800
     30 H2         -3.7800   -2.7920   -0.4340 ha        1 BHY      0.139000
     31 HN2        -8.8070   -9.8720    6.0940 hn        1 BHY      0.451800
     32 H6         -2.1860   -1.1580    3.2500 ha        1 BHY      0.139000
     33 H3         -4.9260   -4.5710    0.8530 ha        1 BHY      0.150500
     34 H5         -3.3290   -2.9420    4.5350 ha        1 BHY      0.150500
     35 H8         -4.4540   -6.9830    6.2240 ha        1 BHY      0.139000
     36 H9         -3.2490   -5.2710    4.9010 ha        1 BHY      0.150500
     37 H11        -6.7250   -4.7790    2.3640 ha        1 BHY      0.150500
     38 H12        -7.9350   -6.4870    3.6900 ha        1 BHY      0.139000
     39 H13        -6.3510   -8.1490    6.7500 hc        1 BHY      0.072700
     40 H14        -2.5640   -0.8570   -0.5450 hc        1 BHY      0.072700
     41 H15        -0.3960   -0.8850    1.6930 hx        1 BHY      0.117200
     42 H15A       -0.4650   -1.9900    0.2190 hx        1 BHY      0.117200
     43 H16        -2.1920    0.8230    2.0340 hc        1 BHY      0.057367
     44 H16A       -3.7660    0.6430    1.1610 hc        1 BHY      0.057367
     45 H16B       -2.3640    1.4030    0.3170 hc        1 BHY      0.057367
     46 H17        -8.7260   -7.9550    7.2130 hc        1 BHY      0.057367
     47 H17A       -8.1240   -6.2910    6.8570 hc        1 BHY      0.057367
     48 H17B       -9.0630   -7.1880    5.5980 hc        1 BHY      0.057367
     49 H18        -6.2490   -9.5020    4.6440 hx        1 BHY      0.117200
     50 H18A       -7.8870   -8.8350    4.1270 hx        1 BHY      0.117200
     51 H19        -8.4920  -12.9640    6.5240 h1        1 BHY      0.179700
     52 H19A       -9.2940  -13.6370    5.1010 h1        1 BHY      0.179700
     53 H19B      -10.0200  -12.2490    5.9180 h1        1 BHY      0.179700
     54 H20         2.2130    1.9910   -0.3890 h1        1 BHY      0.179700
     55 H20A        3.5960    0.9970   -0.8570 h1        1 BHY      0.179700
     56 H20B        2.1710    1.0280   -1.9010 h1        1 BHY      0.179700
     57 H121       -0.1930    0.9610    0.1630 hn        1 BHY      0.451800
     58 H22        -7.3510  -10.4810    6.5350 hn        1 BHY      0.451800
@<TRIPOS>BOND
     1    1   12 1   
     2    1   23 1   
     3    1   29 1   
     4    1   57 1   
     5    2    8 ar  
     6    2   13 ar  
     7    2   30 1   
     8    3   10 1   
     9    3   26 1   
    10    3   31 1   
    11    3   58 1   
    12    4   13 ar  
    13    4   15 ar  
    14    4   18 1   
    15    5   12 2   
    16    6    8 ar  
    17    6   15 ar  
    18    6   32 1   
    19    7   16 ar  
    20    7   20 ar  
    21    7   21 1   
    22    8   22 1   
    23    9   10 2   
    24   10   11 2   
    25   10   27 1   
    26   12   14 2   
    27   12   28 1   
    28   13   33 1   
    29   15   34 1   
    30   16   17 ar  
    31   16   35 1   
    32   17   18 ar  
    33   17   36 1   
    34   18   19 ar  
    35   19   20 ar  
    36   19   37 1   
    37   20   38 1   
    38   21   25 1   
    39   21   26 1   
    40   21   39 1   
    41   22   23 1   
    42   22   24 1   
    43   22   40 1   
    44   23   41 1   
    45   23   42 1   
    46   24   43 1   
    47   24   44 1   
    48   24   45 1   
    49   25   46 1   
    50   25   47 1   
    51   25   48 1   
    52   26   49 1   
    53   26   50 1   
    54   27   51 1   
    55   27   52 1   
    56   27   53 1   
    57   28   54 1   
    58   28   55 1   
    59   28   56 1   
@<TRIPOS>SUBSTRUCTURE
     1 BHY         1 TEMP              0 ****  ****    0 ROOT
