@<TRIPOS>MOLECULE
BHY
   58    59     1     0     0
SMALL
bcc


@<TRIPOS>ATOM
      1 N1          0.0340    0.0230   -0.2100 n4        1 BHY     -0.711900
      2 C2         -3.6890   -2.8290    0.6510 ca        1 BHY     -0.113500
      3 N2         -7.9000  -10.2170    5.7730 n4        1 BHY     -0.711900
      4 C4         -4.2090   -3.8760    2.7780 cp        1 BHY     -0.025000
      5 O4          2.0620   -0.2030    1.3340 o         1 BHY     -0.553300
      6 C6         -2.7850   -1.9140    2.6960 ca        1 BHY     -0.113500
      7 C7         -6.2590   -6.8490    5.0630 ca        1 BHY     -0.111300
      8 C1         -2.9150   -1.8620    1.3030 ca        1 BHY     -0.111300
      9 O1         -8.9240  -11.1280    3.6130 o         1 BHY     -0.553300
     10 S1         -8.1550  -11.6830    4.6100 s6        1 BHY      1.421900
     11 O2         -6.8610  -12.1010    4.3970 o         1 BHY     -0.553300
     12 S2          1.8820   -0.3180   -0.0260 s6        1 BHY      1.421900
     13 C3         -4.3330   -3.8250    1.3820 ca        1 BHY     -0.106000
     14 O3          2.0140   -1.5170   -0.6880 o         1 BHY     -0.553300
     15 C5         -3.4220   -2.9120    3.4270 ca        1 BHY     -0.106000
     16 C8         -4.9420   -6.4970    5.3810 ca        1 BHY     -0.113500
     17 C9         -4.2710   -5.5320    4.6330 ca        1 BHY     -0.106000
     18 C10        -4.9030   -4.9060    3.5500 cp        1 BHY     -0.025000
     19 C11        -6.2180   -5.2700    3.2260 ca        1 BHY     -0.106000
     20 C12        -6.8900   -6.2300    3.9780 ca        1 BHY     -0.113500
     21 C13        -6.9830   -7.8550    5.9030 c3        1 BHY     -0.024400
     22 C14        -2.2660   -0.7710    0.5090 c3        1 BHY     -0.024400
     23 C15        -0.7430   -0.9670    0.5790 c3        1 BHY      0.090800
     24 C16        -2.6730    0.5990    1.0120 c3        1 BHY     -0.116100
     25 C17        -8.2800   -7.2920    6.4480 c3        1 BHY     -0.116100
     26 C18        -7.2280   -9.1080    5.0480 c3        1 BHY      0.090800
     27 C19        -8.9990  -12.6390    5.6410 c3        1 BHY     -0.477300
     28 C20         2.4320    0.9720   -0.8760 c3        1 BHY     -0.477300
     29 HN1        -0.2170    0.9560    0.1180 hn        1 BHY      0.451800
     30 H2         -3.8050   -2.8030   -0.4440 ha        1 BHY      0.139000
     31 HN2        -7.3230  -10.4710    6.5740 hn        1 BHY      0.451800
     32 H6         -2.1890   -1.1540    3.2250 ha        1 BHY      0.139000
     33 H3         -4.9410   -4.5790    0.8570 ha        1 BHY      0.150500
     34 H5         -3.3210   -2.9350    4.5230 ha        1 BHY      0.150500
     35 H8         -4.4300   -6.9720    6.2330 ha        1 BHY      0.139000
     36 H9         -3.2360   -5.2630    4.8960 ha        1 BHY      0.150500
     37 H11        -6.7300   -4.7820    2.3810 ha        1 BHY      0.150500
     38 H12        -7.9290   -6.4870    3.7210 ha        1 BHY      0.139000
     39 H13        -6.3230   -8.1390    6.7750 hc        1 BHY      0.072700
     40 H14        -2.5910   -0.8670   -0.5690 hc        1 BHY      0.072700
     41 H15        -0.4850   -1.9950    0.1870 hx        1 BHY      0.117200
     42 H15A       -0.4090   -0.8840    1.6560 hx        1 BHY      0.117200
     43 H16        -2.2060    0.8220    2.0010 hc        1 BHY      0.057367
     44 H16A       -3.7850    0.6380    1.1390 hc        1 BHY      0.057367
     45 H16B       -2.3880    1.3970    0.2840 hc        1 BHY      0.057367
     46 H17        -8.6950   -7.9430    7.2550 hc        1 BHY      0.057367
     47 H17A       -8.0950   -6.2810    6.8900 hc        1 BHY      0.057367
     48 H17B       -9.0430   -7.1810    5.6400 hc        1 BHY      0.057367
     49 H18        -7.8780   -8.8330    4.1650 hx        1 BHY      0.117200
     50 H18A       -6.2360   -9.4980    4.6720 hx        1 BHY      0.117200
     51 H19        -9.9950  -12.2420    5.9830 h1        1 BHY      0.179700
     52 H19A       -9.2750  -13.6320    5.1640 h1        1 BHY      0.179700
     53 H19B       -8.4620  -12.9560    6.5780 h1        1 BHY      0.179700
     54 H20         3.5660    0.9920   -0.9260 h1        1 BHY      0.179700
     55 H20A        2.1350    1.0150   -1.9610 h1        1 BHY      0.179700
     56 H20B        2.1840    1.9860   -0.4550 h1        1 BHY      0.179700
     57 H121       -0.2630   -0.0400   -1.1830 hn        1 BHY      0.451800
     58 H22        -8.7830   -9.8640    6.1420 hn        1 BHY      0.451800
@<TRIPOS>BOND
     1    1   12 1   
     2    1   23 1   
     3    1   29 1   
     4    1   57 1   
     5    2    8 ar  
     6    2   13 ar  
     7    2   30 1   
     8    3   10 1   
     9    3   26 1   
    10    3   31 1   
    11    3   58 1   
    12    4   13 ar  
    13    4   15 ar  
    14    4   18 1   
    15    5   12 2   
    16    6    8 ar  
    17    6   15 ar  
    18    6   32 1   
    19    7   16 ar  
    20    7   20 ar  
    21    7   21 1   
    22    8   22 1   
    23    9   10 2   
    24   10   11 2   
    25   10   27 1   
    26   12   14 2   
    27   12   28 1   
    28   13   33 1   
    29   15   34 1   
    30   16   17 ar  
    31   16   35 1   
    32   17   18 ar  
    33   17   36 1   
    34   18   19 ar  
    35   19   20 ar  
    36   19   37 1   
    37   20   38 1   
    38   21   25 1   
    39   21   26 1   
    40   21   39 1   
    41   22   23 1   
    42   22   24 1   
    43   22   40 1   
    44   23   41 1   
    45   23   42 1   
    46   24   43 1   
    47   24   44 1   
    48   24   45 1   
    49   25   46 1   
    50   25   47 1   
    51   25   48 1   
    52   26   49 1   
    53   26   50 1   
    54   27   51 1   
    55   27   52 1   
    56   27   53 1   
    57   28   54 1   
    58   28   55 1   
    59   28   56 1   
@<TRIPOS>SUBSTRUCTURE
     1 BHY         1 TEMP              0 ****  ****    0 ROOT
