@<TRIPOS>MOLECULE
BHY
   58    59     1     0     0
SMALL
bcc


@<TRIPOS>ATOM
      1 N1          0.0720    0.0310   -0.1460 n4        1 BHY     -0.711900
      2 C2         -3.6630   -2.8200    0.6660 ca        1 BHY     -0.113500
      3 N2         -7.9350  -10.2240    5.7120 n4        1 BHY     -0.711900
      4 C4         -4.2060   -3.8750    2.7820 cp        1 BHY     -0.025000
      5 O4          2.0830   -0.2050    1.4170 o         1 BHY     -0.553300
      6 C6         -2.7780   -1.9150    2.7230 ca        1 BHY     -0.113500
      7 C7         -6.2830   -6.8560    5.0340 ca        1 BHY     -0.111300
      8 C1         -2.8940   -1.8560    1.3290 ca        1 BHY     -0.111300
      9 O1         -8.9390  -11.1240    3.5380 o         1 BHY     -0.553300
     10 S1         -8.1810  -11.6850    4.5410 s6        1 BHY      1.420900
     11 O2         -6.8860  -12.1040    4.3400 o         1 BHY     -0.553300
     12 S2          1.9180   -0.3120    0.0550 s6        1 BHY      1.420900
     13 C3         -4.3150   -3.8180    1.3860 ca        1 BHY     -0.106000
     14 O3          2.0550   -1.5080   -0.6130 o         1 BHY     -0.553300
     15 C5         -3.4250   -2.9160    3.4430 ca        1 BHY     -0.106000
     16 C8         -4.9690   -6.5070    5.3670 ca        1 BHY     -0.113500
     17 C9         -4.2890   -5.5400    4.6300 ca        1 BHY     -0.106000
     18 C10        -4.9090   -4.9080    3.5430 cp        1 BHY     -0.025000
     19 C11        -6.2210   -5.2680    3.2040 ca        1 BHY     -0.106000
     20 C12        -6.9020   -6.2310    3.9450 ca        1 BHY     -0.113500
     21 C13        -7.0160   -7.8640    5.8620 c3        1 BHY     -0.024400
     22 C14        -2.2360   -0.7630    0.5460 c3        1 BHY     -0.024400
     23 C15        -0.7140   -0.9610    0.6310 c3        1 BHY      0.090800
     24 C16        -2.6470    0.6050    1.0510 c3        1 BHY     -0.116100
     25 C17        -8.3180   -7.3020    6.3960 c3        1 BHY     -0.116100
     26 C18        -7.2550   -9.1130    4.9990 c3        1 BHY      0.090800
     27 C19        -9.0370  -12.6440    5.5580 c3        1 BHY     -0.477300
     28 C20         2.4770    0.9820   -0.7820 c3        1 BHY     -0.477300
     29 HN1        -0.1810    0.9630    0.1840 hn        1 BHY      0.451800
     30 H2         -3.7680   -2.7890   -0.4300 ha        1 BHY      0.139000
     31 HN2        -8.8220   -9.8710    6.0740 hn        1 BHY      0.451800
     32 H6         -2.1860   -1.1580    3.2610 ha        1 BHY      0.139000
     33 H3         -4.9190   -4.5690    0.8510 ha        1 BHY      0.150500
     34 H5         -3.3340   -2.9430    4.5410 ha        1 BHY      0.150500
     35 H8         -4.4660   -6.9860    6.2210 ha        1 BHY      0.139000
     36 H9         -3.2560   -5.2730    4.9040 ha        1 BHY      0.150500
     37 H11        -6.7240   -4.7760    2.3560 ha        1 BHY      0.150500
     38 H12        -7.9390   -6.4850    3.6760 ha        1 BHY      0.139000
     39 H13        -6.3660   -8.1520    6.7390 hc        1 BHY      0.072700
     40 H14        -2.5500   -0.8540   -0.5350 hc        1 BHY      0.072700
     41 H15        -0.4530   -1.9880    0.2370 hx        1 BHY      0.117200
     42 H15A       -0.3910   -0.8830    1.7120 hx        1 BHY      0.117200
     43 H16        -2.3540    1.4060    0.3300 hc        1 BHY      0.057367
     44 H16A       -2.1890    0.8240    2.0460 hc        1 BHY      0.057367
     45 H16B       -3.7590    0.6450    1.1670 hc        1 BHY      0.057367
     46 H17        -9.0730   -7.1860    5.5810 hc        1 BHY      0.057367
     47 H17A       -8.7420   -7.9550    7.1960 hc        1 BHY      0.057367
     48 H17B       -8.1370   -6.2920    6.8440 hc        1 BHY      0.057367
     49 H18        -6.2590   -9.5020    4.6310 hx        1 BHY      0.117200
     50 H18A       -7.8960   -8.8330    4.1110 hx        1 BHY      0.117200
     51 H19       -10.0360  -12.2470    5.8920 h1        1 BHY      0.179700
     52 H19A       -8.5110  -12.9650    6.5000 h1        1 BHY      0.179700
     53 H19B       -9.3100  -13.6340    5.0740 h1        1 BHY      0.179700
     54 H20         2.1910    1.0320   -1.8700 h1        1 BHY      0.179700
     55 H20A        2.2260    1.9940   -0.3580 h1        1 BHY      0.179700
     56 H20B        3.6120    1.0010   -0.8210 h1        1 BHY      0.179700
     57 H121       -0.2150   -0.0270   -1.1230 hn        1 BHY      0.451800
     58 H22        -7.3670  -10.4830    6.5180 hn        1 BHY      0.451800
@<TRIPOS>BOND
     1    1   12 1   
     2    1   23 1   
     3    1   29 1   
     4    1   57 1   
     5    2    8 ar  
     6    2   13 ar  
     7    2   30 1   
     8    3   10 1   
     9    3   26 1   
    10    3   31 1   
    11    3   58 1   
    12    4   13 ar  
    13    4   15 ar  
    14    4   18 1   
    15    5   12 2   
    16    6    8 ar  
    17    6   15 ar  
    18    6   32 1   
    19    7   16 ar  
    20    7   20 ar  
    21    7   21 1   
    22    8   22 1   
    23    9   10 2   
    24   10   11 2   
    25   10   27 1   
    26   12   14 2   
    27   12   28 1   
    28   13   33 1   
    29   15   34 1   
    30   16   17 ar  
    31   16   35 1   
    32   17   18 ar  
    33   17   36 1   
    34   18   19 ar  
    35   19   20 ar  
    36   19   37 1   
    37   20   38 1   
    38   21   25 1   
    39   21   26 1   
    40   21   39 1   
    41   22   23 1   
    42   22   24 1   
    43   22   40 1   
    44   23   41 1   
    45   23   42 1   
    46   24   43 1   
    47   24   44 1   
    48   24   45 1   
    49   25   46 1   
    50   25   47 1   
    51   25   48 1   
    52   26   49 1   
    53   26   50 1   
    54   27   51 1   
    55   27   52 1   
    56   27   53 1   
    57   28   54 1   
    58   28   55 1   
    59   28   56 1   
@<TRIPOS>SUBSTRUCTURE
     1 BHY         1 TEMP              0 ****  ****    0 ROOT
