@<TRIPOS>MOLECULE
BHY
   56    57     1     0     0
SMALL
bcc


@<TRIPOS>ATOM
      1 N1         -7.0060    0.4990   -0.6550 n3        1 BHY     -0.927100
      2 C2         -2.4890   -0.3250   -1.7680 ca        1 BHY     -0.124500
      3 N2          7.0070    0.4980    0.6570 n3        1 BHY     -0.927100
      4 C4         -0.7100   -0.7390   -0.1730 cp        1 BHY     -0.037000
      5 O4         -9.4130    0.2050   -0.2190 o         1 BHY     -0.655300
      6 C6         -3.0220   -1.1540    0.4340 ca        1 BHY     -0.124500
      7 C7          3.4460   -0.7420    0.8320 ca        1 BHY     -0.080300
      8 C1         -3.4460   -0.7390   -0.8340 ca        1 BHY     -0.080300
      9 O1          9.4140    0.2070    0.2200 o         1 BHY     -0.655300
     10 S1          8.2080    0.5690   -0.4170 s6        1 BHY      1.468900
     11 O2          7.8690   -0.1200   -1.6000 o         1 BHY     -0.655300
     12 S2         -8.2070    0.5650    0.4190 s6        1 BHY      1.468900
     13 C3         -1.1360   -0.3270   -1.4430 ca        1 BHY     -0.117000
     14 O3         -7.8690   -0.1290    1.6000 o         1 BHY     -0.655300
     15 C5         -1.6690   -1.1530    0.7630 ca        1 BHY     -0.117000
     16 C8          2.4900   -0.3320    1.7680 ca        1 BHY     -0.124500
     17 C9          1.1360   -0.3320    1.4420 ca        1 BHY     -0.117000
     18 C10         0.7100   -0.7400    0.1710 cp        1 BHY     -0.037000
     19 C11         1.6700   -1.1500   -0.7670 ca        1 BHY     -0.117000
     20 C12         3.0220   -1.1520   -0.4380 ca        1 BHY     -0.124500
     21 C13         4.8980   -0.7430    1.1950 c3        1 BHY     -0.031400
     22 C14        -4.8970   -0.7400   -1.1980 c3        1 BHY     -0.031400
     23 C15        -5.6270    0.2960   -0.3190 c3        1 BHY      0.224800
     24 C16        -5.5000   -2.1210   -1.0470 c3        1 BHY     -0.092100
     25 C17         5.5010   -2.1240    1.0400 c3        1 BHY     -0.092100
     26 C18         5.6280    0.2970    0.3210 c3        1 BHY      0.224800
     27 C19         8.3000    2.2280   -0.7940 c3        1 BHY     -0.362300
     28 C20        -8.3000    2.2220    0.8030 c3        1 BHY     -0.362300
     29 HN1        -7.1810    0.5400   -1.6310 hn        1 BHY      0.450800
     30 H2         -2.8060    0.0030   -2.7700 ha        1 BHY      0.136500
     31 HN2         7.1810    0.5360    1.6330 hn        1 BHY      0.450800
     32 H6         -3.7630   -1.4890    1.1760 ha        1 BHY      0.136500
     33 H3         -0.3950    0.0050   -2.1860 ha        1 BHY      0.137000
     34 H5         -1.3490   -1.4890    1.7610 ha        1 BHY      0.137000
     35 H8          2.8060   -0.0070    2.7710 ha        1 BHY      0.136500
     36 H9          0.3950   -0.0030    2.1870 ha        1 BHY      0.137000
     37 H11         1.3500   -1.4820   -1.7660 ha        1 BHY      0.137000
     38 H12         3.7640   -1.4830   -1.1810 ha        1 BHY      0.136500
     39 H13         5.0000   -0.4340    2.2760 hc        1 BHY      0.053700
     40 H14        -5.0000   -0.4270   -2.2770 hc        1 BHY      0.053700
     41 H15        -5.0750    1.2770   -0.4150 h1        1 BHY      0.055200
     42 H15A       -5.5620   -0.0400    0.7580 h1        1 BHY      0.055200
     43 H16        -5.5290   -2.4280    0.0260 hc        1 BHY      0.044033
     44 H16A       -6.5420   -2.1380   -1.4490 hc        1 BHY      0.044033
     45 H16B       -4.8930   -2.8690   -1.6120 hc        1 BHY      0.044033
     46 H17         6.5430   -2.1420    1.4420 hc        1 BHY      0.044033
     47 H17A        4.8940   -2.8740    1.6020 hc        1 BHY      0.044033
     48 H17B        5.5300   -2.4260   -0.0350 hc        1 BHY      0.044033
     49 H18         5.0750    1.2770    0.4200 h1        1 BHY      0.055200
     50 H18A        5.5620   -0.0350   -0.7570 h1        1 BHY      0.055200
     51 H19         8.5850    2.8650    0.0770 h1        1 BHY      0.112700
     52 H19A        9.0810    2.4010   -1.5770 h1        1 BHY      0.112700
     53 H19B        7.3500    2.6470   -1.2050 h1        1 BHY      0.112700
     54 H20        -8.5860    2.8630   -0.0650 h1        1 BHY      0.112700
     55 H20A       -9.0810    2.3930    1.5870 h1        1 BHY      0.112700
     56 H20B       -7.3500    2.6410    1.2160 h1        1 BHY      0.112700
@<TRIPOS>BOND
     1    1   12 1   
     2    1   23 1   
     3    1   29 1   
     4    2    8 ar  
     5    2   13 ar  
     6    2   30 1   
     7    3   10 1   
     8    3   26 1   
     9    3   31 1   
    10    4   13 ar  
    11    4   15 ar  
    12    4   18 1   
    13    5   12 2   
    14    6    8 ar  
    15    6   15 ar  
    16    6   32 1   
    17    7   16 ar  
    18    7   20 ar  
    19    7   21 1   
    20    8   22 1   
    21    9   10 2   
    22   10   11 2   
    23   10   27 1   
    24   12   14 2   
    25   12   28 1   
    26   13   33 1   
    27   15   34 1   
    28   16   17 ar  
    29   16   35 1   
    30   17   18 ar  
    31   17   36 1   
    32   18   19 ar  
    33   19   20 ar  
    34   19   37 1   
    35   20   38 1   
    36   21   25 1   
    37   21   26 1   
    38   21   39 1   
    39   22   23 1   
    40   22   24 1   
    41   22   40 1   
    42   23   41 1   
    43   23   42 1   
    44   24   43 1   
    45   24   44 1   
    46   24   45 1   
    47   25   46 1   
    48   25   47 1   
    49   25   48 1   
    50   26   49 1   
    51   26   50 1   
    52   27   51 1   
    53   27   52 1   
    54   27   53 1   
    55   28   54 1   
    56   28   55 1   
    57   28   56 1   
@<TRIPOS>SUBSTRUCTURE
     1 BHY         1 TEMP              0 ****  ****    0 ROOT
