@<TRIPOS>MOLECULE
BHY
   56    48     1     0     0
SMALL
bcc


@<TRIPOS>ATOM
      1 N1          4.9270    3.6550   -3.2000 n3        1 BHY     -0.899000
      2 C2          0.7900    2.0700   -2.3470 c1        1 BHY     -0.125000
      3 N2         -4.0940   -4.2890    3.5650 n3        1 BHY     -0.899000
      4 C4         -0.1740    0.9420   -0.4620 c1        1 BHY     -0.037000
      5 O4          6.6630    5.0940   -2.0530 o         1 BHY     -0.543400
      6 C6          1.7450    2.3320   -0.1650 c1        1 BHY     -0.120000
      7 C7         -2.9070   -1.8270    1.0030 c1        1 BHY     -0.073000
      8 C1          1.7450    2.6210   -1.5320 c1        1 BHY     -0.073000
      9 O1         -3.8120   -6.8190    3.2830 o         1 BHY     -0.543400
     10 S1         -3.8020   -5.7420    4.2690 s4        1 BHY      2.040800
     11 O2         -2.4780   -5.8230    4.7530 o         1 BHY     -0.543400
     12 S2          6.5080    3.9840   -2.9330 s4        1 BHY      2.040800
     13 C3         -0.1750    1.2270   -1.8150 c1        1 BHY     -0.118000
     14 O3          7.1430    2.9320   -2.1690 o         1 BHY     -0.543400
     15 C5          0.7860    1.4950    0.3610 c1        1 BHY     -0.120000
     16 C8         -3.2040   -0.4730    1.0320 c1        1 BHY     -0.125000
     17 C9         -2.2940    0.4500    0.5210 c1        1 BHY     -0.118000
     18 C10        -1.1040    0.0190   -0.0120 c1        1 BHY     -0.037000
     19 C11        -0.8050   -1.3430   -0.0410 c1        1 BHY     -0.120000
     20 C12        -1.7070   -2.2610    0.4660 c1        1 BHY     -0.120000
     21 C13        -3.9340   -2.7840    1.6830 c3        1 BHY     -0.078000
     22 C14         2.6980    3.5710   -2.3020 c3        1 BHY     -0.078000
     23 C15         4.1100    3.1000   -2.1380 c3        1 BHY     -0.012000
     24 C16         2.5660    4.9770   -1.7490 c3        1 BHY     -0.210000
     25 C17        -4.6880   -3.5200    0.6390 c3        1 BHY     -0.210000
     26 C18        -3.1970   -3.7790    2.5700 c3        1 BHY     -0.012000
     27 C19        -4.9590   -6.0360    5.5430 c2        1 BHY     -0.942000
     28 C20         7.3700    4.2680   -4.5110 c2        1 BHY     -0.942000
     29 HN1         4.5570    3.7990   -4.0510 hn        1 BHY      0.245000
     30 H2          0.7890    2.2670   -3.2870 ha        1 BHY      0.132000
     31 HN2        -4.7750   -3.7820    3.8560 hn        1 BHY      0.245000
     32 H6          2.4480    2.7380    0.4380 ha        1 BHY      0.139000
     33 H3         -0.8650    0.8280   -2.4040 ha        1 BHY      0.136000
     34 H5          0.7850    1.2870    1.3460 ha        1 BHY      0.139000
     35 H8         -4.0500   -0.1680    1.4100 ha        1 BHY      0.132000
     36 H9         -2.5000    1.3940    0.5420 ha        1 BHY      0.136000
     37 H11         0.0340   -1.6450   -0.4150 ha        1 BHY      0.139000
     38 H12        -1.4920   -3.2410    0.4450 ha        1 BHY      0.139000
     39 H13        -4.5570   -2.2610    2.2290 hc        1 BHY      0.093000
     40 H14         2.4570    3.5710   -3.2750 hc        1 BHY      0.093000
     41 H15         4.1330    2.1440   -2.1840 h1        1 BHY      0.094500
     42 H15A        4.4640    3.4000   -1.2470 h1        1 BHY      0.094500
     43 H16         3.1430    5.0660   -0.9250 hc        1 BHY      0.083000
     44 H16A        1.5940    5.1580   -1.5040 hc        1 BHY      0.083000
     45 H16B        2.8660    5.6440   -2.4430 hc        1 BHY      0.083000
     46 H17        -4.8860   -2.9300   -0.0880 hc        1 BHY      0.083000
     47 H17A       -5.5070   -3.8550    1.0100 hc        1 BHY      0.083000
     48 H17B       -4.1330   -4.2880    0.3060 hc        1 BHY      0.083000
     49 H18        -2.8570   -4.5310    2.0130 h1        1 BHY      0.094500
     50 H18A       -2.4230   -3.3180    3.0210 h1        1 BHY      0.094500
     51 H19        -5.8350   -5.8600    5.2200 ha        1 BHY      0.152333
     52 H19A       -4.9000   -6.9530    5.8280 ha        1 BHY      0.152333
     53 H19B       -4.7670   -5.4490    6.2950 ha        1 BHY      0.152333
     54 H20         6.8590    4.9150   -5.0520 ha        1 BHY      0.152333
     55 H20A        8.2520    4.6210   -4.3360 ha        1 BHY      0.152333
     56 H20B        7.4490    3.4110   -5.0080 ha        1 BHY      0.152333
@<TRIPOS>BOND
     1    1   12 1   
     2    1   23 1   
     3    1   29 1   
     4    2    8 1   
     5    2   30 1   
     6    3   10 1   
     7    3   26 1   
     8    3   31 1   
     9    4   13 1   
    10    5   12 1   
    11    6   15 1   
    12    6   32 1   
    13    7   16 1   
    14    7   21 1   
    15    8   22 1   
    16    9   10 1   
    17   10   11 1   
    18   12   14 1   
    19   13   33 1   
    20   15   34 1   
    21   16   35 1   
    22   17   18 1   
    23   17   36 1   
    24   19   20 1   
    25   19   37 1   
    26   20   38 1   
    27   21   25 1   
    28   21   26 1   
    29   21   39 1   
    30   22   23 1   
    31   22   24 1   
    32   22   40 1   
    33   23   41 1   
    34   23   42 1   
    35   24   43 1   
    36   24   44 1   
    37   24   45 1   
    38   25   46 1   
    39   25   47 1   
    40   25   48 1   
    41   26   49 1   
    42   26   50 1   
    43   27   51 1   
    44   27   52 1   
    45   27   53 1   
    46   28   54 1   
    47   28   55 1   
    48   28   56 1   
@<TRIPOS>SUBSTRUCTURE
     1 BHY         1 TEMP              0 ****  ****    0 ROOT
