@<TRIPOS>MOLECULE
BHZ
   49    50     1     0     0
SMALL
bcc


@<TRIPOS>ATOM
      1 C1          3.3590   -0.6160    0.7740 ca        1 BHZ     -0.139300
      2 C2          2.8620   -1.8310    1.2520 ca        1 BHZ     -0.077000
      3 C3          3.6530   -2.9780    1.2760 ca        1 BHZ     -0.202000
      4 C4          4.9650   -2.9240    0.8060 ca        1 BHZ     -0.119000
      5 C5          5.4800   -1.7360    0.3030 ca        1 BHZ     -0.202000
      6 C6          4.6760   -0.5760    0.2720 ca        1 BHZ      0.170100
      7 O6          5.2810    0.5310   -0.2440 oh        1 BHZ     -0.545100
      8 C7          2.4760    0.6020    0.8390 c3        1 BHZ      0.205100
      9 N8          1.5220    0.6560   -0.2620 n3        1 BHZ     -0.741600
     10 C9          0.2290    1.2080    0.1300 c3        1 BHZ      0.178800
     11 C10        -0.9030    0.7680   -0.8300 c3        1 BHZ      0.172800
     12 N11        -2.2040    0.6240   -0.1860 n3        1 BHZ     -0.723600
     13 C12        -3.1540   -0.0460   -1.0660 c3        1 BHZ      0.199100
     14 C13        -3.3520   -1.4920   -0.6980 ca        1 BHZ     -0.045300
     15 C14        -4.2210   -1.8060    0.3580 ca        1 BHZ     -0.116500
     16 C15        -4.4540   -3.1390    0.6900 ca        1 BHZ     -0.154000
     17 C16        -3.8250   -4.1630   -0.0200 ca        1 BHZ     -0.161000
     18 C17        -2.9530   -3.8510   -1.0610 ca        1 BHZ     -0.154000
     19 C18        -2.7130   -2.5180   -1.3970 ca        1 BHZ     -0.116500
     20 C19         2.0710    1.2220   -1.4800 c3        1 BHZ      0.049800
     21 C20         2.6550    2.6530   -1.4410 c         1 BHZ      0.883600
     22 O20         3.7020    2.8640   -0.7460 o         1 BHZ     -0.848300
     23 C21        -2.7100    1.8540    0.3990 c3        1 BHZ      0.056800
     24 O21         2.1080    3.5460   -2.1410 o         1 BHZ     -0.848300
     25 C22        -3.9880    1.7140    1.2680 c         1 BHZ      0.914600
     26 O22        -5.0500    1.2430    0.7590 o         1 BHZ     -0.856300
     27 O23        -3.9280    2.1460    2.4530 o         1 BHZ     -0.856300
     28 H2          1.8210   -1.8740    1.6110 ha        1 BHZ      0.139000
     29 H3          3.2410   -3.9210    1.6570 ha        1 BHZ      0.110000
     30 H4          5.5940   -3.8250    0.8250 ha        1 BHZ      0.100000
     31 H5          6.5060   -1.6790   -0.0820 ha        1 BHZ      0.124000
     32 HO6         4.6190    1.2530   -0.3780 ho        1 BHZ      0.499000
     33 H7          1.9150    0.5480    1.8180 h1        1 BHZ      0.055700
     34 H7A         3.1180    1.5330    0.8830 h1        1 BHZ      0.055700
     35 H9         -0.0140    0.8440    1.1680 h1        1 BHZ      0.042200
     36 H9A         0.2530    2.3350    0.1540 h1        1 BHZ      0.042200
     37 H10        -0.9420    1.5120   -1.6800 h1        1 BHZ      0.024700
     38 H10A       -0.6460   -0.2380   -1.2700 h1        1 BHZ      0.024700
     39 H12        -4.1650    0.4610   -0.9930 h1        1 BHZ      0.053200
     40 H12A       -2.8260    0.0020   -2.1470 h1        1 BHZ      0.053200
     41 H14        -4.7020   -0.9700    0.9070 ha        1 BHZ      0.162000
     42 H15        -5.1320   -3.3830    1.5200 ha        1 BHZ      0.107000
     43 H16        -4.0100   -5.2120    0.2470 ha        1 BHZ      0.098000
     44 H17        -2.4450   -4.6540   -1.6130 ha        1 BHZ      0.107000
     45 H18        -2.0100   -2.2720   -2.2060 ha        1 BHZ      0.162000
     46 H19         2.9050    0.5360   -1.8060 h1        1 BHZ      0.035200
     47 H19A        1.2610    1.1960   -2.2600 h1        1 BHZ      0.035200
     48 H21        -1.9000    2.2670    1.0610 h1        1 BHZ      0.021200
     49 H21A       -2.9370    2.6260   -0.3940 h1        1 BHZ      0.021200
@<TRIPOS>BOND
     1    1    2 ar  
     2    1    6 ar  
     3    1    8 1   
     4    2    3 ar  
     5    2   28 1   
     6    3    4 ar  
     7    3   29 1   
     8    4    5 ar  
     9    4   30 1   
    10    5    6 ar  
    11    5   31 1   
    12    6    7 1   
    13    7   32 1   
    14    8    9 1   
    15    8   33 1   
    16    8   34 1   
    17    9   10 1   
    18    9   20 1   
    19   10   11 1   
    20   10   35 1   
    21   10   36 1   
    22   11   12 1   
    23   11   37 1   
    24   11   38 1   
    25   12   13 1   
    26   12   23 1   
    27   13   14 1   
    28   13   39 1   
    29   13   40 1   
    30   14   15 ar  
    31   14   19 ar  
    32   15   16 ar  
    33   15   41 1   
    34   16   17 ar  
    35   16   42 1   
    36   17   18 ar  
    37   17   43 1   
    38   18   19 ar  
    39   18   44 1   
    40   19   45 1   
    41   20   21 1   
    42   20   46 1   
    43   20   47 1   
    44   21   22 1   
    45   21   24 1   
    46   23   25 1   
    47   23   48 1   
    48   23   49 1   
    49   25   26 1   
    50   25   27 1   
@<TRIPOS>SUBSTRUCTURE
     1 BHZ         1 TEMP              0 ****  ****    0 ROOT
