@<TRIPOS>MOLECULE
BHZ
   51    52     1     0     0
SMALL
bcc


@<TRIPOS>ATOM
      1 C1         -0.6930   -0.1350   -0.3260 ca        1 BHZ     -0.186300
      2 C2          0.0450   -0.9560   -1.1880 ca        1 BHZ     -0.075000
      3 C3          1.1620   -1.6450   -0.7210 ca        1 BHZ     -0.162000
      4 C4          1.5550   -1.5250    0.6130 ca        1 BHZ     -0.069000
      5 C5          0.8420   -0.7110    1.4860 ca        1 BHZ     -0.222000
      6 C6         -0.2800   -0.0110    1.0150 ca        1 BHZ      0.156100
      7 O6         -1.0230    0.8150    1.8230 oh        1 BHZ     -0.490100
      8 C7         -1.9220    0.5610   -0.8070 c3        1 BHZ      0.179100
      9 N8         -1.6120    1.5210   -1.9290 nx        1 BHZ     -0.676400
     10 C9         -2.8230    1.6750   -2.7860 c3        1 BHZ      0.091800
     11 C10        -2.7580    2.7660   -3.8600 c3        1 BHZ      0.073800
     12 N11        -1.6840    2.6140   -4.8860 nx        1 BHZ     -0.673400
     13 C12        -1.5990    3.8580   -5.7330 c3        1 BHZ      0.176100
     14 C13        -0.3870    4.6710   -5.4130 ca        1 BHZ     -0.175300
     15 C14         0.6730    4.7160   -6.3260 ca        1 BHZ     -0.103500
     16 C15         1.7880    5.5070   -6.0580 ca        1 BHZ     -0.128500
     17 C16         1.8520    6.2480   -4.8770 ca        1 BHZ     -0.100000
     18 C17         0.7990    6.1970   -3.9640 ca        1 BHZ     -0.128500
     19 C18        -0.3230    5.4100   -4.2260 ca        1 BHZ     -0.103500
     20 C19        -1.1280    2.8250   -1.3940 c3        1 BHZ     -0.062200
     21 C20        -2.2970    3.8160   -1.0460 c         1 BHZ      0.915600
     22 O20        -2.2340    4.9300   -1.6280 o         1 BHZ     -0.787300
     23 C21        -1.8650    1.3730   -5.6940 c3        1 BHZ     -0.059200
     24 O21        -3.1990    3.3890   -0.2900 o         1 BHZ     -0.787300
     25 C22        -1.3260    0.1230   -4.9160 c         1 BHZ      0.908600
     26 O22        -1.9460   -0.9450   -5.0640 o         1 BHZ     -0.784800
     27 O23        -0.3160    0.3280   -4.1740 o         1 BHZ     -0.784800
     28 H2         -0.2500   -1.0520   -2.2520 ha        1 BHZ      0.182000
     29 H3          1.7330   -2.2850   -1.4100 ha        1 BHZ      0.148000
     30 H4          2.4360   -2.0760    0.9780 ha        1 BHZ      0.139000
     31 H5          1.1490   -0.6110    2.5370 ha        1 BHZ      0.140000
     32 HO6        -0.6320    0.8050    2.7100 ho        1 BHZ      0.430000
     33 H7         -2.6470   -0.2090   -1.1990 hx        1 BHZ      0.120700
     34 H7A        -2.4240    1.1590    0.0170 hx        1 BHZ      0.120700
     35 H9         -3.0290    0.6720   -3.2650 hx        1 BHZ      0.132200
     36 H9A        -3.6850    1.9630   -2.1040 hx        1 BHZ      0.132200
     37 H10        -2.6330    3.7860   -3.3700 hx        1 BHZ      0.132700
     38 H10A       -3.7530    2.7490   -4.3930 hx        1 BHZ      0.132700
     39 H12        -2.5270    4.4760   -5.5630 hx        1 BHZ      0.095200
     40 H12A       -1.5840    3.5460   -6.8160 hx        1 BHZ      0.095200
     41 H14         0.6270    4.1330   -7.2580 ha        1 BHZ      0.162500
     42 H15         2.6190    5.5430   -6.7790 ha        1 BHZ      0.148500
     43 H16         2.7340    6.8720   -4.6670 ha        1 BHZ      0.142000
     44 H17         0.8450    6.7790   -3.0290 ha        1 BHZ      0.148500
     45 H18        -1.1470    5.3830   -3.4840 ha        1 BHZ      0.162500
     46 H19        -0.5390    2.6310   -0.4580 hx        1 BHZ      0.082700
     47 H19A       -0.4620    3.2940   -2.1670 hx        1 BHZ      0.082700
     48 H21        -2.9470    1.2360   -5.9470 hx        1 BHZ      0.092200
     49 H21A       -1.2640    1.4550   -6.6390 hx        1 BHZ      0.092200
     50 H81        -0.8530    1.0940   -2.5020 hn        1 BHZ      0.475800
     51 H111       -0.7740    2.4940   -4.3970 hn        1 BHZ      0.468800
@<TRIPOS>BOND
     1    1    2 ar  
     2    1    6 ar  
     3    1    8 1   
     4    2    3 ar  
     5    2   28 1   
     6    3    4 ar  
     7    3   29 1   
     8    4    5 ar  
     9    4   30 1   
    10    5    6 ar  
    11    5   31 1   
    12    6    7 1   
    13    7   32 1   
    14    8    9 1   
    15    8   33 1   
    16    8   34 1   
    17    9   10 1   
    18    9   20 1   
    19    9   50 1   
    20   10   11 1   
    21   10   35 1   
    22   10   36 1   
    23   11   12 1   
    24   11   37 1   
    25   11   38 1   
    26   12   13 1   
    27   12   23 1   
    28   12   51 1   
    29   13   14 1   
    30   13   39 1   
    31   13   40 1   
    32   14   15 ar  
    33   14   19 ar  
    34   15   16 ar  
    35   15   41 1   
    36   16   17 ar  
    37   16   42 1   
    38   17   18 ar  
    39   17   43 1   
    40   18   19 ar  
    41   18   44 1   
    42   19   45 1   
    43   20   21 1   
    44   20   46 1   
    45   20   47 1   
    46   21   22 1   
    47   21   24 1   
    48   23   25 1   
    49   23   48 1   
    50   23   49 1   
    51   25   26 1   
    52   25   27 1   
@<TRIPOS>SUBSTRUCTURE
     1 BHZ         1 TEMP              0 ****  ****    0 ROOT
