@<TRIPOS>MOLECULE
BHZ
   51    52     1     0     0
SMALL
bcc


@<TRIPOS>ATOM
      1 C1         -0.6860   -0.1370   -0.3290 ca        1 BHZ     -0.186300
      2 C2          0.0240   -0.9700   -1.2030 ca        1 BHZ     -0.075000
      3 C3          1.1380   -1.6760   -0.7550 ca        1 BHZ     -0.162000
      4 C4          1.5560   -1.5620    0.5720 ca        1 BHZ     -0.069000
      5 C5          0.8700   -0.7380    1.4580 ca        1 BHZ     -0.222000
      6 C6         -0.2490   -0.0210    1.0050 ca        1 BHZ      0.156100
      7 O6         -0.9660    0.8160    1.8260 oh        1 BHZ     -0.490100
      8 C7         -1.9130    0.5770   -0.7890 c3        1 BHZ      0.179100
      9 N8         -1.6070    1.5330   -1.9150 n4        1 BHZ     -0.676400
     10 C9         -2.8290    1.7060   -2.7520 c3        1 BHZ      0.091800
     11 C10        -2.7660    2.7960   -3.8270 c3        1 BHZ      0.073800
     12 N11        -1.7110    2.6290   -4.8700 n4        1 BHZ     -0.673400
     13 C12        -1.6210    3.8720   -5.7180 c3        1 BHZ      0.176100
     14 C13        -0.3930    4.6670   -5.4180 ca        1 BHZ     -0.175300
     15 C14         0.6520    4.6970   -6.3490 ca        1 BHZ     -0.103500
     16 C15         1.7830    5.4710   -6.0990 ca        1 BHZ     -0.128500
     17 C16         1.8770    6.2100   -4.9190 ca        1 BHZ     -0.100000
     18 C17         0.8400    6.1740   -3.9880 ca        1 BHZ     -0.128500
     19 C18        -0.2980    5.4040   -4.2320 ca        1 BHZ     -0.103500
     20 C19        -1.0950    2.8290   -1.3880 c3        1 BHZ     -0.062200
     21 C20        -2.2430    3.8370   -1.0200 c         1 BHZ      0.915600
     22 O20        -2.1730    4.9500   -1.6030 o         1 BHZ     -0.787300
     23 C21        -1.9240    1.3910   -5.6760 c3        1 BHZ     -0.059200
     24 O21        -3.1390    3.4240   -0.2500 o         1 BHZ     -0.787300
     25 C22        -1.3910    0.1330   -4.9070 c         1 BHZ      0.908600
     26 O22        -2.0290   -0.9250   -5.0450 o         1 BHZ     -0.784800
     27 O23        -0.3660    0.3230   -4.1820 o         1 BHZ     -0.784800
     28 H2         -0.2890   -1.0610   -2.2620 ha        1 BHZ      0.182000
     29 H3          1.6880   -2.3240   -1.4540 ha        1 BHZ      0.149000
     30 H4          2.4340   -2.1260    0.9220 ha        1 BHZ      0.139000
     31 H5          1.1960   -0.6430    2.5030 ha        1 BHZ      0.140000
     32 HO6        -0.5610    0.7990    2.7060 ho        1 BHZ      0.430000
     33 H7         -2.6560   -0.1820   -1.1690 hx        1 BHZ      0.120700
     34 H7A        -2.3920    1.1820    0.0430 hx        1 BHZ      0.120700
     35 H9         -3.0580    0.7060   -3.2280 hx        1 BHZ      0.132200
     36 H9A        -3.6760    2.0060   -2.0560 hx        1 BHZ      0.132200
     37 H10        -2.6180    3.8140   -3.3380 hx        1 BHZ      0.132700
     38 H10A       -3.7700    2.7940   -4.3430 hx        1 BHZ      0.132700
     39 H12        -2.5380    4.5030   -5.5330 hx        1 BHZ      0.095200
     40 H12A       -1.6290    3.5600   -6.8020 hx        1 BHZ      0.095200
     41 H14         0.5820    4.1150   -7.2800 ha        1 BHZ      0.162500
     42 H15         2.6030    5.4960   -6.8330 ha        1 BHZ      0.148500
     43 H16         2.7720    6.8210   -4.7240 ha        1 BHZ      0.142000
     44 H17         0.9090    6.7550   -3.0540 ha        1 BHZ      0.148500
     45 H18        -1.1100    5.3890   -3.4760 ha        1 BHZ      0.162500
     46 H19        -0.4930    2.6260   -0.4620 hx        1 BHZ      0.082700
     47 H19A       -0.4340    3.2890   -2.1720 hx        1 BHZ      0.082700
     48 H21        -3.0120    1.2710   -5.9110 hx        1 BHZ      0.092200
     49 H21A       -1.3370    1.4640   -6.6310 hx        1 BHZ      0.092200
     50 H81        -0.8640    1.0950   -2.5020 hn        1 BHZ      0.475800
     51 H111       -0.7950    2.4950   -4.3960 hn        1 BHZ      0.468800
@<TRIPOS>BOND
     1    1    2 ar  
     2    1    6 ar  
     3    1    8 1   
     4    2    3 ar  
     5    2   28 1   
     6    3    4 ar  
     7    3   29 1   
     8    4    5 ar  
     9    4   30 1   
    10    5    6 ar  
    11    5   31 1   
    12    6    7 1   
    13    7   32 1   
    14    8    9 1   
    15    8   33 1   
    16    8   34 1   
    17    9   10 1   
    18    9   20 1   
    19    9   50 1   
    20   10   11 1   
    21   10   35 1   
    22   10   36 1   
    23   11   12 1   
    24   11   37 1   
    25   11   38 1   
    26   12   13 1   
    27   12   23 1   
    28   12   51 1   
    29   13   14 1   
    30   13   39 1   
    31   13   40 1   
    32   14   15 ar  
    33   14   19 ar  
    34   15   16 ar  
    35   15   41 1   
    36   16   17 ar  
    37   16   42 1   
    38   17   18 ar  
    39   17   43 1   
    40   18   19 ar  
    41   18   44 1   
    42   19   45 1   
    43   20   21 1   
    44   20   46 1   
    45   20   47 1   
    46   21   22 1   
    47   21   24 1   
    48   23   25 1   
    49   23   48 1   
    50   23   49 1   
    51   25   26 1   
    52   25   27 1   
@<TRIPOS>SUBSTRUCTURE
     1 BHZ         1 TEMP              0 ****  ****    0 ROOT
