@<TRIPOS>MOLECULE
BHZ
   51    52     1     0     0
SMALL
bcc


@<TRIPOS>ATOM
      1 C1         -0.6990   -0.1270   -0.3180 ca        1 BHZ     -0.186300
      2 C2          0.0120   -0.9660   -1.1850 ca        1 BHZ     -0.075000
      3 C3          1.1240   -1.6720   -0.7310 ca        1 BHZ     -0.162000
      4 C4          1.5380   -1.5520    0.5970 ca        1 BHZ     -0.069000
      5 C5          0.8510   -0.7210    1.4760 ca        1 BHZ     -0.222000
      6 C6         -0.2660   -0.0040    1.0160 ca        1 BHZ      0.156100
      7 O6         -0.9830    0.8380    1.8300 oh        1 BHZ     -0.490100
      8 C7         -1.9230    0.5870   -0.7850 c3        1 BHZ      0.179100
      9 N8         -1.6120    1.5370   -1.9150 n4        1 BHZ     -0.676400
     10 C9         -2.8310    1.7080   -2.7570 c3        1 BHZ      0.091800
     11 C10        -2.7610    2.7930   -3.8370 c3        1 BHZ      0.073800
     12 N11        -1.7030    2.6190   -4.8760 n4        1 BHZ     -0.673400
     13 C12        -1.6080    3.8570   -5.7290 c3        1 BHZ      0.176100
     14 C13        -0.3790    4.6520   -5.4280 ca        1 BHZ     -0.175300
     15 C14         0.6690    4.6750   -6.3550 ca        1 BHZ     -0.103500
     16 C15         1.8020    5.4470   -6.1040 ca        1 BHZ     -0.128500
     17 C16         1.8930    6.1920   -4.9270 ca        1 BHZ     -0.100000
     18 C17         0.8510    6.1630   -4.0000 ca        1 BHZ     -0.128500
     19 C18        -0.2870    5.3940   -4.2450 ca        1 BHZ     -0.103500
     20 C19        -1.0990    2.8340   -1.3930 c3        1 BHZ     -0.062200
     21 C20        -2.2460    3.8460   -1.0330 c         1 BHZ      0.915600
     22 O20        -2.1730    4.9570   -1.6210 o         1 BHZ     -0.787300
     23 C21        -1.9160    1.3780   -5.6760 c3        1 BHZ     -0.059200
     24 O21        -3.1460    3.4380   -0.2640 o         1 BHZ     -0.787300
     25 C22        -1.3890    0.1220   -4.9000 c         1 BHZ      0.908600
     26 O22        -2.0290   -0.9350   -5.0360 o         1 BHZ     -0.784800
     27 O23        -0.3660    0.3130   -4.1720 o         1 BHZ     -0.784800
     28 H2         -0.2990   -1.0620   -2.2450 ha        1 BHZ      0.182000
     29 H3          1.6740   -2.3250   -1.4240 ha        1 BHZ      0.149000
     30 H4          2.4140   -2.1150    0.9530 ha        1 BHZ      0.139000
     31 H5          1.1750   -0.6210    2.5220 ha        1 BHZ      0.140000
     32 HO6        -0.5800    0.8260    2.7120 ho        1 BHZ      0.430000
     33 H7         -2.6660   -0.1730   -1.1640 hx        1 BHZ      0.120200
     34 H7A        -2.4030    1.1960    0.0420 hx        1 BHZ      0.120200
     35 H9         -3.0600    0.7070   -3.2290 hx        1 BHZ      0.132200
     36 H9A        -3.6790    2.0130   -2.0650 hx        1 BHZ      0.132200
     37 H10        -2.6130    3.8130   -3.3530 hx        1 BHZ      0.132700
     38 H10A       -3.7640    2.7910   -4.3560 hx        1 BHZ      0.132700
     39 H12        -2.5240    4.4920   -5.5500 hx        1 BHZ      0.095200
     40 H12A       -1.6120    3.5410   -6.8110 hx        1 BHZ      0.095200
     41 H14         0.6020    4.0880   -7.2840 ha        1 BHZ      0.162500
     42 H15         2.6240    5.4670   -6.8350 ha        1 BHZ      0.148500
     43 H16         2.7880    6.8020   -4.7310 ha        1 BHZ      0.142000
     44 H17         0.9180    6.7480   -3.0690 ha        1 BHZ      0.148500
     45 H18        -1.1020    5.3850   -3.4930 ha        1 BHZ      0.162500
     46 H19        -0.5010    2.6350   -0.4630 hx        1 BHZ      0.082700
     47 H19A       -0.4350    3.2900   -2.1760 hx        1 BHZ      0.082700
     48 H21        -3.0040    1.2590   -5.9140 hx        1 BHZ      0.092200
     49 H21A       -1.3260    1.4460   -6.6290 hx        1 BHZ      0.092200
     50 H81        -0.8670    1.0950   -2.4970 hn        1 BHZ      0.475800
     51 H111       -0.7890    2.4850   -4.3980 hn        1 BHZ      0.468800
@<TRIPOS>BOND
     1    1    2 ar  
     2    1    6 ar  
     3    1    8 1   
     4    2    3 ar  
     5    2   28 1   
     6    3    4 ar  
     7    3   29 1   
     8    4    5 ar  
     9    4   30 1   
    10    5    6 ar  
    11    5   31 1   
    12    6    7 1   
    13    7   32 1   
    14    8    9 1   
    15    8   33 1   
    16    8   34 1   
    17    9   10 1   
    18    9   20 1   
    19    9   50 1   
    20   10   11 1   
    21   10   35 1   
    22   10   36 1   
    23   11   12 1   
    24   11   37 1   
    25   11   38 1   
    26   12   13 1   
    27   12   23 1   
    28   12   51 1   
    29   13   14 1   
    30   13   39 1   
    31   13   40 1   
    32   14   15 ar  
    33   14   19 ar  
    34   15   16 ar  
    35   15   41 1   
    36   16   17 ar  
    37   16   42 1   
    38   17   18 ar  
    39   17   43 1   
    40   18   19 ar  
    41   18   44 1   
    42   19   45 1   
    43   20   21 1   
    44   20   46 1   
    45   20   47 1   
    46   21   22 1   
    47   21   24 1   
    48   23   25 1   
    49   23   48 1   
    50   23   49 1   
    51   25   26 1   
    52   25   27 1   
@<TRIPOS>SUBSTRUCTURE
     1 BHZ         1 TEMP              0 ****  ****    0 ROOT
