@<TRIPOS>MOLECULE
BHZ
   49    45     1     0     0
SMALL
bcc


@<TRIPOS>ATOM
      1 C1          1.0440   -1.4550    3.1390 c1        1 BHZ     -0.111000
      2 C2          1.9400   -0.4420    2.8540 c1        1 BHZ     -0.144500
      3 C3          2.9990   -0.1960    3.7120 c1        1 BHZ     -0.144500
      4 C4          3.1550   -0.9690    4.8540 c1        1 BHZ     -0.144500
      5 C5          2.2920   -1.9430    5.1270 c1        1 BHZ     -0.144500
      6 C6          1.2070   -2.2020    4.2560 c1        1 BHZ      0.069000
      7 O6          0.3650   -3.2360    4.5160 oh        1 BHZ     -0.283000
      8 C7         -0.0700   -1.8100    2.1230 c3        1 BHZ     -0.039000
      9 N8         -0.7220   -0.6110    1.7120 n3        1 BHZ     -0.259000
     10 C9         -1.0310   -0.6680    0.2840 c3        1 BHZ     -0.056000
     11 C10        -0.9110    0.7090   -0.2990 c3        1 BHZ     -0.058000
     12 N11        -1.2150    0.6670   -1.7300 n3        1 BHZ     -0.258000
     13 C12        -0.7980    1.9110   -2.3460 c3        1 BHZ     -0.038000
     14 C13         0.2620    1.6050   -3.5110 c2        1 BHZ     -0.045000
     15 C14         1.4540    2.3730   -3.6100 c2        1 BHZ     -0.141000
     16 C15         2.3290    2.1520   -4.6410 c1        1 BHZ     -0.156000
     17 C16         2.0490    1.1770   -5.5880 c1        1 BHZ     -0.144500
     18 C17         0.8750    0.4220   -5.4870 c1        1 BHZ     -0.144500
     19 C18        -0.0100    0.6490   -4.4400 c1        1 BHZ     -0.093000
     20 C19        -1.9630   -0.4310    2.4930 c3        1 BHZ     -0.130000
     21 C20        -1.7580    0.6320    3.5110 c2        1 BHZ      0.323000
     22 O20        -0.9140    1.5230    3.3130 o         1 BHZ     -0.584000
     23 C21        -2.5520    0.4930   -1.9120 c3        1 BHZ     -0.132000
     24 O21        -2.5320    0.7440    4.4040 o         1 BHZ     -0.584000
     25 C22        -2.7970   -0.1830   -3.2950 c2        1 BHZ      0.326000
     26 O22        -2.5030   -1.4250   -3.4680 o         1 BHZ     -0.584000
     27 O23        -3.3620    0.4980   -4.2640 o         1 BHZ     -0.584000
     28 H2          1.8250    0.1040    2.0430 ha        1 BHZ      0.126500
     29 H3          3.6660    0.5520    3.5050 ha        1 BHZ      0.126500
     30 H4          3.8730   -0.8400    5.3920 ha        1 BHZ      0.126500
     31 H5          2.4310   -2.5140    5.9320 ha        1 BHZ      0.126500
     32 HO6         0.8390   -3.9520    4.7200 ho        1 BHZ      0.231000
     33 H7          0.3630   -2.2920    1.2750 h1        1 BHZ      0.095000
     34 H7A        -0.7440   -2.4320    2.5600 h1        1 BHZ      0.095000
     35 H9         -0.3900   -1.2750   -0.1740 h1        1 BHZ      0.061000
     36 H9A        -1.9040   -0.9870    0.1650 h1        1 BHZ      0.061000
     37 H10         0.0390    1.0470   -0.1670 h1        1 BHZ      0.067500
     38 H10A       -1.5290    1.3030    0.1460 h1        1 BHZ      0.067500
     39 H12        -1.5780    2.3650   -2.7270 h1        1 BHZ      0.093500
     40 H12A       -0.3860    2.4820   -1.6740 h1        1 BHZ      0.093500
     41 H14         1.6520    3.0610   -2.9380 ha        1 BHZ      0.117000
     42 H15         3.1900    2.7080   -4.7120 ha        1 BHZ      0.102000
     43 H16         2.7190    0.9640   -6.2990 ha        1 BHZ      0.126500
     44 H17         0.6820   -0.2520   -6.1380 ha        1 BHZ      0.126500
     45 H18        -0.8510    0.1130   -4.3700 ha        1 BHZ      0.207000
     46 H19        -2.1840   -1.2530    2.9310 h1        1 BHZ      0.060000
     47 H19A       -2.6460   -0.1890    1.9340 h1        1 BHZ      0.060000
     48 H21        -2.8980   -0.0610   -1.2190 h1        1 BHZ      0.057500
     49 H21A       -3.0030    1.3620   -1.8890 h1        1 BHZ      0.057500
@<TRIPOS>BOND
     1    1    6 1   
     2    1    8 1   
     3    2    3 1   
     4    2   28 1   
     5    3   29 1   
     6    4    5 1   
     7    4   30 1   
     8    5   31 1   
     9    6    7 1   
    10    7   32 1   
    11    8    9 1   
    12    8   33 1   
    13    8   34 1   
    14    9   10 1   
    15    9   20 1   
    16   10   11 1   
    17   10   35 1   
    18   10   36 1   
    19   11   12 1   
    20   11   37 1   
    21   11   38 1   
    22   12   13 1   
    23   12   23 1   
    24   13   14 1   
    25   13   39 1   
    26   13   40 1   
    27   14   15 1   
    28   14   19 1   
    29   15   16 1   
    30   15   41 1   
    31   16   42 1   
    32   17   18 1   
    33   17   43 1   
    34   18   44 1   
    35   19   45 1   
    36   20   21 1   
    37   20   46 1   
    38   20   47 1   
    39   21   22 1   
    40   21   24 1   
    41   23   25 1   
    42   23   48 1   
    43   23   49 1   
    44   25   26 1   
    45   25   27 1   
@<TRIPOS>SUBSTRUCTURE
     1 BHZ         1 TEMP              0 ****  ****    0 ROOT
