@<TRIPOS>MOLECULE
BI1
   56    60     1     0     0
SMALL
bcc


@<TRIPOS>ATOM
      1 CBD         3.1790    0.3020    1.9580 c3        1 BI1      0.079100
      2 NBC         3.1530    0.1090    0.4820 n4        1 BI1     -0.667400
      3 CBE         4.4260    0.5940   -0.1150 c3        1 BI1      0.079100
      4 CBB         2.9150   -1.3390    0.1620 c3        1 BI1      0.090800
      5 CBA         2.5060   -1.5980   -1.2800 c3        1 BI1     -0.141400
      6 CAY         2.5360   -3.1030   -1.6000 c3        1 BI1      0.031300
      7 NAH         3.8340   -3.7240   -1.6010 na        1 BI1     -0.057400
      8 CAW         4.4970   -3.9270   -0.3600 cc        1 BI1     -0.136100
      9 CAE         4.8380   -3.3110   -2.5230 ca        1 BI1     -0.074200
     10 CAF         4.7360   -2.9900   -3.8800 ca        1 BI1     -0.137000
     11 CAA         5.9100   -2.7020   -4.5710 ca        1 BI1     -0.104000
     12 CAB         7.1600   -2.7350   -3.9370 ca        1 BI1     -0.138000
     13 CAC         7.2770   -3.0580   -2.5880 ca        1 BI1     -0.077000
     14 CAD         6.1220   -3.3430   -1.8660 ca        1 BI1     -0.083800
     15 CAG         5.8640   -3.7130   -0.4780 cd        1 BI1     -0.040200
     16 CAI         6.7900   -3.6870    0.6090 cd        1 BI1     -0.170200
     17 CAT         6.6150   -2.6000    1.6440 c         1 BI1      0.737700
     18 OAZ         5.7280   -1.7280    1.7080 o         1 BI1     -0.696500
     19 NAU         7.6670   -2.7210    2.5650 n         1 BI1     -0.617500
     20 CAV         8.5040   -3.8030    2.1950 c         1 BI1      0.689700
     21 OAX         9.5190   -4.1250    2.8110 o         1 BI1     -0.549500
     22 CAJ         7.8950   -4.4320    0.9330 cc        1 BI1      0.064800
     23 CAK         8.5020   -5.5720    0.3690 cc        1 BI1     -0.173200
     24 CAM         7.9650   -6.5610   -0.5540 ca        1 BI1     -0.047800
     25 CAP         6.7330   -6.7650   -1.1750 ca        1 BI1     -0.096000
     26 CAQ         6.5650   -7.8660   -2.0040 ca        1 BI1     -0.130000
     27 CAR         7.6060   -8.7830   -2.2280 ca        1 BI1     -0.111000
     28 CAS         8.8450   -8.6280   -1.6230 ca        1 BI1     -0.123000
     29 CAN         9.0220   -7.5200   -0.7830 ca        1 BI1     -0.070200
     30 NAO        10.1430   -7.1260   -0.0320 na        1 BI1     -0.155400
     31 CAL         9.8310   -5.9800    0.6600 cd        1 BI1     -0.008100
     32 HBD1        3.3690    1.3850    2.1840 hx        1 BI1      0.108533
     33 HBD2        2.1920   -0.0080    2.3930 hx        1 BI1      0.108533
     34 HBD3        4.0050   -0.3280    2.3950 hx        1 BI1      0.108533
     35 HBE1        4.3940    0.4620   -1.2280 hx        1 BI1      0.108533
     36 HBE2        4.5580    1.6800    0.1350 hx        1 BI1      0.108533
     37 HBE3        5.2830   -0.0010    0.3100 hx        1 BI1      0.108533
     38 HBB1        3.8780   -1.8800    0.4250 hx        1 BI1      0.119700
     39 HBB2        2.1000   -1.7090    0.8490 hx        1 BI1      0.119700
     40 HBA1        3.1830   -1.0640   -1.9990 hc        1 BI1      0.072200
     41 HBA2        1.4600   -1.2320   -1.4560 hc        1 BI1      0.072200
     42 HAY1        2.0940   -3.2370   -2.6300 h1        1 BI1      0.082200
     43 HAY2        1.8890   -3.6520   -0.8590 h1        1 BI1      0.082200
     44 HAW         3.9310   -4.2790    0.5060 h4        1 BI1      0.174000
     45 HAF         3.7640   -2.9820   -4.3930 ha        1 BI1      0.141000
     46 HAA         5.8560   -2.4520   -5.6420 ha        1 BI1      0.145000
     47 HAB         8.0650   -2.5130   -4.5230 ha        1 BI1      0.146000
     48 HAC         8.2630   -3.1050   -2.1040 ha        1 BI1      0.148000
     49 HAU         7.8130   -2.1420    3.3530 hn        1 BI1      0.353500
     50 HAP         5.9060   -6.0580   -1.0130 ha        1 BI1      0.145000
     51 HAQ         5.5960   -8.0290   -2.4990 ha        1 BI1      0.139000
     52 HAR         7.4320   -9.6430   -2.8930 ha        1 BI1      0.143000
     53 HAS         9.6560   -9.3490   -1.7930 ha        1 BI1      0.144000
     54 HAO        11.0020   -7.6130    0.0030 hn        1 BI1      0.316700
     55 HAL        10.5530   -5.4990    1.3330 h4        1 BI1      0.201000
     56 HBC1        2.3800    0.6580    0.0890 hn        1 BI1      0.435800
@<TRIPOS>BOND
     1    1    2 1   
     2    1   32 1   
     3    1   33 1   
     4    1   34 1   
     5    2    3 1   
     6    2    4 1   
     7    2   56 1   
     8    3   35 1   
     9    3   36 1   
    10    3   37 1   
    11    4    5 1   
    12    4   38 1   
    13    4   39 1   
    14    5    6 1   
    15    5   40 1   
    16    5   41 1   
    17    6    7 1   
    18    6   42 1   
    19    6   43 1   
    20    7    8 1   
    21    7    9 1   
    22    8   15 2   
    23    8   44 1   
    24    9   10 ar  
    25    9   14 ar  
    26   10   11 ar  
    27   10   45 1   
    28   11   12 ar  
    29   11   46 1   
    30   12   13 ar  
    31   12   47 1   
    32   13   14 ar  
    33   13   48 1   
    34   14   15 1   
    35   15   16 1   
    36   16   17 1   
    37   16   22 2   
    38   17   18 2   
    39   17   19 1   
    40   19   20 1   
    41   19   49 1   
    42   20   21 2   
    43   20   22 1   
    44   22   23 1   
    45   23   24 1   
    46   23   31 2   
    47   24   25 ar  
    48   24   29 ar  
    49   25   26 ar  
    50   25   50 1   
    51   26   27 ar  
    52   26   51 1   
    53   27   28 ar  
    54   27   52 1   
    55   28   29 ar  
    56   28   53 1   
    57   29   30 1   
    58   30   31 1   
    59   30   54 1   
    60   31   55 1   
@<TRIPOS>SUBSTRUCTURE
     1 BI1         1 TEMP              0 ****  ****    0 ROOT
