@<TRIPOS>MOLECULE
BI1
   55    47     1     0     0
SMALL
bcc


@<TRIPOS>ATOM
      1 CBD        -5.5870    3.3220   -0.5320 c3        1 BI1     -0.121500
      2 NBC        -4.7460    3.2660    0.6340 n3        1 BI1     -0.262000
      3 CBE        -5.5160    3.7410    1.8300 c3        1 BI1     -0.121500
      4 CBB        -4.3150    1.9090    0.8480 c3        1 BI1     -0.063000
      5 CBA        -2.7980    1.8710    0.9610 c3        1 BI1     -0.190000
      6 CAY        -2.2800    0.5560    0.4180 c3        1 BI1     -0.017000
      7 NAH        -0.8580    0.6500    0.2150 n3        1 BI1     -0.163000
      8 CAW         0.0550   -0.1030    0.9270 c1        1 BI1     -0.027000
      9 CAE        -0.1910    1.2350   -0.8600 c1        1 BI1     -0.001000
     10 CAF        -0.6380    2.0480   -1.9140 c1        1 BI1     -0.139000
     11 CAA         0.2660    2.4620   -2.9200 c1        1 BI1     -0.125833
     12 CAB         1.6040    2.0620   -2.8650 c1        1 BI1     -0.125833
     13 CAC         2.0460    1.2560   -1.8210 c1        1 BI1     -0.095000
     14 CAD         1.1370    0.8380   -0.8070 c1        1 BI1     -0.068000
     15 CAG         1.2930    0.0110    0.2960 c1        1 BI1     -0.119000
     16 CAI         2.7910    0.1090    0.3280 c1        1 BI1     -0.076000
     17 CAT         3.3700    1.2160    1.4710 c2        1 BI1      0.341000
     18 OAZ         4.5310    1.5320    1.4710 o         1 BI1     -0.291000
     19 NAU         3.0240    0.5640    2.5730 n         1 BI1     -0.414000
     20 CAV         3.1750   -1.0230    2.0620 c2        1 BI1      0.340000
     21 OAX         3.7330   -1.9580    2.7000 o         1 BI1     -0.297000
     22 CAJ         3.1580   -0.8590    0.5860 c2        1 BI1      0.016000
     23 CAK         2.8580   -2.0430   -0.3030 c2        1 BI1     -0.140000
     24 CAM         2.8160   -3.3950   -0.0780 c1        1 BI1     -0.046000
     25 CAP         2.5560   -4.1550    1.0990 c1        1 BI1     -0.125833
     26 CAQ         2.5790   -5.5510    1.0520 c1        1 BI1     -0.125833
     27 CAR         2.8570   -6.2070   -0.1560 c1        1 BI1     -0.125833
     28 CAS         3.1110   -5.4640   -1.3100 c1        1 BI1     -0.125833
     29 CAN         3.0880   -4.0300   -1.2590 c1        1 BI1     -0.015000
     30 NAO         3.2980   -3.0680   -2.2150 n1        1 BI1     -0.203000
     31 CAL         3.1560   -1.8410   -1.6190 c1        1 BI1     -0.021000
     32 HBD1       -5.9590    4.2190   -0.6200 h1        1 BI1      0.072333
     33 HBD2       -5.0500    3.1060   -1.3370 h1        1 BI1      0.072333
     34 HBD3       -6.3380    2.6510   -0.4400 h1        1 BI1      0.072333
     35 HBE1       -4.9030    3.8060    2.6160 h1        1 BI1      0.072333
     36 HBE2       -5.8950    4.6100    1.6460 h1        1 BI1      0.072333
     37 HBE3       -6.2450    3.0990    2.0310 h1        1 BI1      0.072333
     38 HBB1       -4.6030    1.3480    0.0860 h1        1 BI1      0.067500
     39 HBB2       -4.7270    1.5550    1.6990 h1        1 BI1      0.067500
     40 HBA1       -2.3970    2.6440    0.4230 hc        1 BI1      0.105000
     41 HBA2       -2.5330    1.9630    1.9250 hc        1 BI1      0.105000
     42 HAY1       -2.7400    0.3480   -0.4740 h1        1 BI1      0.099000
     43 HAY2       -2.4740   -0.1710    1.0690 h1        1 BI1      0.099000
     44 HAW        -0.1330   -0.6160    1.7630 DU        1 BI1      0.206333
     45 HAF        -1.5780    2.3290   -1.9520 ha        1 BI1      0.133000
     46 HAA        -0.0330    3.0120   -3.6290 ha        1 BI1      0.136333
     47 HAB         2.2310    2.3490   -3.5650 ha        1 BI1      0.136333
     48 HAC         3.0090    0.9690   -1.7820 ha        1 BI1      0.140000
     49 HAU         3.1690    0.8630    3.4460 hn        1 BI1      0.259000
     50 HAP         2.3620   -3.6980    1.9400 ha        1 BI1      0.136333
     51 HAQ         2.3950   -6.0840    1.8860 ha        1 BI1      0.136333
     52 HAR         2.8760   -7.1850   -0.1900 ha        1 BI1      0.136333
     53 HAS         3.3030   -5.9200   -2.1540 ha        1 BI1      0.136333
     54 HAO         3.5000   -3.2190   -3.1000 DU        1 BI1      0.206333
     55 HAL         3.1890   -0.9300   -2.0970 DU        1 BI1      0.206333
@<TRIPOS>BOND
     1    1    2 1   
     2    1   32 1   
     3    1   33 1   
     4    1   34 1   
     5    2    3 1   
     6    2    4 1   
     7    3   35 1   
     8    3   36 1   
     9    3   37 1   
    10    4    5 1   
    11    4   38 1   
    12    4   39 1   
    13    5    6 1   
    14    5   40 1   
    15    5   41 1   
    16    6    7 1   
    17    6   42 1   
    18    6   43 1   
    19    7    8 1   
    20    7    9 1   
    21    8   15 1   
    22    9   10 1   
    23   10   45 1   
    24   11   12 1   
    25   11   46 1   
    26   12   47 1   
    27   13   14 1   
    28   13   48 1   
    29   16   17 1   
    30   16   22 1   
    31   17   18 1   
    32   17   19 1   
    33   19   20 1   
    34   19   49 1   
    35   20   21 1   
    36   20   22 1   
    37   22   23 1   
    38   23   24 1   
    39   23   31 1   
    40   24   29 1   
    41   25   26 1   
    42   25   50 1   
    43   26   51 1   
    44   27   28 1   
    45   27   52 1   
    46   28   53 1   
    47   30   31 1   
@<TRIPOS>SUBSTRUCTURE
     1 BI1         1 TEMP              0 ****  ****    0 ROOT
