@<TRIPOS>MOLECULE
BI1
   56    60     1     0     0
SMALL
bcc


@<TRIPOS>ATOM
      1 CBD         3.2110    0.3730    1.8850 c3        1 BI1      0.079100
      2 NBC         3.1810    0.1500    0.4140 n4        1 BI1     -0.667400
      3 CBE         4.4560    0.6150   -0.1960 c3        1 BI1      0.079100
      4 CBB         2.9330   -1.3020    0.1220 c3        1 BI1      0.090800
      5 CBA         2.5190   -1.5870   -1.3130 c3        1 BI1     -0.141400
      6 CAY         2.5380   -3.0980   -1.6030 c3        1 BI1      0.031300
      7 NAH         3.8310   -3.7290   -1.5930 na        1 BI1     -0.057400
      8 CAW         4.4950   -3.9110   -0.3500 cc        1 BI1     -0.136100
      9 CAE         4.8360   -3.3420   -2.5250 ca        1 BI1     -0.074200
     10 CAF         4.7340   -3.0470   -3.8890 ca        1 BI1     -0.137000
     11 CAA         5.9090   -2.7820   -4.5860 ca        1 BI1     -0.104000
     12 CAB         7.1600   -2.8120   -3.9550 ca        1 BI1     -0.138000
     13 CAC         7.2770   -3.1080   -2.6000 ca        1 BI1     -0.077000
     14 CAD         6.1210   -3.3700   -1.8700 ca        1 BI1     -0.083800
     15 CAG         5.8630   -3.7100   -0.4740 cd        1 BI1     -0.040200
     16 CAI         6.7920   -3.6680    0.6100 cd        1 BI1     -0.170200
     17 CAT         6.6260   -2.5590    1.6230 c         1 BI1      0.737700
     18 OAZ         5.7460   -1.6790    1.6710 o         1 BI1     -0.696500
     19 NAU         7.6800   -2.6680    2.5440 n         1 BI1     -0.617500
     20 CAV         8.5080   -3.7650    2.1950 c         1 BI1      0.689700
     21 OAX         9.5220   -4.0810    2.8160 o         1 BI1     -0.549500
     22 CAJ         7.8910   -4.4150    0.9490 cc        1 BI1      0.064800
     23 CAK         8.4890   -5.5710    0.4060 cc        1 BI1     -0.173200
     24 CAM         7.9420   -6.5740   -0.4950 ca        1 BI1     -0.047800
     25 CAP         6.7070   -6.7820   -1.1090 ca        1 BI1     -0.096000
     26 CAQ         6.5290   -7.8990   -1.9140 ca        1 BI1     -0.130000
     27 CAR         7.5620   -8.8290   -2.1200 ca        1 BI1     -0.111000
     28 CAS         8.8040   -8.6700   -1.5210 ca        1 BI1     -0.123000
     29 CAN         8.9910   -7.5470   -0.7050 ca        1 BI1     -0.070200
     30 NAO        10.1170   -7.1450    0.0360 na        1 BI1     -0.155400
     31 CAL         9.8150   -5.9830    0.7040 cd        1 BI1     -0.008100
     32 HBD1        4.0340   -0.2530    2.3330 hx        1 BI1      0.108533
     33 HBD2        2.2240    0.0790    2.3280 hx        1 BI1      0.108533
     34 HBD3        3.4100    1.4580    2.0890 hx        1 BI1      0.108533
     35 HBE1        4.4210    0.4610   -1.3060 hx        1 BI1      0.108533
     36 HBE2        5.3110    0.0230    0.2400 hx        1 BI1      0.108533
     37 HBE3        4.5960    1.7050    0.0320 hx        1 BI1      0.108533
     38 HBB1        3.8930   -1.8430    0.3940 hx        1 BI1      0.119700
     39 HBB2        2.1170   -1.6530    0.8190 hx        1 BI1      0.119700
     40 HBA1        3.1990   -1.0720   -2.0430 hc        1 BI1      0.072200
     41 HBA2        1.4760   -1.2160   -1.4940 hc        1 BI1      0.072200
     42 HAY1        1.8880   -3.6280   -0.8490 h1        1 BI1      0.082200
     43 HAY2        2.0930   -3.2500   -2.6290 h1        1 BI1      0.082200
     44 HAW         3.9280   -4.2410    0.5250 h4        1 BI1      0.174000
     45 HAF         3.7620   -3.0430   -4.3990 ha        1 BI1      0.141000
     46 HAA         5.8550   -2.5540   -5.6630 ha        1 BI1      0.145000
     47 HAB         8.0650   -2.6080   -4.5460 ha        1 BI1      0.146000
     48 HAC         8.2640   -3.1530   -2.1160 ha        1 BI1      0.148000
     49 HAU         7.8320   -2.0750    3.3200 hn        1 BI1      0.353500
     50 HAP         5.8860   -6.0650   -0.9600 ha        1 BI1      0.145000
     51 HAQ         5.5580   -8.0650   -2.4040 ha        1 BI1      0.139000
     52 HAR         7.3810   -9.7010   -2.7680 ha        1 BI1      0.143000
     53 HAS         9.6090   -9.4010   -1.6770 ha        1 BI1      0.144000
     54 HAO        10.9720   -7.6380    0.0780 hn        1 BI1      0.316700
     55 HAL        10.5420   -5.4930    1.3650 h4        1 BI1      0.201000
     56 HBC1        2.4110    0.6970    0.0110 hn        1 BI1      0.435800
@<TRIPOS>BOND
     1    1    2 1   
     2    1   32 1   
     3    1   33 1   
     4    1   34 1   
     5    2    3 1   
     6    2    4 1   
     7    2   56 1   
     8    3   35 1   
     9    3   36 1   
    10    3   37 1   
    11    4    5 1   
    12    4   38 1   
    13    4   39 1   
    14    5    6 1   
    15    5   40 1   
    16    5   41 1   
    17    6    7 1   
    18    6   42 1   
    19    6   43 1   
    20    7    8 1   
    21    7    9 1   
    22    8   15 2   
    23    8   44 1   
    24    9   10 ar  
    25    9   14 ar  
    26   10   11 ar  
    27   10   45 1   
    28   11   12 ar  
    29   11   46 1   
    30   12   13 ar  
    31   12   47 1   
    32   13   14 ar  
    33   13   48 1   
    34   14   15 1   
    35   15   16 1   
    36   16   17 1   
    37   16   22 2   
    38   17   18 2   
    39   17   19 1   
    40   19   20 1   
    41   19   49 1   
    42   20   21 2   
    43   20   22 1   
    44   22   23 1   
    45   23   24 1   
    46   23   31 2   
    47   24   25 ar  
    48   24   29 ar  
    49   25   26 ar  
    50   25   50 1   
    51   26   27 ar  
    52   26   51 1   
    53   27   28 ar  
    54   27   52 1   
    55   28   29 ar  
    56   28   53 1   
    57   29   30 1   
    58   30   31 1   
    59   30   54 1   
    60   31   55 1   
@<TRIPOS>SUBSTRUCTURE
     1 BI1         1 TEMP              0 ****  ****    0 ROOT
