@<TRIPOS>MOLECULE
BI1
   55    59     1     0     0
SMALL
bcc


@<TRIPOS>ATOM
      1 CBD        -2.4130   -0.0210    7.2280 c3        1 BI1      0.155100
      2 NBC        -1.4460   -0.4000    6.2210 n3        1 BI1     -0.736600
      3 CBE        -1.3920   -1.8270    6.0010 c3        1 BI1      0.155100
      4 CBB        -1.6020    0.3750    4.9980 c3        1 BI1      0.173800
      5 CBA        -0.4920    0.1450    3.9740 c3        1 BI1     -0.110400
      6 CAY        -0.5990    1.2200    2.8890 c3        1 BI1      0.041300
      7 NAH         0.3300    1.0820    1.8050 na        1 BI1     -0.067400
      8 CAW         0.1190    0.3130    0.6610 cc        1 BI1     -0.070100
      9 CAE         1.6890    1.4500    1.8370 ca        1 BI1     -0.053200
     10 CAF         2.4050    2.2110    2.7720 ca        1 BI1     -0.141000
     11 CAA         3.7470    2.4530    2.5170 ca        1 BI1     -0.113000
     12 CAB         4.3760    1.9530    1.3640 ca        1 BI1     -0.151000
     13 CAC         3.6800    1.1960    0.4320 ca        1 BI1     -0.073000
     14 CAD         2.3270    0.9320    0.6480 ca        1 BI1     -0.064800
     15 CAG         1.3010    0.2140   -0.0910 cd        1 BI1     -0.112200
     16 CAI         1.4180   -0.4780   -1.3280 cd        1 BI1     -0.054200
     17 CAT         2.6550   -1.2770   -1.6980 c         1 BI1      0.705700
     18 OAZ         3.7170   -1.4160   -1.0890 o         1 BI1     -0.570500
     19 NAU         2.3830   -1.8910   -2.9420 n         1 BI1     -0.634500
     20 CAV         1.0900   -1.5400   -3.3920 c         1 BI1      0.705700
     21 OAX         0.6050   -1.9450   -4.4500 o         1 BI1     -0.571500
     22 CAJ         0.5010   -0.6150   -2.3420 cc        1 BI1     -0.056200
     23 CAK        -0.7700    0.0050   -2.4990 cc        1 BI1     -0.111200
     24 CAM        -1.9730   -0.5290   -3.1150 ca        1 BI1     -0.064800
     25 CAP        -2.3120   -1.7430   -3.7150 ca        1 BI1     -0.071000
     26 CAQ        -3.6010   -1.9200   -4.1970 ca        1 BI1     -0.152000
     27 CAR        -4.5680   -0.9040   -4.0960 ca        1 BI1     -0.111000
     28 CAS        -4.2750    0.3190   -3.5120 ca        1 BI1     -0.146000
     29 CAN        -2.9750    0.5090   -3.0190 ca        1 BI1     -0.058200
     30 NAO        -2.4020    1.6120   -2.3710 na        1 BI1     -0.184400
     31 CAL        -1.0800    1.3100   -2.0760 cd        1 BI1     -0.070100
     32 HBD1       -2.1890   -0.5830    8.1730 h1        1 BI1      0.033033
     33 HBD2       -2.3170    1.0770    7.4340 h1        1 BI1      0.033033
     34 HBD3       -3.4750   -0.2370    6.9280 h1        1 BI1      0.033033
     35 HBE1       -0.4910   -2.0630    5.3760 h1        1 BI1      0.033033
     36 HBE2       -1.2840   -2.3470    6.9890 h1        1 BI1      0.033033
     37 HBE3       -2.3050   -2.2310    5.4830 h1        1 BI1      0.033033
     38 HBB1       -2.5950    0.1650    4.4990 h1        1 BI1      0.028700
     39 HBB2       -1.5990    1.4640    5.2940 h1        1 BI1      0.028700
     40 HBA1        0.5140    0.1980    4.4650 hc        1 BI1      0.065200
     41 HBA2       -0.5940   -0.8730    3.5180 hc        1 BI1      0.065200
     42 HAY1       -1.6400    1.2020    2.4550 h1        1 BI1      0.059700
     43 HAY2       -0.4280    2.2320    3.3600 h1        1 BI1      0.059700
     44 HAW        -0.8660   -0.1050    0.4350 h4        1 BI1      0.178000
     45 HAF         1.9200    2.5970    3.6780 ha        1 BI1      0.134000
     46 HAA         4.3350    3.0440    3.2340 ha        1 BI1      0.131000
     47 HAB         5.4440    2.1620    1.2050 ha        1 BI1      0.133000
     48 HAC         4.1850    0.7870   -0.4570 ha        1 BI1      0.153000
     49 HAU         3.0090   -2.4790   -3.4290 hn        1 BI1      0.346500
     50 HAP        -1.5540   -2.5350   -3.8210 ha        1 BI1      0.154000
     51 HAQ        -3.8760   -2.8720   -4.6750 ha        1 BI1      0.133000
     52 HAR        -5.5780   -1.0850   -4.4940 ha        1 BI1      0.131000
     53 HAS        -5.0310    1.1110   -3.4390 ha        1 BI1      0.132000
     54 HAO        -2.8310    2.4920   -2.2630 hn        1 BI1      0.301700
     55 HAL        -0.4300    2.0320   -1.5730 h4        1 BI1      0.180000
@<TRIPOS>BOND
     1    1    2 1   
     2    1   32 1   
     3    1   33 1   
     4    1   34 1   
     5    2    3 1   
     6    2    4 1   
     7    3   35 1   
     8    3   36 1   
     9    3   37 1   
    10    4    5 1   
    11    4   38 1   
    12    4   39 1   
    13    5    6 1   
    14    5   40 1   
    15    5   41 1   
    16    6    7 1   
    17    6   42 1   
    18    6   43 1   
    19    7    8 1   
    20    7    9 1   
    21    8   15 2   
    22    8   44 1   
    23    9   10 ar  
    24    9   14 ar  
    25   10   11 ar  
    26   10   45 1   
    27   11   12 ar  
    28   11   46 1   
    29   12   13 ar  
    30   12   47 1   
    31   13   14 ar  
    32   13   48 1   
    33   14   15 1   
    34   15   16 1   
    35   16   17 1   
    36   16   22 2   
    37   17   18 2   
    38   17   19 1   
    39   19   20 1   
    40   19   49 1   
    41   20   21 2   
    42   20   22 1   
    43   22   23 1   
    44   23   24 1   
    45   23   31 2   
    46   24   25 ar  
    47   24   29 ar  
    48   25   26 ar  
    49   25   50 1   
    50   26   27 ar  
    51   26   51 1   
    52   27   28 ar  
    53   27   52 1   
    54   28   29 ar  
    55   28   53 1   
    56   29   30 1   
    57   30   31 1   
    58   30   54 1   
    59   31   55 1   
@<TRIPOS>SUBSTRUCTURE
     1 BI1         1 TEMP              0 ****  ****    0 ROOT
