@<TRIPOS>MOLECULE
BI1
   56    60     1     0     0
SMALL
bcc


@<TRIPOS>ATOM
      1 CBD         4.1110    0.0190   -0.6660 c3        1 BI1      0.089600
      2 NBC         3.6990   -0.7740    0.5180 nx        1 BI1     -0.682400
      3 CBE         3.8160    0.0480    1.7560 c3        1 BI1      0.089600
      4 CBB         2.2970   -1.2930    0.4010 c3        1 BI1      0.113800
      5 CBA         1.9190   -1.9750   -0.9030 c3        1 BI1     -0.137400
      6 CAY         2.3850   -3.4280   -1.0330 c3        1 BI1      0.030300
      7 NAH         3.8010   -3.6210   -1.0880 na        1 BI1     -0.084400
      8 CAW         4.6100   -3.7760    0.0500 cc        1 BI1     -0.152100
      9 CAE         4.6330   -3.2350   -2.1580 ca        1 BI1     -0.067200
     10 CAF         4.3270   -2.9480   -3.4970 ca        1 BI1     -0.152000
     11 CAA         5.3800   -2.6430   -4.3490 ca        1 BI1     -0.095000
     12 CAB         6.7100   -2.6190   -3.8960 ca        1 BI1     -0.142000
     13 CAC         7.0280   -2.9010   -2.5750 ca        1 BI1     -0.070000
     14 CAD         5.9980   -3.2080   -1.6850 ca        1 BI1     -0.093800
     15 CAG         5.9500   -3.5450   -0.2720 cd        1 BI1     -0.045200
     16 CAI         7.0210   -3.5080    0.6710 cd        1 BI1     -0.180200
     17 CAT         6.9430   -2.4710    1.7650 c         1 BI1      0.735700
     18 OAZ         6.0250   -1.6570    1.9760 o         1 BI1     -0.698500
     19 NAU         8.1170   -2.5640    2.5250 ns        1 BI1     -0.610500
     20 CAV         8.9460   -3.5870    1.9960 c         1 BI1      0.688700
     21 OAX        10.0530   -3.8730    2.4470 o         1 BI1     -0.545500
     22 CAJ         8.1940   -4.2060    0.8080 cc        1 BI1      0.068800
     23 CAK         8.7650   -5.2980    0.1250 cc        1 BI1     -0.175200
     24 CAM         8.1430   -6.2950   -0.7320 ca        1 BI1     -0.047800
     25 CAP         6.8410   -6.5520   -1.1630 ca        1 BI1     -0.097000
     26 CAQ         6.6020   -7.6460   -1.9840 ca        1 BI1     -0.130000
     27 CAR         7.6390   -8.5030   -2.3870 ca        1 BI1     -0.111000
     28 CAS         8.9470   -8.2950   -1.9740 ca        1 BI1     -0.121000
     29 CAN         9.1970   -7.1950   -1.1430 ca        1 BI1     -0.070200
     30 NAO        10.3990   -6.7570   -0.5580 na        1 BI1     -0.154400
     31 CAL        10.1410   -5.6440    0.2030 cd        1 BI1     -0.005100
     32 HBD1        5.0800    0.5420   -0.4380 hx        1 BI1      0.101200
     33 HBD2        4.2690   -0.6720   -1.5400 hx        1 BI1      0.101200
     34 HBD3        3.3220    0.7770   -0.9110 hx        1 BI1      0.101200
     35 HBE1        3.5120   -0.5740    2.6390 hx        1 BI1      0.101200
     36 HBE2        4.8910    0.3530    1.8890 hx        1 BI1      0.101200
     37 HBE3        3.1630    0.9550    1.6730 hx        1 BI1      0.101200
     38 HBB1        2.1470   -2.0120    1.2590 hx        1 BI1      0.095200
     39 HBB2        1.6090   -0.4090    0.5500 hx        1 BI1      0.095200
     40 HBA1        2.2610   -1.3800   -1.7900 hc        1 BI1      0.088200
     41 HBA2        0.7930   -1.9920   -0.9350 hc        1 BI1      0.088200
     42 HAY1        1.9400   -3.8440   -1.9850 h1        1 BI1      0.084700
     43 HAY2        1.9820   -4.0270   -0.1660 h1        1 BI1      0.084700
     44 HAW         4.1830   -4.1140    0.9980 h4        1 BI1      0.179000
     45 HAF         3.2920   -2.9860   -3.8640 ha        1 BI1      0.141000
     46 HAA         5.1700   -2.4240   -5.4080 ha        1 BI1      0.148000
     47 HAB         7.5130   -2.3820   -4.6120 ha        1 BI1      0.149000
     48 HAC         8.0730   -2.9010   -2.2310 ha        1 BI1      0.152000
     49 HAU         8.3410   -2.0070    3.3110 hn        1 BI1      0.358500
     50 HAP         6.0160   -5.8900   -0.8570 ha        1 BI1      0.143000
     51 HAQ         5.5770   -7.8510   -2.3280 ha        1 BI1      0.138000
     52 HAR         7.4070   -9.3590   -3.0400 ha        1 BI1      0.144000
     53 HAS         9.7560   -8.9700   -2.2840 ha        1 BI1      0.146000
     54 HAO        11.2750   -7.2010   -0.6660 hn        1 BI1      0.317700
     55 HAL        10.9320   -5.1390    0.7740 h4        1 BI1      0.202000
     56 HBC1        4.3640   -1.5720    0.6200 hn        1 BI1      0.489800
@<TRIPOS>BOND
     1    1    2 1   
     2    1   32 1   
     3    1   33 1   
     4    1   34 1   
     5    2    3 1   
     6    2    4 1   
     7    2   56 1   
     8    3   35 1   
     9    3   36 1   
    10    3   37 1   
    11    4    5 1   
    12    4   38 1   
    13    4   39 1   
    14    5    6 1   
    15    5   40 1   
    16    5   41 1   
    17    6    7 1   
    18    6   42 1   
    19    6   43 1   
    20    7    8 1   
    21    7    9 1   
    22    8   15 2   
    23    8   44 1   
    24    9   10 ar  
    25    9   14 ar  
    26   10   11 ar  
    27   10   45 1   
    28   11   12 ar  
    29   11   46 1   
    30   12   13 ar  
    31   12   47 1   
    32   13   14 ar  
    33   13   48 1   
    34   14   15 1   
    35   15   16 1   
    36   16   17 1   
    37   16   22 2   
    38   17   18 2   
    39   17   19 1   
    40   19   20 1   
    41   19   49 1   
    42   20   21 2   
    43   20   22 1   
    44   22   23 1   
    45   23   24 1   
    46   23   31 2   
    47   24   25 ar  
    48   24   29 ar  
    49   25   26 ar  
    50   25   50 1   
    51   26   27 ar  
    52   26   51 1   
    53   27   28 ar  
    54   27   52 1   
    55   28   29 ar  
    56   28   53 1   
    57   29   30 1   
    58   30   31 1   
    59   30   54 1   
    60   31   55 1   
@<TRIPOS>SUBSTRUCTURE
     1 BI1         1 TEMP              0 ****  ****    0 ROOT
