@<TRIPOS>MOLECULE
BI2
   59    64     1     0     0
SMALL
bcc


@<TRIPOS>ATOM
      1 CBD         2.4190   -1.2560    5.4730 c3        1 BI2      0.155100
      2 NBC         1.2030   -0.4890    5.5890 n3        1 BI2     -0.730600
      3 CBG         0.9160   -0.0270    6.9470 c3        1 BI2      0.160800
      4 CBF         0.7810    1.5020    6.9590 c3        1 BI2     -0.097400
      5 CBE         0.8390    1.9390    5.5030 c3        1 BI2     -0.091400
      6 CBB         1.1440    0.6680    4.6750 c3        1 BI2      0.174500
      7 CBA         0.0780    0.4970    3.5870 c3        1 BI2     -0.094400
      8 CAY         0.4070   -0.6930    2.6840 c3        1 BI2      0.041300
      9 NAH        -0.4340   -0.8240    1.5280 na        1 BI2     -0.065400
     10 CAW        -0.2470   -0.1570    0.3200 cc        1 BI2     -0.070100
     11 CAE        -1.7110   -1.4140    1.5050 ca        1 BI2     -0.053200
     12 CAF        -2.3770   -2.1860    2.4700 ca        1 BI2     -0.140000
     13 CAA        -3.6330   -2.6780    2.1500 ca        1 BI2     -0.115000
     14 CAB        -4.2280   -2.4160    0.9040 ca        1 BI2     -0.151000
     15 CAC        -3.5830   -1.6530   -0.0590 ca        1 BI2     -0.075000
     16 CAD        -2.3150   -1.1400    0.2210 ca        1 BI2     -0.065800
     17 CAG        -1.3570   -0.3390   -0.5220 cd        1 BI2     -0.117200
     18 CAI        -1.4700    0.1900   -1.8380 cd        1 BI2     -0.050200
     19 CAT        -2.7820    0.7210   -2.3890 c         1 BI2      0.705700
     20 OAZ        -3.9040    0.7390   -1.8810 o         1 BI2     -0.570500
     21 NAU        -2.5000    1.2380   -3.6740 n         1 BI2     -0.634500
     22 CAV        -1.1310    1.0690   -3.9840 c         1 BI2      0.706700
     23 OAX        -0.6240    1.4390   -5.0440 o         1 BI2     -0.573500
     24 CAJ        -0.4990    0.3760   -2.7910 cc        1 BI2     -0.060200
     25 CAK         0.8650   -0.0300   -2.7800 cc        1 BI2     -0.110200
     26 CAM         2.0170    0.6330   -3.3670 ca        1 BI2     -0.065800
     27 CAP         2.2080    1.8170   -4.0830 ca        1 BI2     -0.071000
     28 CAQ         3.4900    2.1590   -4.4880 ca        1 BI2     -0.153000
     29 CAR         4.5950    1.3410   -4.1960 ca        1 BI2     -0.111000
     30 CAS         4.4520    0.1550   -3.4910 ca        1 BI2     -0.146000
     31 CAN         3.1610   -0.2020   -3.0750 ca        1 BI2     -0.058200
     32 NAO         2.7180   -1.3100   -2.3410 na        1 BI2     -0.184400
     33 CAL         1.3420   -1.2090   -2.1810 cd        1 BI2     -0.071100
     34 HBD1        3.3500   -0.6810    5.7360 h1        1 BI2      0.031367
     35 HBD2        2.3470   -2.1440    6.1550 h1        1 BI2      0.031367
     36 HBD3        2.5130   -1.6190    4.4160 h1        1 BI2      0.031367
     37 HBG1        1.7050   -0.3550    7.6780 h1        1 BI2      0.046200
     38 HBG2       -0.0550   -0.5040    7.2540 h1        1 BI2      0.046200
     39 HBF1        1.6110    1.9640    7.5480 hc        1 BI2      0.049700
     40 HBF2       -0.1830    1.8050    7.4340 hc        1 BI2      0.049700
     41 HBE1        1.6390    2.7010    5.3410 hc        1 BI2      0.051700
     42 HBE2       -0.1330    2.3940    5.1870 hc        1 BI2      0.051700
     43 HBB         2.1390    0.8070    4.1560 h1        1 BI2      0.037700
     44 HBA1        0.0480    1.4440    2.9860 hc        1 BI2      0.060200
     45 HBA2       -0.9310    0.3530    4.0510 hc        1 BI2      0.060200
     46 HAY1        0.3160   -1.6450    3.2830 h1        1 BI2      0.064700
     47 HAY2        1.4720   -0.5990    2.3250 h1        1 BI2      0.064700
     48 HAW         0.6740    0.3970    0.1170 h4        1 BI2      0.177000
     49 HAF        -1.9180   -2.3860    3.4480 ha        1 BI2      0.138000
     50 HAA        -4.1790   -3.2840    2.8880 ha        1 BI2      0.130000
     51 HAB        -5.2290   -2.8210    0.6950 ha        1 BI2      0.132000
     52 HAC        -4.0650   -1.4310   -1.0230 ha        1 BI2      0.152000
     53 HAU        -3.1660    1.6550   -4.2720 hn        1 BI2      0.346500
     54 HAP         1.3450    2.4510   -4.3380 ha        1 BI2      0.155000
     55 HAQ         3.6500    3.0870   -5.0570 ha        1 BI2      0.133000
     56 HAR         5.5950    1.6480   -4.5390 ha        1 BI2      0.130000
     57 HAS         5.3170   -0.4830   -3.2690 ha        1 BI2      0.132000
     58 HAO         3.2710   -2.0870   -2.0960 hn        1 BI2      0.301700
     59 HAL         0.7750   -1.9740   -1.6420 h4        1 BI2      0.181000
@<TRIPOS>BOND
     1    1    2 1   
     2    1   34 1   
     3    1   35 1   
     4    1   36 1   
     5    2    3 1   
     6    2    6 1   
     7    3    4 1   
     8    3   37 1   
     9    3   38 1   
    10    4    5 1   
    11    4   39 1   
    12    4   40 1   
    13    5    6 1   
    14    5   41 1   
    15    5   42 1   
    16    6    7 1   
    17    6   43 1   
    18    7    8 1   
    19    7   44 1   
    20    7   45 1   
    21    8    9 1   
    22    8   46 1   
    23    8   47 1   
    24    9   10 1   
    25    9   11 1   
    26   10   17 2   
    27   10   48 1   
    28   11   12 ar  
    29   11   16 ar  
    30   12   13 ar  
    31   12   49 1   
    32   13   14 ar  
    33   13   50 1   
    34   14   15 ar  
    35   14   51 1   
    36   15   16 ar  
    37   15   52 1   
    38   16   17 1   
    39   17   18 1   
    40   18   19 1   
    41   18   24 2   
    42   19   20 2   
    43   19   21 1   
    44   21   22 1   
    45   21   53 1   
    46   22   23 2   
    47   22   24 1   
    48   24   25 1   
    49   25   26 1   
    50   25   33 2   
    51   26   27 ar  
    52   26   31 ar  
    53   27   28 ar  
    54   27   54 1   
    55   28   29 ar  
    56   28   55 1   
    57   29   30 ar  
    58   29   56 1   
    59   30   31 ar  
    60   30   57 1   
    61   31   32 1   
    62   32   33 1   
    63   32   58 1   
    64   33   59 1   
@<TRIPOS>SUBSTRUCTURE
     1 BI2         1 TEMP              0 ****  ****    0 ROOT
