@<TRIPOS>MOLECULE
BI2
   59    64     1     0     0
SMALL
bcc


@<TRIPOS>ATOM
      1 CBD        -0.1550    0.7510    0.1860 c3        1 BI2      0.155100
      2 NBC         1.1930    0.2640    0.0270 n3        1 BI2     -0.730600
      3 CBG         1.9060    0.0600    1.2890 c3        1 BI2      0.160800
      4 CBF         2.3840   -1.3960    1.3850 c3        1 BI2     -0.097400
      5 CBE         2.0680   -2.0310    0.0400 c3        1 BI2     -0.091400
      6 CBB         1.2860   -0.9720   -0.7720 c3        1 BI2      0.174500
      7 CBA         1.9800   -0.7440   -2.1190 c3        1 BI2     -0.094400
      8 CAY         1.1760    0.2210   -2.9910 c3        1 BI2      0.041300
      9 NAH         1.6510    0.3570   -4.3400 na        1 BI2     -0.065400
     10 CAW         1.3280   -0.4940   -5.3930 cc        1 BI2     -0.070100
     11 CAE         2.7130    1.1810   -4.7560 ca        1 BI2     -0.053200
     12 CAF         3.4020    2.1950   -4.0740 ca        1 BI2     -0.140000
     13 CAA         4.3930    2.8780   -4.7620 ca        1 BI2     -0.115000
     14 CAB         4.7040    2.5710   -6.0980 ca        1 BI2     -0.151000
     15 CAC         4.0320    1.5690   -6.7840 ca        1 BI2     -0.075000
     16 CAD         3.0260    0.8580   -6.1300 ca        1 BI2     -0.065800
     17 CAG         2.1220   -0.2120   -6.5170 cd        1 BI2     -0.117200
     18 CAI         2.0230   -0.8840   -7.7670 cd        1 BI2     -0.050200
     19 CAT         3.2430   -1.2140   -8.6100 c         1 BI2      0.705700
     20 OAZ         4.4300   -0.9380   -8.4260 o         1 BI2     -0.570500
     21 NAU         2.7770   -1.9500   -9.7240 n         1 BI2     -0.634500
     22 CAV         1.3730   -2.1020   -9.6620 c         1 BI2      0.706700
     23 OAX         0.7170   -2.7080  -10.5110 o         1 BI2     -0.573500
     24 CAJ         0.9150   -1.3900   -8.4020 cc        1 BI2     -0.060200
     25 CAK        -0.4590   -1.2660   -8.0530 cc        1 BI2     -0.110200
     26 CAM        -1.5370   -2.2210   -8.2490 ca        1 BI2     -0.065800
     27 CAP        -1.6240   -3.5060   -8.7870 ca        1 BI2     -0.071000
     28 CAQ        -2.8530   -4.1500   -8.8000 ca        1 BI2     -0.153000
     29 CAR        -4.0080   -3.5360   -8.2840 ca        1 BI2     -0.111000
     30 CAS        -3.9700   -2.2600   -7.7430 ca        1 BI2     -0.146000
     31 CAN        -2.7320   -1.5990   -7.7240 ca        1 BI2     -0.058200
     32 NAO        -2.3870   -0.3340   -7.2310 na        1 BI2     -0.184400
     33 CAL        -1.0290   -0.1350   -7.4430 cd        1 BI2     -0.071100
     34 HBD1       -0.1200    1.7210    0.7490 h1        1 BI2      0.031367
     35 HBD2       -0.5890    0.9400   -0.8320 h1        1 BI2      0.031367
     36 HBD3       -0.8350    0.0450    0.7370 h1        1 BI2      0.031367
     37 HBG1        2.7880    0.7580    1.2800 h1        1 BI2      0.046200
     38 HBG2        1.2700    0.3220    2.1780 h1        1 BI2      0.046200
     39 HBF1        1.8550   -1.9280    2.2130 hc        1 BI2      0.049700
     40 HBF2        3.4790   -1.4330    1.6030 hc        1 BI2      0.049700
     41 HBE1        1.4480   -2.9520    0.1640 hc        1 BI2      0.051700
     42 HBE2        3.0080   -2.3230   -0.4910 hc        1 BI2      0.051700
     43 HBB         0.2520   -1.3760   -0.9890 h1        1 BI2      0.037700
     44 HBA1        2.0750   -1.7390   -2.6290 hc        1 BI2      0.060200
     45 HBA2        3.0130   -0.3400   -1.9610 hc        1 BI2      0.060200
     46 HAY1        0.1050   -0.1300   -3.0380 h1        1 BI2      0.064700
     47 HAY2        1.1930    1.2460   -2.5180 h1        1 BI2      0.064700
     48 HAW         0.5370   -1.2430   -5.2930 h4        1 BI2      0.177000
     49 HAF         3.1670    2.4330   -3.0280 ha        1 BI2      0.138000
     50 HAA         4.9520    3.6770   -4.2520 ha        1 BI2      0.130000
     51 HAB         5.5030    3.1340   -6.6030 ha        1 BI2      0.132000
     52 HAC         4.2980    1.3170   -7.8220 ha        1 BI2      0.152000
     53 HAU         3.3510   -2.3050  -10.4450 hn        1 BI2      0.346500
     54 HAP        -0.7290   -3.9840   -9.2160 ha        1 BI2      0.155000
     55 HAQ        -2.9320   -5.1610   -9.2260 ha        1 BI2      0.133000
     56 HAR        -4.9630   -4.0810   -8.3160 ha        1 BI2      0.130000
     57 HAS        -4.8740   -1.7820   -7.3460 ha        1 BI2      0.132000
     58 HAO        -3.0250    0.3430   -6.9080 hn        1 BI2      0.301700
     59 HAL        -0.5360    0.7940   -7.1430 h4        1 BI2      0.181000
@<TRIPOS>BOND
     1    1    2 1   
     2    1   34 1   
     3    1   35 1   
     4    1   36 1   
     5    2    3 1   
     6    2    6 1   
     7    3    4 1   
     8    3   37 1   
     9    3   38 1   
    10    4    5 1   
    11    4   39 1   
    12    4   40 1   
    13    5    6 1   
    14    5   41 1   
    15    5   42 1   
    16    6    7 1   
    17    6   43 1   
    18    7    8 1   
    19    7   44 1   
    20    7   45 1   
    21    8    9 1   
    22    8   46 1   
    23    8   47 1   
    24    9   10 1   
    25    9   11 1   
    26   10   17 2   
    27   10   48 1   
    28   11   12 ar  
    29   11   16 ar  
    30   12   13 ar  
    31   12   49 1   
    32   13   14 ar  
    33   13   50 1   
    34   14   15 ar  
    35   14   51 1   
    36   15   16 ar  
    37   15   52 1   
    38   16   17 1   
    39   17   18 1   
    40   18   19 1   
    41   18   24 2   
    42   19   20 2   
    43   19   21 1   
    44   21   22 1   
    45   21   53 1   
    46   22   23 2   
    47   22   24 1   
    48   24   25 1   
    49   25   26 1   
    50   25   33 2   
    51   26   27 ar  
    52   26   31 ar  
    53   27   28 ar  
    54   27   54 1   
    55   28   29 ar  
    56   28   55 1   
    57   29   30 ar  
    58   29   56 1   
    59   30   31 ar  
    60   30   57 1   
    61   31   32 1   
    62   32   33 1   
    63   32   58 1   
    64   33   59 1   
@<TRIPOS>SUBSTRUCTURE
     1 BI2         1 TEMP              0 ****  ****    0 ROOT
