@<TRIPOS>MOLECULE
BI2
   59    64     1     0     0
SMALL
bcc


@<TRIPOS>ATOM
      1 CBD        -0.1490    0.7950    0.1740 c3        1 BI2      0.155100
      2 NBC         1.2000    0.3090    0.0180 n3        1 BI2     -0.730600
      3 CBG         1.9150    0.1200    1.2810 c3        1 BI2      0.160800
      4 CBF         2.3970   -1.3330    1.3920 c3        1 BI2     -0.097400
      5 CBE         2.0810   -1.9840    0.0540 c3        1 BI2     -0.091400
      6 CBB         1.2950   -0.9350   -0.7680 c3        1 BI2      0.174500
      7 CBA         1.9870   -0.7200   -2.1190 c3        1 BI2     -0.094400
      8 CAY         1.1790    0.2350   -2.9990 c3        1 BI2      0.041300
      9 NAH         1.6520    0.3570   -4.3500 na        1 BI2     -0.065400
     10 CAW         1.3270   -0.5040   -5.3950 cc        1 BI2     -0.070100
     11 CAE         2.7140    1.1760   -4.7760 ca        1 BI2     -0.053200
     12 CAF         3.4060    2.1960   -4.1040 ca        1 BI2     -0.140000
     13 CAA         4.3960    2.8720   -4.8010 ca        1 BI2     -0.115000
     14 CAB         4.7050    2.5510   -6.1340 ca        1 BI2     -0.151000
     15 CAC         4.0310    1.5440   -6.8100 ca        1 BI2     -0.075000
     16 CAD         3.0250    0.8400   -6.1470 ca        1 BI2     -0.065800
     17 CAG         2.1190   -0.2330   -6.5230 cd        1 BI2     -0.116200
     18 CAI         2.0180   -0.9160   -7.7660 cd        1 BI2     -0.050200
     19 CAT         3.2350   -1.2560   -8.6080 c         1 BI2      0.705700
     20 OAZ         4.4230   -0.9800   -8.4280 o         1 BI2     -0.570500
     21 NAU         2.7670   -2.0010   -9.7140 ns        1 BI2     -0.634500
     22 CAV         1.3630   -2.1500   -9.6480 c         1 BI2      0.706700
     23 OAX         0.7050   -2.7630  -10.4910 o         1 BI2     -0.573500
     24 CAJ         0.9080   -1.4260   -8.3950 cc        1 BI2     -0.060200
     25 CAK        -0.4660   -1.2980   -8.0450 cc        1 BI2     -0.110200
     26 CAM        -1.5460   -2.2520   -8.2310 ca        1 BI2     -0.065800
     27 CAP        -1.6350   -3.5420   -8.7580 ca        1 BI2     -0.071000
     28 CAQ        -2.8660   -4.1830   -8.7620 ca        1 BI2     -0.153000
     29 CAR        -4.0190   -3.5630   -8.2510 ca        1 BI2     -0.111000
     30 CAS        -3.9780   -2.2820   -7.7210 ca        1 BI2     -0.146000
     31 CAN        -2.7390   -1.6230   -7.7100 ca        1 BI2     -0.058200
     32 NAO        -2.3910   -0.3540   -7.2280 na        1 BI2     -0.184400
     33 CAL        -1.0330   -0.1600   -7.4450 cd        1 BI2     -0.071100
     34 HBD1       -0.1160    1.7710    0.7260 h1        1 BI2      0.031367
     35 HBD2       -0.8270    0.0930    0.7320 h1        1 BI2      0.031367
     36 HBD3       -0.5840    0.9720   -0.8460 h1        1 BI2      0.031367
     37 HBG1        1.2790    0.3900    2.1680 h1        1 BI2      0.046200
     38 HBG2        2.7950    0.8200    1.2640 h1        1 BI2      0.046200
     39 HBF1        3.4920   -1.3660    1.6100 hc        1 BI2      0.049700
     40 HBF2        1.8690   -1.8580    2.2270 hc        1 BI2      0.049700
     41 HBE1        3.0200   -2.2790   -0.4750 hc        1 BI2      0.051700
     42 HBE2        1.4630   -2.9040    0.1880 hc        1 BI2      0.051700
     43 HBB         0.2620   -1.3430   -0.9790 h1        1 BI2      0.037700
     44 HBA1        3.0190   -0.3110   -1.9660 hc        1 BI2      0.060200
     45 HBA2        2.0830   -1.7200   -2.6180 hc        1 BI2      0.060200
     46 HAY1        0.1090   -0.1190   -3.0410 h1        1 BI2      0.064700
     47 HAY2        1.1960    1.2640   -2.5370 h1        1 BI2      0.064700
     48 HAW         0.5350   -1.2500   -5.2860 h4        1 BI2      0.177000
     49 HAF         3.1720    2.4440   -3.0600 ha        1 BI2      0.138000
     50 HAA         4.9570    3.6750   -4.3000 ha        1 BI2      0.130000
     51 HAB         5.5030    3.1090   -6.6460 ha        1 BI2      0.132000
     52 HAC         4.2940    1.2820   -7.8460 ha        1 BI2      0.152000
     53 HAU         3.3390   -2.3630  -10.4320 hn        1 BI2      0.346500
     54 HAP        -0.7420   -4.0250   -9.1830 ha        1 BI2      0.155000
     55 HAQ        -2.9470   -5.1980   -9.1800 ha        1 BI2      0.133000
     56 HAR        -4.9750   -4.1060   -8.2770 ha        1 BI2      0.130000
     57 HAS        -4.8810   -1.7990   -7.3270 ha        1 BI2      0.132000
     58 HAO        -3.0270    0.3270   -6.9100 hn        1 BI2      0.301700
     59 HAL        -0.5380    0.7710   -7.1530 h4        1 BI2      0.181000
@<TRIPOS>BOND
     1    1    2 1   
     2    1   34 1   
     3    1   35 1   
     4    1   36 1   
     5    2    3 1   
     6    2    6 1   
     7    3    4 1   
     8    3   37 1   
     9    3   38 1   
    10    4    5 1   
    11    4   39 1   
    12    4   40 1   
    13    5    6 1   
    14    5   41 1   
    15    5   42 1   
    16    6    7 1   
    17    6   43 1   
    18    7    8 1   
    19    7   44 1   
    20    7   45 1   
    21    8    9 1   
    22    8   46 1   
    23    8   47 1   
    24    9   10 1   
    25    9   11 1   
    26   10   17 2   
    27   10   48 1   
    28   11   12 ar  
    29   11   16 ar  
    30   12   13 ar  
    31   12   49 1   
    32   13   14 ar  
    33   13   50 1   
    34   14   15 ar  
    35   14   51 1   
    36   15   16 ar  
    37   15   52 1   
    38   16   17 1   
    39   17   18 1   
    40   18   19 1   
    41   18   24 2   
    42   19   20 2   
    43   19   21 1   
    44   21   22 1   
    45   21   53 1   
    46   22   23 2   
    47   22   24 1   
    48   24   25 1   
    49   25   26 1   
    50   25   33 2   
    51   26   27 ar  
    52   26   31 ar  
    53   27   28 ar  
    54   27   54 1   
    55   28   29 ar  
    56   28   55 1   
    57   29   30 ar  
    58   29   56 1   
    59   30   31 ar  
    60   30   57 1   
    61   31   32 1   
    62   32   33 1   
    63   32   58 1   
    64   33   59 1   
@<TRIPOS>SUBSTRUCTURE
     1 BI2         1 TEMP              0 ****  ****    0 ROOT
