@<TRIPOS>MOLECULE
BI2
   59    64     1     0     0
SMALL
bcc


@<TRIPOS>ATOM
      1 CBD        -0.1610    0.7530    0.1830 c3        1 BI2      0.155100
      2 NBC         1.1930    0.2790    0.0250 n3        1 BI2     -0.730600
      3 CBG         1.9090    0.0900    1.2860 c3        1 BI2      0.160800
      4 CBF         2.4040   -1.3600    1.3910 c3        1 BI2     -0.097400
      5 CBE         2.0920   -2.0070    0.0500 c3        1 BI2     -0.091400
      6 CBB         1.2980   -0.9610   -0.7680 c3        1 BI2      0.174500
      7 CBA         1.9880   -0.7330   -2.1170 c3        1 BI2     -0.094400
      8 CAY         1.1730    0.2190   -2.9930 c3        1 BI2      0.041300
      9 NAH         1.6460    0.3540   -4.3420 na        1 BI2     -0.065400
     10 CAW         1.3250   -0.5000   -5.3940 cc        1 BI2     -0.070100
     11 CAE         2.7060    1.1800   -4.7610 ca        1 BI2     -0.053200
     12 CAF         3.3930    2.1960   -4.0810 ca        1 BI2     -0.140000
     13 CAA         4.3810    2.8820   -4.7720 ca        1 BI2     -0.115000
     14 CAB         4.6920    2.5730   -6.1070 ca        1 BI2     -0.151000
     15 CAC         4.0220    1.5690   -6.7910 ca        1 BI2     -0.075000
     16 CAD         3.0180    0.8550   -6.1350 ca        1 BI2     -0.065800
     17 CAG         2.1170   -0.2180   -6.5190 cd        1 BI2     -0.116200
     18 CAI         2.0190   -0.8920   -7.7680 cd        1 BI2     -0.050200
     19 CAT         3.2390   -1.2210   -8.6110 c         1 BI2      0.705700
     20 OAZ         4.4250   -0.9420   -8.4280 o         1 BI2     -0.570500
     21 NAU         2.7740   -1.9600   -9.7230 n         1 BI2     -0.634500
     22 CAV         1.3710   -2.1140   -9.6600 c         1 BI2      0.706700
     23 OAX         0.7160   -2.7230  -10.5080 o         1 BI2     -0.573500
     24 CAJ         0.9110   -1.4010   -8.4020 cc        1 BI2     -0.060200
     25 CAK        -0.4630   -1.2790   -8.0520 cc        1 BI2     -0.110200
     26 CAM        -1.5390   -2.2360   -8.2460 ca        1 BI2     -0.065800
     27 CAP        -1.6230   -3.5230   -8.7820 ca        1 BI2     -0.071000
     28 CAQ        -2.8510   -4.1690   -8.7920 ca        1 BI2     -0.153000
     29 CAR        -4.0070   -3.5570   -8.2780 ca        1 BI2     -0.111000
     30 CAS        -3.9710   -2.2800   -7.7400 ca        1 BI2     -0.146000
     31 CAN        -2.7350   -1.6160   -7.7220 ca        1 BI2     -0.058200
     32 NAO        -2.3920   -0.3490   -7.2320 na        1 BI2     -0.184400
     33 CAL        -1.0350   -0.1480   -7.4450 cd        1 BI2     -0.071100
     34 HBD1       -0.8320    0.0420    0.7390 h1        1 BI2      0.031367
     35 HBD2       -0.1350    1.7260    0.7400 h1        1 BI2      0.031367
     36 HBD3       -0.5980    0.9310   -0.8350 h1        1 BI2      0.031367
     37 HBG1        1.2720    0.3500    2.1750 h1        1 BI2      0.046200
     38 HBG2        2.7840    0.7970    1.2720 h1        1 BI2      0.046200
     39 HBF1        3.4990   -1.3840    1.6070 hc        1 BI2      0.049700
     40 HBF2        1.8820   -1.8930    2.2230 hc        1 BI2      0.049700
     41 HBE1        3.0340   -2.2920   -0.4810 hc        1 BI2      0.051700
     42 HBE2        1.4810   -2.9330    0.1800 hc        1 BI2      0.051700
     43 HBB         0.2680   -1.3760   -0.9810 h1        1 BI2      0.037700
     44 HBA1        3.0170   -0.3170   -1.9620 hc        1 BI2      0.060200
     45 HBA2        2.0920   -1.7300   -2.6210 hc        1 BI2      0.060200
     46 HAY1        0.1060   -0.1440   -3.0380 h1        1 BI2      0.064700
     47 HAY2        1.1800    1.2460   -2.5250 h1        1 BI2      0.064700
     48 HAW         0.5360   -1.2510   -5.2920 h4        1 BI2      0.177000
     49 HAF         3.1580    2.4360   -3.0350 ha        1 BI2      0.138000
     50 HAA         4.9390    3.6830   -4.2630 ha        1 BI2      0.130000
     51 HAB         5.4890    3.1370   -6.6140 ha        1 BI2      0.132000
     52 HAC         4.2880    1.3150   -7.8290 ha        1 BI2      0.152000
     53 HAU         3.3480   -2.3140  -10.4440 hn        1 BI2      0.346500
     54 HAP        -0.7280   -4.0000   -9.2090 ha        1 BI2      0.155000
     55 HAQ        -2.9280   -5.1810   -9.2160 ha        1 BI2      0.133000
     56 HAR        -4.9610   -4.1040   -8.3080 ha        1 BI2      0.130000
     57 HAS        -4.8770   -1.8030   -7.3430 ha        1 BI2      0.132000
     58 HAO        -3.0320    0.3280   -6.9100 hn        1 BI2      0.301700
     59 HAL        -0.5440    0.7830   -7.1470 h4        1 BI2      0.181000
@<TRIPOS>BOND
     1    1    2 1   
     2    1   34 1   
     3    1   35 1   
     4    1   36 1   
     5    2    3 1   
     6    2    6 1   
     7    3    4 1   
     8    3   37 1   
     9    3   38 1   
    10    4    5 1   
    11    4   39 1   
    12    4   40 1   
    13    5    6 1   
    14    5   41 1   
    15    5   42 1   
    16    6    7 1   
    17    6   43 1   
    18    7    8 1   
    19    7   44 1   
    20    7   45 1   
    21    8    9 1   
    22    8   46 1   
    23    8   47 1   
    24    9   10 1   
    25    9   11 1   
    26   10   17 2   
    27   10   48 1   
    28   11   12 ar  
    29   11   16 ar  
    30   12   13 ar  
    31   12   49 1   
    32   13   14 ar  
    33   13   50 1   
    34   14   15 ar  
    35   14   51 1   
    36   15   16 ar  
    37   15   52 1   
    38   16   17 1   
    39   17   18 1   
    40   18   19 1   
    41   18   24 2   
    42   19   20 2   
    43   19   21 1   
    44   21   22 1   
    45   21   53 1   
    46   22   23 2   
    47   22   24 1   
    48   24   25 1   
    49   25   26 1   
    50   25   33 2   
    51   26   27 ar  
    52   26   31 ar  
    53   27   28 ar  
    54   27   54 1   
    55   28   29 ar  
    56   28   55 1   
    57   29   30 ar  
    58   29   56 1   
    59   30   31 ar  
    60   30   57 1   
    61   31   32 1   
    62   32   33 1   
    63   32   58 1   
    64   33   59 1   
@<TRIPOS>SUBSTRUCTURE
     1 BI2         1 TEMP              0 ****  ****    0 ROOT
