@<TRIPOS>MOLECULE
BI2
   59    52     1     0     0
SMALL
bcc


@<TRIPOS>ATOM
      1 CBD         0.6970    0.5100    6.0970 c3        1 BI2     -0.118000
      2 NBC         1.0500   -0.7310    5.4980 n3        1 BI2     -0.254000
      3 CBG         0.7100   -1.7090    6.2950 c3        1 BI2     -0.073000
      4 CBF         0.2620   -2.8730    5.3470 c3        1 BI2     -0.171000
      5 CBE         0.1370   -2.2360    3.9500 c3        1 BI2     -0.169000
      6 CBB         0.2050   -0.9290    4.1630 c3        1 BI2     -0.019000
      7 CBA         0.9140   -0.2250    2.9830 c3        1 BI2     -0.178000
      8 CAY        -0.1340    0.2850    1.9980 c3        1 BI2     -0.021000
      9 NAH         0.4650    0.4720    0.6960 n3        1 BI2     -0.156000
     10 CAW         0.3410   -0.4930   -0.2920 c1        1 BI2     -0.013500
     11 CAE         1.1130    1.5700    0.1480 c1        1 BI2     -0.013500
     12 CAF         1.5520    2.8070    0.7210 c1        1 BI2     -0.121000
     13 CAA         2.2500    3.7110   -0.0470 c1        1 BI2     -0.121000
     14 CAB         2.5300    3.4180   -1.3900 c1        1 BI2     -0.121000
     15 CAC         2.0930    2.1910   -1.9550 c1        1 BI2     -0.121000
     16 CAD         1.3900    1.2820   -1.1800 c1        1 BI2     -0.094000
     17 CAG         0.9110    0.0040   -1.4500 c1        1 BI2     -0.094000
     18 CAI         0.3040   -1.2530   -2.1720 c1        1 BI2     -0.024000
     19 CAT         1.3120   -2.5720   -2.1530 c2        1 BI2      0.338000
     20 OAZ         0.9050   -3.6560   -2.4980 o         1 BI2     -0.312000
     21 NAU         2.2490   -2.1090   -2.9490 n         1 BI2     -0.407000
     22 CAV         1.3610   -1.1530   -3.9720 c2        1 BI2      0.339000
     23 OAX         1.4480   -1.1290   -5.1580 o         1 BI2     -0.313000
     24 CAJ         0.1410   -0.9680   -3.2060 c2        1 BI2     -0.032000
     25 CAK        -0.8240    0.2050   -3.5520 c2        1 BI2     -0.134000
     26 CAM        -2.1580    0.0840   -4.0200 c1        1 BI2     -0.051000
     27 CAP        -3.1260   -0.9390   -3.8800 c1        1 BI2     -0.121000
     28 CAQ        -4.3800   -0.7960   -4.4720 c1        1 BI2     -0.121000
     29 CAR        -4.6810    0.3540   -5.2020 c1        1 BI2     -0.121000
     30 CAS        -3.7300    1.3600   -5.3400 c1        1 BI2     -0.121000
     31 CAN        -2.4570    1.2170   -4.7410 c1        1 BI2     -0.014000
     32 NAO        -1.3340    2.0440   -4.7330 n1        1 BI2     -0.205000
     33 CAL        -0.3290    1.4060   -3.9930 c1        1 BI2     -0.023000
     34 HBD1       -0.2910    0.5300    6.2660 h1        1 BI2      0.071333
     35 HBD2        0.9550    1.2900    5.4620 h1        1 BI2      0.071333
     36 HBD3        1.1920    0.6120    6.9730 h1        1 BI2      0.071333
     37 HBG1        1.5280   -2.0050    6.8720 h1        1 BI2      0.082500
     38 HBG2       -0.0430   -1.4290    6.8810 h1        1 BI2      0.082500
     39 HBF1        0.9690   -3.6090    5.3360 hc        1 BI2      0.088000
     40 HBF2       -0.6540   -3.2570    5.6530 hc        1 BI2      0.088000
     41 HBE1       -0.6970   -2.4610    3.5570 hc        1 BI2      0.088000
     42 HBE2        0.9080   -2.5400    3.3500 hc        1 BI2      0.088000
     43 HBB        -0.7400   -0.5430    4.2860 h1        1 BI2      0.068000
     44 HBA1        1.5120   -0.8560    2.5330 hc        1 BI2      0.106000
     45 HBA2        1.4480    0.5500    3.3310 hc        1 BI2      0.106000
     46 HAY1       -0.4890    1.1390    2.3170 h1        1 BI2      0.098500
     47 HAY2       -0.8250   -0.3340    1.9360 h1        1 BI2      0.098500
     48 HAW        -0.1370   -1.3620   -0.2040 DU        1 BI2      0.210000
     49 HAF         1.3440    3.0190    1.6990 ha        1 BI2      0.134875
     50 HAA         2.5640    4.5910    0.3600 ha        1 BI2      0.134875
     51 HAB         3.0150    4.0460   -1.9270 ha        1 BI2      0.134875
     52 HAC         2.2810    1.9940   -2.8530 ha        1 BI2      0.134875
     53 HAU         3.0190   -2.5170   -3.1470 hn        1 BI2      0.260000
     54 HAP        -2.9020   -1.7980   -3.3360 ha        1 BI2      0.134875
     55 HAQ        -5.0140   -1.4650   -4.3810 ha        1 BI2      0.134875
     56 HAR        -5.5170    0.4480   -5.5970 ha        1 BI2      0.134875
     57 HAS        -3.9560    2.2240   -5.8860 ha        1 BI2      0.134875
     58 HAO        -1.2650    2.8550   -5.1360 DU        1 BI2      0.210000
     59 HAL         0.6060    1.7260   -3.8840 DU        1 BI2      0.210000
@<TRIPOS>BOND
     1    1    2 1   
     2    1   34 1   
     3    1   35 1   
     4    1   36 1   
     5    2    3 1   
     6    2    6 1   
     7    3    4 1   
     8    3   37 1   
     9    3   38 1   
    10    4    5 1   
    11    4   39 1   
    12    4   40 1   
    13    5    6 1   
    14    5   41 1   
    15    5   42 1   
    16    6    7 1   
    17    6   43 1   
    18    7    8 1   
    19    7   44 1   
    20    7   45 1   
    21    8    9 1   
    22    8   46 1   
    23    8   47 1   
    24    9   10 1   
    25    9   11 1   
    26   10   17 1   
    27   11   16 1   
    28   12   13 1   
    29   12   49 1   
    30   13   50 1   
    31   14   15 1   
    32   14   51 1   
    33   15   52 1   
    34   18   19 1   
    35   18   24 1   
    36   19   20 1   
    37   19   21 1   
    38   21   22 1   
    39   21   53 1   
    40   22   23 1   
    41   22   24 1   
    42   24   25 1   
    43   25   26 1   
    44   25   33 1   
    45   26   31 1   
    46   27   28 1   
    47   27   54 1   
    48   28   55 1   
    49   29   30 1   
    50   29   56 1   
    51   30   57 1   
    52   32   33 1   
@<TRIPOS>SUBSTRUCTURE
     1 BI2         1 TEMP              0 ****  ****    0 ROOT
