@<TRIPOS>MOLECULE
BI3
   50    54     1     0     0
SMALL
bcc


@<TRIPOS>ATOM
      1 NBC         1.2700   -0.2850    3.2140 nz        1 BI3     -0.844600
      2 CBB         1.0340   -0.5640    1.7720 c3        1 BI3      0.109800
      3 CBA         1.8300    0.3180    0.8220 c3        1 BI3     -0.142400
      4 CAY         3.2500   -0.1860    0.5380 c3        1 BI3      0.025300
      5 NAH         4.1140   -0.2820    1.6770 na        1 BI3     -0.078400
      6 CAW         4.0870   -1.3800    2.5590 cc        1 BI3     -0.160100
      7 CAE         4.5980    0.8300    2.4000 ca        1 BI3     -0.072200
      8 CAF         4.8160    2.1550    1.9970 ca        1 BI3     -0.145000
      9 CAA         5.3730    3.0290    2.9210 ca        1 BI3     -0.093000
     10 CAB         5.7120    2.6100    4.2190 ca        1 BI3     -0.138000
     11 CAC         5.5050    1.3010    4.6320 ca        1 BI3     -0.070000
     12 CAD         4.9410    0.3950    3.7330 ca        1 BI3     -0.101800
     13 CAG         4.5910   -1.0160    3.8100 cd        1 BI3     -0.045200
     14 CAI         4.6240   -1.8510    4.9680 cd        1 BI3     -0.197200
     15 CAT         3.3040   -2.2360    5.5890 c         1 BI3      0.740700
     16 OAZ         2.1600   -1.9400    5.1920 o         1 BI3     -0.710500
     17 NAU         3.5750   -2.9970    6.7330 ns        1 BI3     -0.606500
     18 CAV         4.9770   -3.1220    6.8990 c         1 BI3      0.687700
     19 OAX         5.5050   -3.7190    7.8360 o         1 BI3     -0.542500
     20 CAJ         5.6380   -2.3870    5.7210 cc        1 BI3      0.080800
     21 CAK         7.0420   -2.3880    5.6130 cc        1 BI3     -0.178200
     22 CAM         7.9000   -2.1010    4.4720 ca        1 BI3     -0.044800
     23 CAP         7.6870   -1.7650    3.1350 ca        1 BI3     -0.099000
     24 CAQ         8.7800   -1.5830    2.2980 ca        1 BI3     -0.128000
     25 CAR        10.0960   -1.7350    2.7640 ca        1 BI3     -0.111000
     26 CAS        10.3570   -2.0810    4.0820 ca        1 BI3     -0.119000
     27 CAN         9.2600   -2.2690    4.9320 ca        1 BI3     -0.072200
     28 NAO         9.2220   -2.6400    6.2890 na        1 BI3     -0.151400
     29 CAL         7.9120   -2.7230    6.6880 cd        1 BI3     -0.000100
     30 HBC1        1.2090    0.7180    3.4030 hn        1 BI3      0.469800
     31 HBC2        2.2030   -0.6270    3.5250 hn        1 BI3      0.469800
     32 HBB1        1.2860   -1.6500    1.5940 hx        1 BI3      0.104700
     33 HBB2       -0.0690   -0.4140    1.5790 hx        1 BI3      0.104700
     34 HBA1        1.2800    0.3260   -0.1600 hc        1 BI3      0.090200
     35 HBA2        1.8670    1.3790    1.1880 hc        1 BI3      0.090200
     36 HAY1        3.1920   -1.2050    0.0570 h1        1 BI3      0.088200
     37 HAY2        3.7260    0.5260   -0.1990 h1        1 BI3      0.088200
     38 HAW         3.7850   -2.3700    2.2050 h4        1 BI3      0.182000
     39 HAF         4.5750    2.4860    0.9770 ha        1 BI3      0.143000
     40 HAA         5.5630    4.0740    2.6290 ha        1 BI3      0.150000
     41 HAB         6.1620    3.3370    4.9140 ha        1 BI3      0.151000
     42 HAC         5.7930    0.9730    5.6420 ha        1 BI3      0.152000
     43 HAU         2.8960   -3.3810    7.3430 hn        1 BI3      0.360500
     44 HAP         6.6640   -1.6420    2.7510 ha        1 BI3      0.143000
     45 HAQ         8.6160   -1.3150    1.2430 ha        1 BI3      0.138000
     46 HAR        10.9350   -1.5810    2.0680 ha        1 BI3      0.145000
     47 HAS        11.3870   -2.2080    4.4440 ha        1 BI3      0.147000
     48 HAO        10.0160   -2.8270    6.8470 hn        1 BI3      0.318700
     49 HAL         7.6380   -3.0170    7.7110 h4        1 BI3      0.204000
     50 HBC3        0.5780   -0.7810    3.7900 hn        1 BI3      0.469800
@<TRIPOS>BOND
     1    1    2 1   
     2    1   30 1   
     3    1   31 1   
     4    1   50 1   
     5    2    3 1   
     6    2   32 1   
     7    2   33 1   
     8    3    4 1   
     9    3   34 1   
    10    3   35 1   
    11    4    5 1   
    12    4   36 1   
    13    4   37 1   
    14    5    6 1   
    15    5    7 1   
    16    6   13 2   
    17    6   38 1   
    18    7    8 ar  
    19    7   12 ar  
    20    8    9 ar  
    21    8   39 1   
    22    9   10 ar  
    23    9   40 1   
    24   10   11 ar  
    25   10   41 1   
    26   11   12 ar  
    27   11   42 1   
    28   12   13 1   
    29   13   14 1   
    30   14   15 1   
    31   14   20 2   
    32   15   16 2   
    33   15   17 1   
    34   17   18 1   
    35   17   43 1   
    36   18   19 2   
    37   18   20 1   
    38   20   21 1   
    39   21   22 1   
    40   21   29 2   
    41   22   23 ar  
    42   22   27 ar  
    43   23   24 ar  
    44   23   44 1   
    45   24   25 ar  
    46   24   45 1   
    47   25   26 ar  
    48   25   46 1   
    49   26   27 ar  
    50   26   47 1   
    51   27   28 1   
    52   28   29 1   
    53   28   48 1   
    54   29   49 1   
@<TRIPOS>SUBSTRUCTURE
     1 BI3         1 TEMP              0 ****  ****    0 ROOT
