@<TRIPOS>MOLECULE
BI3
   49    53     1     0     0
SMALL
bcc


@<TRIPOS>ATOM
      1 NBC         3.2420    1.6680    5.3000 n3        1 BI3     -0.915800
      2 CBB         3.0620    0.5990    4.3480 c3        1 BI3      0.162800
      3 CBA         1.6920    0.6230    3.6730 c3        1 BI3     -0.110400
      4 CAY         1.5570   -0.6190    2.7880 c3        1 BI3      0.041300
      5 NAH         0.3280   -0.7050    2.0530 na        1 BI3     -0.064400
      6 CAW         0.1350   -0.2710    0.7480 cc        1 BI3     -0.046100
      7 CAE        -0.9190   -1.0950    2.5760 ca        1 BI3     -0.055200
      8 CAF        -1.2540   -1.6020    3.8390 ca        1 BI3     -0.140000
      9 CAA        -2.5790   -1.9440    4.0670 ca        1 BI3     -0.115000
     10 CAB        -3.5550   -1.7890    3.0700 ca        1 BI3     -0.150000
     11 CAC        -3.2360   -1.2850    1.8160 ca        1 BI3     -0.078000
     12 CAD        -1.9170   -0.9230    1.5430 ca        1 BI3     -0.057800
     13 CAG        -1.2190   -0.3950    0.3810 cd        1 BI3     -0.129200
     14 CAI        -1.7200   -0.0770   -0.9090 cd        1 BI3     -0.000200
     15 CAT        -3.1560    0.3680   -1.1670 c         1 BI3      0.701700
     16 OAZ        -4.0810    0.5480   -0.3730 o         1 BI3     -0.570500
     17 NAU        -3.2730    0.5810   -2.5580 n         1 BI3     -0.634500
     18 CAV        -2.0390    0.3180   -3.2010 c         1 BI3      0.702700
     19 OAX        -1.8650    0.4050   -4.4170 o         1 BI3     -0.568500
     20 CAJ        -1.0650   -0.0820   -2.1120 cc        1 BI3     -0.099200
     21 CAK         0.2920   -0.3950   -2.4370 cc        1 BI3     -0.104200
     22 CAM         1.4520    0.4620   -2.2730 ca        1 BI3     -0.080800
     23 CAP         1.6520    1.7510   -1.7740 ca        1 BI3     -0.093000
     24 CAQ         2.9340    2.2810   -1.7780 ca        1 BI3     -0.154000
     25 CAR         4.0280    1.5480   -2.2730 ca        1 BI3     -0.116000
     26 CAS         3.8740    0.2670   -2.7800 ca        1 BI3     -0.141000
     27 CAN         2.5820   -0.2820   -2.7850 ca        1 BI3     -0.051200
     28 NAO         2.1210   -1.5290   -3.2200 na        1 BI3     -0.187400
     29 CAL         0.7420   -1.5800   -3.0300 cd        1 BI3     -0.058100
     30 HBC1        3.0070    2.5540    4.9010 hn        1 BI3      0.353300
     31 HBC2        4.1870    1.6900    5.6250 hn        1 BI3      0.353300
     32 HBB1        3.8510    0.6020    3.5370 h1        1 BI3      0.024700
     33 HBB2        3.1760   -0.3710    4.9130 h1        1 BI3      0.024700
     34 HBA1        0.8790    0.6300    4.4450 hc        1 BI3      0.063200
     35 HBA2        1.5810    1.5520    3.0570 hc        1 BI3      0.063200
     36 HAY1        2.4070   -0.6370    2.0460 h1        1 BI3      0.062200
     37 HAY2        1.6350   -1.5380    3.4380 h1        1 BI3      0.062200
     38 HAW         0.9690    0.0950    0.1380 h4        1 BI3      0.187000
     39 HAF        -0.4920   -1.7200    4.6210 ha        1 BI3      0.134000
     40 HAA        -2.8730   -2.3420    5.0500 ha        1 BI3      0.131000
     41 HAB        -4.5950   -2.0710    3.2920 ha        1 BI3      0.133000
     42 HAC        -4.0170   -1.1570    1.0500 ha        1 BI3      0.157000
     43 HAU        -4.0960    0.8810   -3.0130 hn        1 BI3      0.345500
     44 HAP         0.8000    2.3330   -1.3950 ha        1 BI3      0.140000
     45 HAQ         3.1040    3.2980   -1.3940 ha        1 BI3      0.132000
     46 HAR         5.0270    2.0090   -2.2610 ha        1 BI3      0.132000
     47 HAS         4.7310   -0.2970   -3.1710 ha        1 BI3      0.134000
     48 HAO         2.6630   -2.2030   -3.6900 hn        1 BI3      0.302700
     49 HAL         0.1690   -2.4640   -3.3210 h4        1 BI3      0.176000
@<TRIPOS>BOND
     1    1    2 1   
     2    1   30 1   
     3    1   31 1   
     4    2    3 1   
     5    2   32 1   
     6    2   33 1   
     7    3    4 1   
     8    3   34 1   
     9    3   35 1   
    10    4    5 1   
    11    4   36 1   
    12    4   37 1   
    13    5    6 1   
    14    5    7 1   
    15    6   13 2   
    16    6   38 1   
    17    7    8 ar  
    18    7   12 ar  
    19    8    9 ar  
    20    8   39 1   
    21    9   10 ar  
    22    9   40 1   
    23   10   11 ar  
    24   10   41 1   
    25   11   12 ar  
    26   11   42 1   
    27   12   13 1   
    28   13   14 1   
    29   14   15 1   
    30   14   20 2   
    31   15   16 2   
    32   15   17 1   
    33   17   18 1   
    34   17   43 1   
    35   18   19 2   
    36   18   20 1   
    37   20   21 1   
    38   21   22 1   
    39   21   29 2   
    40   22   23 ar  
    41   22   27 ar  
    42   23   24 ar  
    43   23   44 1   
    44   24   25 ar  
    45   24   45 1   
    46   25   26 ar  
    47   25   46 1   
    48   26   27 ar  
    49   26   47 1   
    50   27   28 1   
    51   28   29 1   
    52   28   48 1   
    53   29   49 1   
@<TRIPOS>SUBSTRUCTURE
     1 BI3         1 TEMP              0 ****  ****    0 ROOT
