@<TRIPOS>MOLECULE
BI3
   50    54     1     0     0
SMALL
bcc


@<TRIPOS>ATOM
      1 NBC         1.2640   -0.2610    3.2650 n4        1 BI3     -0.844600
      2 CBB         1.0080   -0.5310    1.8250 c3        1 BI3      0.109800
      3 CBA         1.7990    0.3490    0.8680 c3        1 BI3     -0.142400
      4 CAY         3.2110   -0.1640    0.5650 c3        1 BI3      0.025300
      5 NAH         4.0880   -0.2710    1.6920 na        1 BI3     -0.078400
      6 CAW         4.0650   -1.3730    2.5690 cc        1 BI3     -0.160100
      7 CAE         4.5890    0.8340    2.4140 ca        1 BI3     -0.073200
      8 CAF         4.8100    2.1600    2.0150 ca        1 BI3     -0.145000
      9 CAA         5.3840    3.0250    2.9370 ca        1 BI3     -0.093000
     10 CAB         5.7370    2.5980    4.2280 ca        1 BI3     -0.138000
     11 CAC         5.5260    1.2880    4.6370 ca        1 BI3     -0.070000
     12 CAD         4.9450    0.3900    3.7410 ca        1 BI3     -0.101800
     13 CAG         4.5870   -1.0180    3.8150 cd        1 BI3     -0.045200
     14 CAI         4.6280   -1.8600    4.9690 cd        1 BI3     -0.197200
     15 CAT         3.3140   -2.2380    5.6050 c         1 BI3      0.740700
     16 OAZ         2.1670   -1.9310    5.2240 o         1 BI3     -0.710500
     17 NAU         3.5930   -3.0060    6.7410 n         1 BI3     -0.606500
     18 CAV         4.9970   -3.1430    6.8890 c         1 BI3      0.687700
     19 OAX         5.5320   -3.7490    7.8160 o         1 BI3     -0.542500
     20 CAJ         5.6490   -2.4070    5.7070 cc        1 BI3      0.080800
     21 CAK         7.0500   -2.4180    5.5800 cc        1 BI3     -0.178200
     22 CAM         7.8960   -2.1310    4.4300 ca        1 BI3     -0.044800
     23 CAP         7.6680   -1.7860    3.0980 ca        1 BI3     -0.099000
     24 CAQ         8.7520   -1.6080    2.2480 ca        1 BI3     -0.128000
     25 CAR        10.0730   -1.7720    2.6960 ca        1 BI3     -0.111000
     26 CAS        10.3480   -2.1270    4.0090 ca        1 BI3     -0.119000
     27 CAN         9.2600   -2.3120    4.8720 ca        1 BI3     -0.072200
     28 NAO         9.2360   -2.6890    6.2270 na        1 BI3     -0.151400
     29 CAL         7.9310   -2.7650    6.6420 cd        1 BI3     -0.000100
     30 HBC1        1.2130    0.7410    3.4590 hn        1 BI3      0.469800
     31 HBC2        2.1990   -0.6120    3.5630 hn        1 BI3      0.469800
     32 HBB1        1.2500   -1.6190    1.6390 hx        1 BI3      0.104700
     33 HBB2       -0.0960   -0.3730    1.6470 hx        1 BI3      0.104700
     34 HBA1        1.8470    1.4080    1.2380 hc        1 BI3      0.090200
     35 HBA2        1.2360    0.3650   -0.1070 hc        1 BI3      0.090200
     36 HAY1        3.1400   -1.1800    0.0790 h1        1 BI3      0.088200
     37 HAY2        3.6820    0.5480   -0.1750 h1        1 BI3      0.088200
     38 HAW         3.7520   -2.3590    2.2140 h4        1 BI3      0.182000
     39 HAF         4.5590    2.4980    1.0000 ha        1 BI3      0.143000
     40 HAA         5.5770    4.0710    2.6480 ha        1 BI3      0.150000
     41 HAB         6.1990    3.3180    4.9220 ha        1 BI3      0.151000
     42 HAC         5.8240    0.9530    5.6420 ha        1 BI3      0.152000
     43 HAU         2.9200   -3.3880    7.3580 hn        1 BI3      0.360500
     44 HAP         6.6410   -1.6540    2.7270 ha        1 BI3      0.143000
     45 HAQ         8.5770   -1.3330    1.1970 ha        1 BI3      0.138000
     46 HAR        10.9040   -1.6200    1.9900 ha        1 BI3      0.145000
     47 HAS        11.3820   -2.2630    4.3570 ha        1 BI3      0.147000
     48 HAO        10.0370   -2.8850    6.7740 hn        1 BI3      0.318700
     49 HAL         7.6680   -3.0620    7.6670 h4        1 BI3      0.204000
     50 HBC3        0.5760   -0.7550    3.8470 hn        1 BI3      0.469800
@<TRIPOS>BOND
     1    1    2 1   
     2    1   30 1   
     3    1   31 1   
     4    1   50 1   
     5    2    3 1   
     6    2   32 1   
     7    2   33 1   
     8    3    4 1   
     9    3   34 1   
    10    3   35 1   
    11    4    5 1   
    12    4   36 1   
    13    4   37 1   
    14    5    6 1   
    15    5    7 1   
    16    6   13 2   
    17    6   38 1   
    18    7    8 ar  
    19    7   12 ar  
    20    8    9 ar  
    21    8   39 1   
    22    9   10 ar  
    23    9   40 1   
    24   10   11 ar  
    25   10   41 1   
    26   11   12 ar  
    27   11   42 1   
    28   12   13 1   
    29   13   14 1   
    30   14   15 1   
    31   14   20 2   
    32   15   16 2   
    33   15   17 1   
    34   17   18 1   
    35   17   43 1   
    36   18   19 2   
    37   18   20 1   
    38   20   21 1   
    39   21   22 1   
    40   21   29 2   
    41   22   23 ar  
    42   22   27 ar  
    43   23   24 ar  
    44   23   44 1   
    45   24   25 ar  
    46   24   45 1   
    47   25   26 ar  
    48   25   46 1   
    49   26   27 ar  
    50   26   47 1   
    51   27   28 1   
    52   28   29 1   
    53   28   48 1   
    54   29   49 1   
@<TRIPOS>SUBSTRUCTURE
     1 BI3         1 TEMP              0 ****  ****    0 ROOT
