@<TRIPOS>MOLECULE
BI3
   49    41     1     0     0
SMALL
bcc


@<TRIPOS>ATOM
      1 NBC        -5.2140    1.9750   -4.0020 n3        1 BI3     -0.336000
      2 CBB        -3.8500    1.5120   -3.9860 c3        1 BI3     -0.081000
      3 CBA        -3.4330    1.1910   -2.5370 c3        1 BI3     -0.234000
      4 CAY        -1.9470    0.7700   -2.5090 c3        1 BI3     -0.013000
      5 NAH        -1.4800    0.7320   -1.1370 n3        1 BI3     -0.164000
      6 CAW        -1.1180   -0.4410   -0.5180 c1        1 BI3     -0.030000
      7 CAE        -0.9620    1.7880   -0.3950 c1        1 BI3     -0.002000
      8 CAF        -1.0190    3.1830   -0.5750 c1        1 BI3     -0.138000
      9 CAA        -0.3870    4.0290    0.3330 c1        1 BI3     -0.125333
     10 CAB         0.3010    3.4950    1.4210 c1        1 BI3     -0.125333
     11 CAC         0.3570    2.1170    1.6000 c1        1 BI3     -0.095000
     12 CAD        -0.2820    1.2590    0.6810 c1        1 BI3     -0.069000
     13 CAG        -0.3760   -0.1210    0.6090 c1        1 BI3     -0.117000
     14 CAI        -0.0260   -0.2110    2.0960 c1        1 BI3     -0.078000
     15 CAT        -1.3540   -0.4700    3.0820 c2        1 BI3      0.342000
     16 OAZ        -1.2480   -0.3690    4.2890 o         1 BI3     -0.294000
     17 NAU        -1.6430   -1.7020    2.7050 n         1 BI3     -0.414000
     18 CAV        -0.1260   -2.3050    2.3680 c2        1 BI3      0.340000
     19 OAX         0.3120   -3.3820    2.7270 o         1 BI3     -0.295000
     20 CAJ         0.6510   -1.0650    2.2090 c2        1 BI3      0.018000
     21 CAK         1.9960   -1.0880    1.4600 c2        1 BI3     -0.142000
     22 CAM         2.8030   -2.0830    0.9390 c1        1 BI3     -0.046000
     23 CAP         2.5070   -3.3350    0.3640 c1        1 BI3     -0.125333
     24 CAQ         3.5370   -4.1550   -0.0870 c1        1 BI3     -0.125333
     25 CAR         4.8610   -3.7380    0.0290 c1        1 BI3     -0.125333
     26 CAS         5.1540   -2.5010    0.5970 c1        1 BI3     -0.125333
     27 CAN         4.1110   -1.6710    1.0540 c1        1 BI3     -0.015000
     28 NAO         4.1150   -0.4160    1.6480 n1        1 BI3     -0.202000
     29 CAL         2.8140   -0.0590    1.8970 c1        1 BI3     -0.020000
     30 HBC1       -5.3260    2.6170   -3.3600 hn        1 BI3      0.145000
     31 HBC2       -5.7780    1.2700   -3.8330 hn        1 BI3      0.145000
     32 HBB1       -3.7730    0.7000   -4.5370 h1        1 BI3      0.090500
     33 HBB2       -3.2630    2.2110   -4.3480 h1        1 BI3      0.090500
     34 HBA1       -3.9890    0.4550   -2.1910 hc        1 BI3      0.096500
     35 HBA2       -3.5580    1.9870   -1.9760 hc        1 BI3      0.096500
     36 HAY1       -1.4140    1.4190   -3.0190 h1        1 BI3      0.100500
     37 HAY2       -1.8510   -0.1220   -2.9130 h1        1 BI3      0.100500
     38 HAW        -1.3490   -1.3470   -0.8190 DU        1 BI3      0.206000
     39 HAF        -1.5020    3.5590   -1.3400 ha        1 BI3      0.134000
     40 HAA        -0.4270    5.0020    0.2070 ha        1 BI3      0.136500
     41 HAB         0.7460    4.0920    2.0620 ha        1 BI3      0.136500
     42 HAC         0.8410    1.7410    2.3650 ha        1 BI3      0.140000
     43 HAU        -2.3690   -2.1920    2.9750 hn        1 BI3      0.260000
     44 HAP         1.5760   -3.6290    0.2830 ha        1 BI3      0.136500
     45 HAQ         3.3310   -5.0270   -0.4870 ha        1 BI3      0.136500
     46 HAR         5.5880   -4.3160   -0.2890 ha        1 BI3      0.136500
     47 HAS         6.0870   -2.2070    0.6790 ha        1 BI3      0.136500
     48 HAO         4.8600    0.0870    1.8400 DU        1 BI3      0.206000
     49 HAL         2.5180    0.7640    2.3400 DU        1 BI3      0.206000
@<TRIPOS>BOND
     1    1    2 1   
     2    1   30 1   
     3    1   31 1   
     4    2    3 1   
     5    2   32 1   
     6    2   33 1   
     7    3    4 1   
     8    3   34 1   
     9    3   35 1   
    10    4    5 1   
    11    4   36 1   
    12    4   37 1   
    13    5    6 1   
    14    5    7 1   
    15    6   13 1   
    16    7    8 1   
    17    8   39 1   
    18    9   10 1   
    19    9   40 1   
    20   10   41 1   
    21   11   12 1   
    22   11   42 1   
    23   14   15 1   
    24   14   20 1   
    25   15   16 1   
    26   15   17 1   
    27   17   18 1   
    28   17   43 1   
    29   18   19 1   
    30   18   20 1   
    31   20   21 1   
    32   21   22 1   
    33   21   29 1   
    34   22   27 1   
    35   23   24 1   
    36   23   44 1   
    37   24   45 1   
    38   25   26 1   
    39   25   46 1   
    40   26   47 1   
    41   28   29 1   
@<TRIPOS>SUBSTRUCTURE
     1 BI3         1 TEMP              0 ****  ****    0 ROOT
