@<TRIPOS>MOLECULE
BI3
   50    54     1     0     0
SMALL
bcc


@<TRIPOS>ATOM
      1 NBC         1.2650   -0.2780    3.2700 n4        1 BI3     -0.844600
      2 CBB         1.0080   -0.5610    1.8330 c3        1 BI3      0.109800
      3 CBA         1.7920    0.3160    0.8680 c3        1 BI3     -0.142400
      4 CAY         3.2060   -0.1920    0.5650 c3        1 BI3      0.025300
      5 NAH         4.0860   -0.2860    1.6910 na        1 BI3     -0.078400
      6 CAW         4.0700   -1.3810    2.5770 cc        1 BI3     -0.160100
      7 CAE         4.5830    0.8270    2.4030 ca        1 BI3     -0.073200
      8 CAF         4.7980    2.1510    1.9930 ca        1 BI3     -0.145000
      9 CAA         5.3700    3.0270    2.9060 ca        1 BI3     -0.093000
     10 CAB         5.7270    2.6110    4.2000 ca        1 BI3     -0.138000
     11 CAC         5.5240    1.3040    4.6200 ca        1 BI3     -0.070000
     12 CAD         4.9450    0.3960    3.7330 ca        1 BI3     -0.101800
     13 CAG         4.5930   -1.0140    3.8190 cd        1 BI3     -0.045200
     14 CAI         4.6420   -1.8450    4.9790 cd        1 BI3     -0.197200
     15 CAT         3.3310   -2.2260    5.6210 c         1 BI3      0.740700
     16 OAZ         2.1810   -1.9280    5.2410 o         1 BI3     -0.710500
     17 NAU         3.6170   -2.9830    6.7630 n         1 BI3     -0.606500
     18 CAV         5.0210   -3.1110    6.9100 c         1 BI3      0.687700
     19 OAX         5.5620   -3.7060    7.8400 o         1 BI3     -0.542500
     20 CAJ         5.6670   -2.3810    5.7200 cc        1 BI3      0.080800
     21 CAK         7.0680   -2.3850    5.5900 cc        1 BI3     -0.178200
     22 CAM         7.9100   -2.1040    4.4360 ca        1 BI3     -0.044800
     23 CAP         7.6770   -1.7720    3.1010 ca        1 BI3     -0.099000
     24 CAQ         8.7580   -1.5950    2.2470 ca        1 BI3     -0.128000
     25 CAR        10.0810   -1.7490    2.6940 ca        1 BI3     -0.111000
     26 CAS        10.3610   -2.0910    4.0090 ca        1 BI3     -0.119000
     27 CAN         9.2760   -2.2730    4.8760 ca        1 BI3     -0.072200
     28 NAO         9.2570   -2.6400    6.2340 na        1 BI3     -0.151400
     29 CAL         7.9530   -2.7190    6.6530 cd        1 BI3     -0.000100
     30 HBC1        1.2100    0.7250    3.4570 hn        1 BI3      0.469800
     31 HBC2        2.2030   -0.6210    3.5690 hn        1 BI3      0.469800
     32 HBB1        1.2550   -1.6490    1.6550 hx        1 BI3      0.104700
     33 HBB2       -0.0970   -0.4100    1.6560 hx        1 BI3      0.104700
     34 HBA1        1.2270    0.3220   -0.1060 hc        1 BI3      0.090200
     35 HBA2        1.8360    1.3780    1.2300 hc        1 BI3      0.090200
     36 HAY1        3.1390   -1.2130    0.0880 h1        1 BI3      0.088200
     37 HAY2        3.6720    0.5160   -0.1820 h1        1 BI3      0.088200
     38 HAW         3.7610   -2.3710    2.2310 h4        1 BI3      0.182000
     39 HAF         4.5420    2.4790    0.9760 ha        1 BI3      0.143000
     40 HAA         5.5570    4.0710    2.6070 ha        1 BI3      0.150000
     41 HAB         6.1880    3.3390    4.8860 ha        1 BI3      0.151000
     42 HAC         5.8260    0.9790    5.6270 ha        1 BI3      0.152000
     43 HAU         2.9470   -3.3640    7.3850 hn        1 BI3      0.360500
     44 HAP         6.6490   -1.6480    2.7310 ha        1 BI3      0.143000
     45 HAQ         8.5790   -1.3300    1.1940 ha        1 BI3      0.138000
     46 HAR        10.9100   -1.5980    1.9850 ha        1 BI3      0.145000
     47 HAS        11.3960   -2.2180    4.3560 ha        1 BI3      0.147000
     48 HAO        10.0590   -2.8270    6.7810 hn        1 BI3      0.318700
     49 HAL         7.6940   -3.0090    7.6810 h4        1 BI3      0.204000
     50 HBC3        0.5810   -0.7710    3.8580 hn        1 BI3      0.469800
@<TRIPOS>BOND
     1    1    2 1   
     2    1   30 1   
     3    1   31 1   
     4    1   50 1   
     5    2    3 1   
     6    2   32 1   
     7    2   33 1   
     8    3    4 1   
     9    3   34 1   
    10    3   35 1   
    11    4    5 1   
    12    4   36 1   
    13    4   37 1   
    14    5    6 1   
    15    5    7 1   
    16    6   13 2   
    17    6   38 1   
    18    7    8 ar  
    19    7   12 ar  
    20    8    9 ar  
    21    8   39 1   
    22    9   10 ar  
    23    9   40 1   
    24   10   11 ar  
    25   10   41 1   
    26   11   12 ar  
    27   11   42 1   
    28   12   13 1   
    29   13   14 1   
    30   14   15 1   
    31   14   20 2   
    32   15   16 2   
    33   15   17 1   
    34   17   18 1   
    35   17   43 1   
    36   18   19 2   
    37   18   20 1   
    38   20   21 1   
    39   21   22 1   
    40   21   29 2   
    41   22   23 ar  
    42   22   27 ar  
    43   23   24 ar  
    44   23   44 1   
    45   24   25 ar  
    46   24   45 1   
    47   25   26 ar  
    48   25   46 1   
    49   26   27 ar  
    50   26   47 1   
    51   27   28 1   
    52   28   29 1   
    53   28   48 1   
    54   29   49 1   
@<TRIPOS>SUBSTRUCTURE
     1 BI3         1 TEMP              0 ****  ****    0 ROOT
