@<TRIPOS>MOLECULE
BI4
   59    64     1     0     0
SMALL
bcc


@<TRIPOS>ATOM
      1 O32        -0.1030   -0.3020    0.5510 o         1 BI4     -0.572500
      2 C18         1.0910   -0.0000    0.5190 c         1 BI4      0.706700
      3 C17         2.1610   -0.1400    1.5870 cc        1 BI4     -0.055200
      4 C16         1.8730   -0.6170    2.8960 cc        1 BI4     -0.113200
      5 C15         0.9270   -1.6420    3.3040 ca        1 BI4     -0.064800
      6 C14         0.0350   -2.4790    2.6300 ca        1 BI4     -0.071000
      7 C13        -0.7270   -3.3790    3.3600 ca        1 BI4     -0.153000
      8 C12        -0.6220   -3.4640    4.7600 ca        1 BI4     -0.112000
      9 C10         1.0240   -1.7360    4.7440 ca        1 BI4     -0.058200
     10 C11         0.2470   -2.6510    5.4710 ca        1 BI4     -0.146000
     11 N9          1.9840   -0.8130    5.1790 na        1 BI4     -0.183400
     12 C8          2.4810   -0.1410    4.0720 cd        1 BI4     -0.070100
     13 N19         1.7190    0.5770   -0.6090 n         1 BI4     -0.634500
     14 C20         3.0890    0.8050   -0.3460 c         1 BI4      0.705700
     15 O33         3.8630    1.3050   -1.1650 o         1 BI4     -0.571500
     16 C21         3.3480    0.3170    1.0680 cd        1 BI4     -0.054200
     17 C22         4.6460    0.3200    1.6500 cd        1 BI4     -0.114200
     18 C7          5.1400   -0.6800    2.5050 cc        1 BI4     -0.068100
     19 C23         5.7120    1.2950    1.4920 ca        1 BI4     -0.064800
     20 C5          6.8220    0.8240    2.2910 ca        1 BI4     -0.050200
     21 C4          8.0180    1.5530    2.3710 ca        1 BI4     -0.144000
     22 C3          8.1000    2.7400    1.6580 ca        1 BI4     -0.113000
     23 C2          7.0290    3.2020    0.8750 ca        1 BI4     -0.152000
     24 C1          5.8410    2.4910    0.7840 ca        1 BI4     -0.072000
     25 N6          6.4530   -0.4010    2.8740 na        1 BI4     -0.066400
     26 C24         7.2300   -1.1700    3.8010 c3        1 BI4      0.038300
     27 C25         6.8410   -0.9810    5.2700 c3        1 BI4     -0.096400
     28 C26         7.7040   -1.8910    6.1510 c3        1 BI4      0.177500
     29 C27         7.3680   -3.3820    5.9260 c3        1 BI4     -0.090400
     30 C28         7.2900   -4.0130    7.3090 c3        1 BI4     -0.092400
     31 C29         7.3370   -2.8480    8.3080 c3        1 BI4      0.162800
     32 N30         7.5100   -1.5900    7.5820 n3        1 BI4     -0.730600
     33 C31         8.5170   -0.7210    8.1340 c3        1 BI4      0.157100
     34 H14        -0.0710   -2.4020    1.5370 ha        1 BI4      0.154000
     35 H13        -1.4350   -4.0390    2.8380 ha        1 BI4      0.133000
     36 H12        -1.2470   -4.1910    5.3000 ha        1 BI4      0.130000
     37 H11         0.3230   -2.7160    6.5640 ha        1 BI4      0.132000
     38 HN9         2.1990   -0.6170    6.1200 hn        1 BI4      0.303700
     39 H8          3.2430    0.6370    4.1740 h4        1 BI4      0.180000
     40 H19         1.2640    0.7920   -1.4580 hn        1 BI4      0.346500
     41 H7          4.6330   -1.5830    2.8580 h4        1 BI4      0.179000
     42 H4          8.8610    1.1970    2.9760 ha        1 BI4      0.130000
     43 H3          9.0260    3.3330    1.7040 ha        1 BI4      0.130000
     44 H2          7.1420    4.1450    0.3190 ha        1 BI4      0.133000
     45 H1          5.0160    2.8450    0.1470 ha        1 BI4      0.154000
     46 H241        8.3140   -0.8880    3.6650 h1        1 BI4      0.062200
     47 H242        7.1160   -2.2610    3.5310 h1        1 BI4      0.062200
     48 H251        5.7570   -1.2220    5.4190 hc        1 BI4      0.059700
     49 H252        6.9940    0.0890    5.5680 hc        1 BI4      0.059700
     50 H26         8.7850   -1.7210    5.8580 h1        1 BI4      0.031700
     51 H271        6.3930   -3.4890    5.3910 hc        1 BI4      0.049200
     52 H272        8.1580   -3.8650    5.3010 hc        1 BI4      0.049200
     53 H281        8.1480   -4.7080    7.4800 hc        1 BI4      0.049700
     54 H282        6.3470   -4.5990    7.4320 hc        1 BI4      0.049700
     55 H291        8.1540   -3.0180    9.0620 h1        1 BI4      0.043200
     56 H292        6.3650   -2.7720    8.8680 h1        1 BI4      0.043200
     57 H311        9.5540   -1.1570    8.1180 h1        1 BI4      0.033033
     58 H312        8.2440   -0.4920    9.1980 h1        1 BI4      0.033033
     59 H313        8.5250    0.2360    7.5480 h1        1 BI4      0.033033
@<TRIPOS>BOND
     1    1    2 2   
     2    2    3 1   
     3    2   13 1   
     4    3    4 1   
     5    3   16 2   
     6    4    5 1   
     7    4   12 2   
     8    5    6 ar  
     9    5    9 ar  
    10    6    7 ar  
    11    6   34 1   
    12    7    8 ar  
    13    7   35 1   
    14    8   10 ar  
    15    8   36 1   
    16    9   10 ar  
    17    9   11 1   
    18   10   37 1   
    19   11   12 1   
    20   11   38 1   
    21   12   39 1   
    22   13   14 1   
    23   13   40 1   
    24   14   15 2   
    25   14   16 1   
    26   16   17 1   
    27   17   18 2   
    28   17   19 1   
    29   18   25 1   
    30   18   41 1   
    31   19   20 ar  
    32   19   24 ar  
    33   20   21 ar  
    34   20   25 1   
    35   21   22 ar  
    36   21   42 1   
    37   22   23 ar  
    38   22   43 1   
    39   23   24 ar  
    40   23   44 1   
    41   24   45 1   
    42   25   26 1   
    43   26   27 1   
    44   26   46 1   
    45   26   47 1   
    46   27   28 1   
    47   27   48 1   
    48   27   49 1   
    49   28   29 1   
    50   28   32 1   
    51   28   50 1   
    52   29   30 1   
    53   29   51 1   
    54   29   52 1   
    55   30   31 1   
    56   30   53 1   
    57   30   54 1   
    58   31   32 1   
    59   31   55 1   
    60   31   56 1   
    61   32   33 1   
    62   33   57 1   
    63   33   58 1   
    64   33   59 1   
@<TRIPOS>SUBSTRUCTURE
     1 BI4         1 TEMP              0 ****  ****    0 ROOT
