@<TRIPOS>MOLECULE
BI4
   59    64     1     0     0
SMALL
bcc


@<TRIPOS>ATOM
      1 O32        -0.1060   -0.3020    0.5590 o         1 BI4     -0.572500
      2 C18         1.0890   -0.0030    0.5230 c         1 BI4      0.706700
      3 C17         2.1600   -0.1400    1.5910 cc        1 BI4     -0.055200
      4 C16         1.8750   -0.6120    2.9020 cc        1 BI4     -0.113200
      5 C15         0.9270   -1.6330    3.3160 ca        1 BI4     -0.064800
      6 C14         0.0330   -2.4710    2.6470 ca        1 BI4     -0.071000
      7 C13        -0.7290   -3.3670    3.3820 ca        1 BI4     -0.153000
      8 C12        -0.6210   -3.4470    4.7820 ca        1 BI4     -0.112000
      9 C10         1.0280   -1.7220    4.7560 ca        1 BI4     -0.058200
     10 C11         0.2500   -2.6320    5.4880 ca        1 BI4     -0.146000
     11 N9          1.9890   -0.7990    5.1860 na        1 BI4     -0.183400
     12 C8          2.4860   -0.1320    4.0740 cd        1 BI4     -0.070100
     13 N19         1.7160    0.5690   -0.6070 n         1 BI4     -0.634500
     14 C20         3.0870    0.7960   -0.3480 c         1 BI4      0.705700
     15 O33         3.8600    1.2910   -1.1700 o         1 BI4     -0.571500
     16 C21         3.3470    0.3130    1.0670 cd        1 BI4     -0.054200
     17 C22         4.6470    0.3160    1.6470 cd        1 BI4     -0.114200
     18 C7          5.1400   -0.6810    2.5040 cc        1 BI4     -0.068100
     19 C23         5.7130    1.2890    1.4830 ca        1 BI4     -0.064800
     20 C5          6.8240    0.8190    2.2820 ca        1 BI4     -0.050200
     21 C4          8.0210    1.5470    2.3570 ca        1 BI4     -0.144000
     22 C3          8.1040    2.7310    1.6400 ca        1 BI4     -0.113000
     23 C2          7.0320    3.1920    0.8570 ca        1 BI4     -0.152000
     24 C1          5.8430    2.4820    0.7710 ca        1 BI4     -0.072000
     25 N6          6.4550   -0.4030    2.8700 na        1 BI4     -0.066400
     26 C24         7.2330   -1.1700    3.7990 c3        1 BI4      0.038300
     27 C25         6.8390   -0.9840    5.2670 c3        1 BI4     -0.096400
     28 C26         7.7030   -1.8910    6.1490 c3        1 BI4      0.177500
     29 C27         7.3750   -3.3840    5.9210 c3        1 BI4     -0.090400
     30 C28         7.2950   -4.0170    7.3020 c3        1 BI4     -0.092400
     31 C29         7.3320   -2.8540    8.3030 c3        1 BI4      0.162800
     32 N30         7.5020   -1.5940    7.5800 n3        1 BI4     -0.730600
     33 C31         8.5040   -0.7210    8.1370 c3        1 BI4      0.157100
     34 H14        -0.0760   -2.3980    1.5540 ha        1 BI4      0.154000
     35 H13        -1.4390   -4.0280    2.8640 ha        1 BI4      0.133000
     36 H12        -1.2460   -4.1700    5.3260 ha        1 BI4      0.130000
     37 H11         0.3290   -2.6940    6.5810 ha        1 BI4      0.132000
     38 HN9         2.2080   -0.5990    6.1250 hn        1 BI4      0.303700
     39 H8          3.2500    0.6450    4.1720 h4        1 BI4      0.180000
     40 H19         1.2600    0.7810   -1.4570 hn        1 BI4      0.346500
     41 H7          4.6330   -1.5820    2.8620 h4        1 BI4      0.179000
     42 H4          8.8650    1.1920    2.9620 ha        1 BI4      0.130000
     43 H3          9.0310    3.3230    1.6810 ha        1 BI4      0.130000
     44 H2          7.1450    4.1330    0.2970 ha        1 BI4      0.133000
     45 H1          5.0180    2.8350    0.1340 ha        1 BI4      0.154000
     46 H241        8.3150   -0.8830    3.6660 h1        1 BI4      0.062200
     47 H242        7.1230   -2.2610    3.5270 h1        1 BI4      0.062200
     48 H251        5.7550   -1.2300    5.4120 hc        1 BI4      0.059700
     49 H252        6.9860    0.0860    5.5660 hc        1 BI4      0.059700
     50 H26         8.7840   -1.7170    5.8600 h1        1 BI4      0.031700
     51 H271        8.1680   -3.8620    5.2970 hc        1 BI4      0.049200
     52 H272        6.4010   -3.4950    5.3820 hc        1 BI4      0.049200
     53 H281        6.3550   -4.6090    7.4210 hc        1 BI4      0.049700
     54 H282        8.1560   -4.7090    7.4750 hc        1 BI4      0.049700
     55 H291        6.3580   -2.7830    8.8600 h1        1 BI4      0.043200
     56 H292        8.1470   -3.0210    9.0600 h1        1 BI4      0.043200
     57 H311        8.5090    0.2360    7.5520 h1        1 BI4      0.033033
     58 H312        9.5430   -1.1520    8.1240 h1        1 BI4      0.033033
     59 H313        8.2260   -0.4940    9.2000 h1        1 BI4      0.033033
@<TRIPOS>BOND
     1    1    2 2   
     2    2    3 1   
     3    2   13 1   
     4    3    4 1   
     5    3   16 2   
     6    4    5 1   
     7    4   12 2   
     8    5    6 ar  
     9    5    9 ar  
    10    6    7 ar  
    11    6   34 1   
    12    7    8 ar  
    13    7   35 1   
    14    8   10 ar  
    15    8   36 1   
    16    9   10 ar  
    17    9   11 1   
    18   10   37 1   
    19   11   12 1   
    20   11   38 1   
    21   12   39 1   
    22   13   14 1   
    23   13   40 1   
    24   14   15 2   
    25   14   16 1   
    26   16   17 1   
    27   17   18 2   
    28   17   19 1   
    29   18   25 1   
    30   18   41 1   
    31   19   20 ar  
    32   19   24 ar  
    33   20   21 ar  
    34   20   25 1   
    35   21   22 ar  
    36   21   42 1   
    37   22   23 ar  
    38   22   43 1   
    39   23   24 ar  
    40   23   44 1   
    41   24   45 1   
    42   25   26 1   
    43   26   27 1   
    44   26   46 1   
    45   26   47 1   
    46   27   28 1   
    47   27   48 1   
    48   27   49 1   
    49   28   29 1   
    50   28   32 1   
    51   28   50 1   
    52   29   30 1   
    53   29   51 1   
    54   29   52 1   
    55   30   31 1   
    56   30   53 1   
    57   30   54 1   
    58   31   32 1   
    59   31   55 1   
    60   31   56 1   
    61   32   33 1   
    62   33   57 1   
    63   33   58 1   
    64   33   59 1   
@<TRIPOS>SUBSTRUCTURE
     1 BI4         1 TEMP              0 ****  ****    0 ROOT
