@<TRIPOS>MOLECULE
BI4
   59    64     1     0     0
SMALL
bcc


@<TRIPOS>ATOM
      1 O32        -0.0860   -0.3380    0.5220 o         1 BI4     -0.572500
      2 C18         1.1090   -0.0360    0.4920 c         1 BI4      0.706700
      3 C17         2.1730   -0.1640    1.5680 cc        1 BI4     -0.055200
      4 C16         1.8790   -0.6300    2.8800 cc        1 BI4     -0.113200
      5 C15         0.9320   -1.6520    3.2920 ca        1 BI4     -0.064800
      6 C14         0.0440   -2.4950    2.6210 ca        1 BI4     -0.071000
      7 C13        -0.7210   -3.3900    3.3560 ca        1 BI4     -0.153000
      8 C12        -0.6220   -3.4620    4.7570 ca        1 BI4     -0.112000
      9 C10         1.0220   -1.7330    4.7330 ca        1 BI4     -0.058200
     10 C11         0.2420   -2.6410    5.4650 ca        1 BI4     -0.146000
     11 N9          1.9790   -0.8050    5.1650 na        1 BI4     -0.183400
     12 C8          2.4810   -0.1420    4.0530 cd        1 BI4     -0.070100
     13 N19         1.7400    0.5320   -0.6370 ns        1 BI4     -0.634500
     14 C20         3.1090    0.7640   -0.3700 c         1 BI4      0.705700
     15 O33         3.8870    1.2580   -1.1890 o         1 BI4     -0.571500
     16 C21         3.3610    0.2900    1.0500 cd        1 BI4     -0.054200
     17 C22         4.6570    0.3000    1.6380 cd        1 BI4     -0.114200
     18 C7          5.1480   -0.6910    2.5040 cc        1 BI4     -0.068100
     19 C23         5.7210    1.2750    1.4770 ca        1 BI4     -0.064800
     20 C5          6.8280    0.8130    2.2860 ca        1 BI4     -0.050200
     21 C4          8.0230    1.5450    2.3650 ca        1 BI4     -0.144000
     22 C3          8.1070    2.7260    1.6430 ca        1 BI4     -0.113000
     23 C2          7.0390    3.1790    0.8500 ca        1 BI4     -0.152000
     24 C1          5.8530    2.4650    0.7600 ca        1 BI4     -0.072000
     25 N6          6.4590   -0.4070    2.8770 na        1 BI4     -0.066400
     26 C24         7.2330   -1.1670    3.8160 c3        1 BI4      0.038300
     27 C25         6.8340   -0.9670    5.2800 c3        1 BI4     -0.096400
     28 C26         7.6940   -1.8680    6.1730 c3        1 BI4      0.177500
     29 C27         7.3620   -3.3620    5.9580 c3        1 BI4     -0.090400
     30 C28         7.2760   -3.9820    7.3450 c3        1 BI4     -0.092400
     31 C29         7.3140   -2.8100    8.3360 c3        1 BI4      0.162800
     32 N30         7.4890   -1.5570    7.6010 n3        1 BI4     -0.730600
     33 C31         8.4910   -0.6810    8.1530 c3        1 BI4      0.157100
     34 H14        -0.0570   -2.4290    1.5270 ha        1 BI4      0.154000
     35 H13        -1.4260   -4.0550    2.8370 ha        1 BI4      0.133000
     36 H12        -1.2490   -4.1840    5.3010 ha        1 BI4      0.130000
     37 H11         0.3140   -2.6970    6.5590 ha        1 BI4      0.132000
     38 HN9         2.1900   -0.6000    6.1050 hn        1 BI4      0.303700
     39 H8          3.2420    0.6370    4.1520 h4        1 BI4      0.180000
     40 H19         1.2900    0.7390   -1.4900 hn        1 BI4      0.346500
     41 H7          4.6410   -1.5920    2.8630 h4        1 BI4      0.179000
     42 H4          8.8640    1.1960    2.9780 ha        1 BI4      0.130000
     43 H3          9.0310    3.3210    1.6870 ha        1 BI4      0.130000
     44 H2          7.1530    4.1170    0.2860 ha        1 BI4      0.133000
     45 H1          5.0300    2.8120    0.1150 ha        1 BI4      0.154000
     46 H241        8.3160   -0.8820    3.6840 h1        1 BI4      0.062200
     47 H242        7.1230   -2.2600    3.5540 h1        1 BI4      0.062200
     48 H251        5.7500   -1.2090    5.4240 hc        1 BI4      0.059700
     49 H252        6.9820    0.1060    5.5710 hc        1 BI4      0.059700
     50 H26         8.7760   -1.6990    5.8860 h1        1 BI4      0.031700
     51 H271        8.1560   -3.8480    5.3420 hc        1 BI4      0.049200
     52 H272        6.3900   -3.4750    5.4180 hc        1 BI4      0.049200
     53 H281        8.1340   -4.6750    7.5280 hc        1 BI4      0.049700
     54 H282        6.3340   -4.5690    7.4670 hc        1 BI4      0.049700
     55 H291        8.1270   -2.9730    9.0960 h1        1 BI4      0.043200
     56 H292        6.3390   -2.7320    8.8900 h1        1 BI4      0.043200
     57 H311        8.5010    0.2710    7.5600 h1        1 BI4      0.033033
     58 H312        9.5290   -1.1150    8.1470 h1        1 BI4      0.033033
     59 H313        8.2120   -0.4450    9.2130 h1        1 BI4      0.033033
@<TRIPOS>BOND
     1    1    2 2   
     2    2    3 1   
     3    2   13 1   
     4    3    4 1   
     5    3   16 2   
     6    4    5 1   
     7    4   12 2   
     8    5    6 ar  
     9    5    9 ar  
    10    6    7 ar  
    11    6   34 1   
    12    7    8 ar  
    13    7   35 1   
    14    8   10 ar  
    15    8   36 1   
    16    9   10 ar  
    17    9   11 1   
    18   10   37 1   
    19   11   12 1   
    20   11   38 1   
    21   12   39 1   
    22   13   14 1   
    23   13   40 1   
    24   14   15 2   
    25   14   16 1   
    26   16   17 1   
    27   17   18 2   
    28   17   19 1   
    29   18   25 1   
    30   18   41 1   
    31   19   20 ar  
    32   19   24 ar  
    33   20   21 ar  
    34   20   25 1   
    35   21   22 ar  
    36   21   42 1   
    37   22   23 ar  
    38   22   43 1   
    39   23   24 ar  
    40   23   44 1   
    41   24   45 1   
    42   25   26 1   
    43   26   27 1   
    44   26   46 1   
    45   26   47 1   
    46   27   28 1   
    47   27   48 1   
    48   27   49 1   
    49   28   29 1   
    50   28   32 1   
    51   28   50 1   
    52   29   30 1   
    53   29   51 1   
    54   29   52 1   
    55   30   31 1   
    56   30   53 1   
    57   30   54 1   
    58   31   32 1   
    59   31   55 1   
    60   31   56 1   
    61   32   33 1   
    62   33   57 1   
    63   33   58 1   
    64   33   59 1   
@<TRIPOS>SUBSTRUCTURE
     1 BI4         1 TEMP              0 ****  ****    0 ROOT
