@<TRIPOS>MOLECULE
BI4
   59    64     1     0     0
SMALL
bcc


@<TRIPOS>ATOM
      1 O32        -4.9800    1.2910    0.2640 o         1 BI4     -0.572500
      2 C18        -4.2150    0.3250    0.2930 c         1 BI4      0.706700
      3 C17        -2.7160    0.2610    0.0590 cc        1 BI4     -0.055200
      4 C16        -1.9540    1.4020   -0.3190 cc        1 BI4     -0.113200
      5 C15        -2.1210    2.7850    0.0920 ca        1 BI4     -0.064800
      6 C14        -2.9980    3.4570    0.9460 ca        1 BI4     -0.071000
      7 C13        -2.8520    4.8250    1.1220 ca        1 BI4     -0.153000
      8 C12        -1.8440    5.5470    0.4590 ca        1 BI4     -0.112000
      9 C10        -1.0890    3.5390   -0.5860 ca        1 BI4     -0.058200
     10 C11        -0.9530    4.9230   -0.4010 ca        1 BI4     -0.146000
     11 N9         -0.3400    2.6500   -1.3670 na        1 BI4     -0.183400
     12 C8         -0.8670    1.3750   -1.2110 cd        1 BI4     -0.070100
     13 N19        -4.6390   -0.9960    0.5650 n         1 BI4     -0.634500
     14 C20        -3.5380   -1.8820    0.5320 c         1 BI4      0.705700
     15 O33        -3.6360   -3.0940    0.7320 o         1 BI4     -0.571500
     16 C21        -2.3120   -1.0420    0.2230 cd        1 BI4     -0.054200
     17 C22        -1.0000   -1.5910    0.1850 cd        1 BI4     -0.114200
     18 C7          0.1530   -0.9340    0.6430 cc        1 BI4     -0.068100
     19 C23        -0.5740   -2.8940   -0.2950 ca        1 BI4     -0.064800
     20 C5          0.8590   -2.9540   -0.1040 ca        1 BI4     -0.050200
     21 C4          1.5940   -4.0870   -0.4840 ca        1 BI4     -0.144000
     22 C3          0.9020   -5.1480   -1.0490 ca        1 BI4     -0.113000
     23 C2         -0.4900   -5.1010   -1.2320 ca        1 BI4     -0.152000
     24 C1         -1.2310   -3.9890   -0.8600 ca        1 BI4     -0.072000
     25 N6          1.2700   -1.7530    0.4990 na        1 BI4     -0.066400
     26 C24         2.6200   -1.3660    0.7920 c3        1 BI4      0.038300
     27 C25         3.2520   -0.4270   -0.2390 c3        1 BI4     -0.096400
     28 C26         4.6670   -0.0480    0.2120 c3        1 BI4      0.177500
     29 C27         4.6400    0.8430    1.4740 c3        1 BI4     -0.090400
     30 C28         5.6380    1.9640    1.2240 c3        1 BI4     -0.092400
     31 C29         6.0410    1.8490   -0.2530 c3        1 BI4      0.162800
     32 N30         5.3870    0.6840   -0.8470 n3        1 BI4     -0.730600
     33 C31         6.2600   -0.1480   -1.6360 c3        1 BI4      0.157100
     34 H14        -3.8060    2.9040    1.4500 ha        1 BI4      0.154000
     35 H13        -3.5410    5.3630    1.7900 ha        1 BI4      0.133000
     36 H12        -1.7650    6.6320    0.6250 ha        1 BI4      0.130000
     37 H11        -0.1700    5.4900   -0.9200 ha        1 BI4      0.132000
     38 HN9         0.3800    2.9050   -1.9890 hn        1 BI4      0.303700
     39 H8         -0.4410    0.5150   -1.7360 h4        1 BI4      0.180000
     40 H19        -5.5710   -1.2620    0.7510 hn        1 BI4      0.346500
     41 H7          0.2380    0.0650    1.0790 h4        1 BI4      0.179000
     42 H4          2.6810   -4.1330   -0.3400 ha        1 BI4      0.130000
     43 H3          1.4530   -6.0490   -1.3570 ha        1 BI4      0.130000
     44 H2         -1.0000   -5.9690   -1.6760 ha        1 BI4      0.133000
     45 H1         -2.3250   -3.9700   -0.9810 ha        1 BI4      0.154000
     46 H241        3.2410   -2.3040    0.8690 h1        1 BI4      0.062200
     47 H242        2.6260   -0.8580    1.8010 h1        1 BI4      0.062200
     48 H251        2.6280    0.4960   -0.3570 hc        1 BI4      0.059700
     49 H252        3.2970   -0.9350   -1.2380 hc        1 BI4      0.059700
     50 H26         5.2120   -1.0080    0.4650 h1        1 BI4      0.031700
     51 H271        4.9160    0.2430    2.3750 hc        1 BI4      0.049200
     52 H272        3.6160    1.2590    1.6400 hc        1 BI4      0.049200
     53 H281        6.5350    1.8560    1.8820 hc        1 BI4      0.049700
     54 H282        5.1830    2.9630    1.4310 hc        1 BI4      0.049700
     55 H291        7.1610    1.8000   -0.3460 h1        1 BI4      0.043200
     56 H292        5.6900    2.7500   -0.8270 h1        1 BI4      0.043200
     57 H311        7.1010   -0.6110   -1.0490 h1        1 BI4      0.033033
     58 H312        5.6520   -0.9710   -2.0960 h1        1 BI4      0.033033
     59 H313        6.7030    0.4780   -2.4550 h1        1 BI4      0.033033
@<TRIPOS>BOND
     1    1    2 2   
     2    2    3 1   
     3    2   13 1   
     4    3    4 1   
     5    3   16 2   
     6    4    5 1   
     7    4   12 2   
     8    5    6 ar  
     9    5    9 ar  
    10    6    7 ar  
    11    6   34 1   
    12    7    8 ar  
    13    7   35 1   
    14    8   10 ar  
    15    8   36 1   
    16    9   10 ar  
    17    9   11 1   
    18   10   37 1   
    19   11   12 1   
    20   11   38 1   
    21   12   39 1   
    22   13   14 1   
    23   13   40 1   
    24   14   15 2   
    25   14   16 1   
    26   16   17 1   
    27   17   18 2   
    28   17   19 1   
    29   18   25 1   
    30   18   41 1   
    31   19   20 ar  
    32   19   24 ar  
    33   20   21 ar  
    34   20   25 1   
    35   21   22 ar  
    36   21   42 1   
    37   22   23 ar  
    38   22   43 1   
    39   23   24 ar  
    40   23   44 1   
    41   24   45 1   
    42   25   26 1   
    43   26   27 1   
    44   26   46 1   
    45   26   47 1   
    46   27   28 1   
    47   27   48 1   
    48   27   49 1   
    49   28   29 1   
    50   28   32 1   
    51   28   50 1   
    52   29   30 1   
    53   29   51 1   
    54   29   52 1   
    55   30   31 1   
    56   30   53 1   
    57   30   54 1   
    58   31   32 1   
    59   31   55 1   
    60   31   56 1   
    61   32   33 1   
    62   33   57 1   
    63   33   58 1   
    64   33   59 1   
@<TRIPOS>SUBSTRUCTURE
     1 BI4         1 TEMP              0 ****  ****    0 ROOT
