@<TRIPOS>MOLECULE
BI4
   59    51     1     0     0
SMALL
bcc


@<TRIPOS>ATOM
      1 O32        -3.7870    2.7220   -3.9950 o         1 BI4     -0.297000
      2 C18        -3.5360    2.8810   -2.8430 c1        1 BI4      0.345000
      3 C17        -2.8270    1.9760   -2.0050 c1        1 BI4     -0.036000
      4 C16        -1.5300    1.3180   -2.4990 c2        1 BI4     -0.125000
      5 C15        -1.2410    0.0710   -3.0190 c1        1 BI4     -0.053000
      6 C14        -2.0260   -1.0900   -3.1850 c1        1 BI4     -0.071000
      7 C13        -1.4730   -2.2210   -3.7510 c1        1 BI4     -0.132250
      8 C12        -0.1450   -2.2160   -4.1570 c1        1 BI4     -0.132250
      9 C10         0.0680    0.0760   -3.4190 c1        1 BI4     -0.009500
     10 C11         0.6280   -1.0720   -3.9930 c1        1 BI4     -0.145000
     11 N9          0.5940    1.3250   -3.1490 n1        1 BI4     -0.206000
     12 C8         -0.3900    2.0880   -2.5830 c1        1 BI4     -0.042000
     13 N19        -4.3410    3.7810   -1.8340 n         1 BI4     -0.414000
     14 C20        -3.9180    3.2430   -0.4100 c2        1 BI4      0.344000
     15 O33        -3.9670    3.8910    0.6690 o         1 BI4     -0.296000
     16 C21        -3.0200    2.1750   -0.7040 c2        1 BI4     -0.035000
     17 C22        -1.9320    1.7920    0.2900 c2        1 BI4     -0.126000
     18 C7         -1.6800    0.5120    0.7550 c1        1 BI4     -0.040000
     19 C23        -1.0200    2.6560    0.8920 c1        1 BI4     -0.053000
     20 C5         -0.2140    1.9080    1.7220 c1        1 BI4     -0.009500
     21 C4          0.7490    2.5530    2.5470 c1        1 BI4     -0.145000
     22 C3          0.8770    3.9420    2.5160 c1        1 BI4     -0.132250
     23 C2          0.0610    4.7010    1.6760 c1        1 BI4     -0.132250
     24 C1         -0.8890    4.0680    0.8620 c1        1 BI4     -0.072000
     25 N6         -0.6220    0.5790    1.6380 n1        1 BI4     -0.158000
     26 C24        -0.1330   -0.6350    2.2430 c2        1 BI4     -0.021000
     27 C25         1.2900   -0.9670    1.6810 c3        1 BI4     -0.175000
     28 C26         1.6680   -2.4510    2.0620 c3        1 BI4     -0.020000
     29 C27         2.7450   -2.4620    3.2390 c3        1 BI4     -0.170000
     30 C28         3.8110   -3.3850    2.7880 c3        1 BI4     -0.172000
     31 C29         3.3050   -4.0040    1.7430 c3        1 BI4     -0.074000
     32 N30         2.2230   -3.0070    1.1100 n3        1 BI4     -0.256000
     33 C31         1.2530   -3.7550    0.3600 c3        1 BI4     -0.119000
     34 H14        -2.9790   -1.0930   -2.8940 ha        1 BI4      0.155000
     35 H13        -2.0330   -3.0490   -3.8690 ha        1 BI4      0.131500
     36 H12         0.2360   -2.9950   -4.5460 ha        1 BI4      0.131500
     37 H11         1.5300   -1.0690   -4.2690 ha        1 BI4      0.131000
     38 HN9         1.4510    1.5930   -3.3160 DU        1 BI4      0.204667
     39 H8         -0.3320    3.0440   -2.3920 DU        1 BI4      0.204667
     40 H19        -5.0900    4.2600   -2.0250 hn        1 BI4      0.260000
     41 H7         -2.2110   -0.2730    0.5690 DU        1 BI4      0.204667
     42 H4          1.3300    2.0130    3.1470 ha        1 BI4      0.131000
     43 H3          1.5510    4.3920    3.0930 ha        1 BI4      0.131500
     44 H2          0.1490    5.6480    1.6560 ha        1 BI4      0.131500
     45 H1         -1.4770    4.6150    0.2570 ha        1 BI4      0.153000
     46 H241       -0.7530   -1.3830    2.0350 ha        1 BI4      0.101000
     47 H242       -0.0820   -0.5200    3.1780 ha        1 BI4      0.101000
     48 H251        1.9620   -0.3380    2.0770 hc        1 BI4      0.099500
     49 H252        1.2890   -0.8660    0.6570 hc        1 BI4      0.099500
     50 H26         0.8310   -2.9720    2.3400 h1        1 BI4      0.073000
     51 H271        2.3550   -2.7810    4.0420 hc        1 BI4      0.088500
     52 H272        3.0980   -1.5900    3.3700 hc        1 BI4      0.088500
     53 H281        4.0170   -4.0020    3.4640 hc        1 BI4      0.089000
     54 H282        4.6320   -2.8690    2.5240 hc        1 BI4      0.089000
     55 H291        2.8780   -4.8280    2.0170 h1        1 BI4      0.083500
     56 H292        4.0010   -4.1870    1.0990 h1        1 BI4      0.083500
     57 H311        0.8750   -4.4550    0.9240 h1        1 BI4      0.072000
     58 H312        0.4990   -3.1220    0.0450 h1        1 BI4      0.072000
     59 H313        1.6910   -4.1660   -0.4300 h1        1 BI4      0.072000
@<TRIPOS>BOND
     1    1    2 1   
     2    2   13 1   
     3    3    4 1   
     4    3   16 1   
     5    4    5 1   
     6    4   12 1   
     7    5    6 1   
     8    6   34 1   
     9    7    8 1   
    10    7   35 1   
    11    8   36 1   
    12    9   10 1   
    13   10   37 1   
    14   11   12 1   
    15   13   14 1   
    16   13   40 1   
    17   14   15 1   
    18   14   16 1   
    19   16   17 1   
    20   17   18 1   
    21   17   19 1   
    22   18   25 1   
    23   19   24 1   
    24   20   21 1   
    25   21   42 1   
    26   22   23 1   
    27   22   43 1   
    28   23   44 1   
    29   24   45 1   
    30   26   27 1   
    31   26   46 1   
    32   26   47 1   
    33   27   28 1   
    34   27   48 1   
    35   27   49 1   
    36   28   29 1   
    37   28   32 1   
    38   28   50 1   
    39   29   30 1   
    40   29   51 1   
    41   29   52 1   
    42   30   31 1   
    43   30   53 1   
    44   30   54 1   
    45   31   32 1   
    46   31   55 1   
    47   31   56 1   
    48   32   33 1   
    49   33   57 1   
    50   33   58 1   
    51   33   59 1   
@<TRIPOS>SUBSTRUCTURE
     1 BI4         1 TEMP              0 ****  ****    0 ROOT
