@<TRIPOS>MOLECULE
BI5
   40    42     1     0     0
SMALL
bcc


@<TRIPOS>ATOM
      1 N1          0.5900   -1.1150    0.6160 nb        1 BI5     -0.716000
      2 C1          1.6600   -0.2820    0.5460 ca        1 BI5      0.334600
      3 C2          1.8810    0.7660    1.4570 ca        1 BI5     -0.208300
      4 C3          0.9520    0.9590    2.4860 ca        1 BI5     -0.071000
      5 C4         -0.1510    0.1120    2.5720 ca        1 BI5     -0.209300
      6 C5         -0.2880   -0.9120    1.6110 ca        1 BI5      0.423200
      7 C6          2.6820   -0.4590   -0.5510 c3        1 BI5      0.071500
      8 N2          2.3870   -1.5870   -1.4800 n4        1 BI5     -0.664800
      9 C7          3.4270   -1.7510   -2.5780 c         1 BI5      0.579700
     10 C8          3.2040   -2.8330   -3.5210 ca        1 BI5     -0.263600
     11 C9          4.1740   -2.9820   -4.5390 ca        1 BI5     -0.024000
     12 C10         4.0540   -3.9810   -5.4870 ca        1 BI5     -0.187000
     13 C11         2.9490   -4.8590   -5.4310 ca        1 BI5      0.222100
     14 C12         1.9760   -4.7190   -4.4200 ca        1 BI5     -0.187000
     15 C13         2.1080   -3.7140   -3.4770 ca        1 BI5     -0.024000
     16 O1          2.9160   -5.8140   -6.4100 os        1 BI5     -0.217200
     17 C14         1.8330   -6.7100   -6.3940 ca        1 BI5      0.038100
     18 C15         1.9810   -7.9330   -5.7300 ca        1 BI5     -0.122000
     19 C16         0.9670   -8.8820   -5.8510 ca        1 BI5     -0.117000
     20 C17        -0.1660   -8.6080   -6.6200 ca        1 BI5     -0.108000
     21 C18        -0.2950   -7.3830   -7.2770 ca        1 BI5     -0.117000
     22 C19         0.7060   -6.4180   -7.1700 ca        1 BI5     -0.122000
     23 O2          4.3500   -0.9450   -2.5490 o         1 BI5     -0.449100
     24 H2          2.7610    1.4190    1.3640 ha        1 BI5      0.161000
     25 H3          1.0970    1.7710    3.2170 ha        1 BI5      0.167000
     26 H4         -0.9030    0.2300    3.3650 ha        1 BI5      0.171000
     27 H5         -1.1480   -1.6080    1.6410 h4        1 BI5      0.044100
     28 H61         2.7420    0.4890   -1.1630 hx        1 BI5      0.119700
     29 H62         3.6970   -0.6450   -0.0900 hx        1 BI5      0.119700
     30 HN2         1.4690   -1.4350   -1.9160 hn        1 BI5      0.465800
     31 H9          5.0340   -2.2900   -4.5730 ha        1 BI5      0.150500
     32 H10         4.8050   -4.1060   -6.2850 ha        1 BI5      0.180500
     33 H12         1.1190   -5.4100   -4.3880 ha        1 BI5      0.180500
     34 H13         1.3280   -3.6360   -2.7030 ha        1 BI5      0.150500
     35 H15         2.8880   -8.1430   -5.1440 ha        1 BI5      0.153000
     36 H16         1.0670   -9.8550   -5.3450 ha        1 BI5      0.152000
     37 H17        -0.9600   -9.3660   -6.7140 ha        1 BI5      0.151000
     38 H18        -1.1860   -7.1780   -7.8900 ha        1 BI5      0.152000
     39 H19         0.6270   -5.4570   -7.6980 ha        1 BI5      0.153000
     40 H22         2.3340   -2.4620   -0.9440 hn        1 BI5      0.465800
@<TRIPOS>BOND
     1    1    2 ar  
     2    1    6 ar  
     3    2    3 ar  
     4    2    7 1   
     5    3    4 ar  
     6    3   24 1   
     7    4    5 ar  
     8    4   25 1   
     9    5    6 ar  
    10    5   26 1   
    11    6   27 1   
    12    7    8 1   
    13    7   28 1   
    14    7   29 1   
    15    8    9 1   
    16    8   30 1   
    17    8   40 1   
    18    9   10 1   
    19    9   23 2   
    20   10   11 ar  
    21   10   15 ar  
    22   11   12 ar  
    23   11   31 1   
    24   12   13 ar  
    25   12   32 1   
    26   13   14 ar  
    27   13   16 1   
    28   14   15 ar  
    29   14   33 1   
    30   15   34 1   
    31   16   17 1   
    32   17   18 ar  
    33   17   22 ar  
    34   18   19 ar  
    35   18   35 1   
    36   19   20 ar  
    37   19   36 1   
    38   20   21 ar  
    39   20   37 1   
    40   21   22 ar  
    41   21   38 1   
    42   22   39 1   
@<TRIPOS>SUBSTRUCTURE
     1 BI5         1 TEMP              0 ****  ****    0 ROOT
