@<TRIPOS>MOLECULE
BI5
   39    41     1     0     0
SMALL
bcc


@<TRIPOS>ATOM
      1 N1          4.0300    1.2950   -0.2050 nb        1 BI5     -0.679000
      2 C1          4.5540    0.0460   -0.1540 ca        1 BI5      0.374600
      3 C2          5.7700   -0.2410    0.5020 ca        1 BI5     -0.233300
      4 C3          6.4650    0.8000    1.1190 ca        1 BI5     -0.089000
      5 C4          5.9360    2.0890    1.0720 ca        1 BI5     -0.246300
      6 C5          4.7150    2.2820    0.4000 ca        1 BI5      0.400200
      7 C6          3.8400   -1.0980   -0.8540 c3        1 BI5      0.034700
      8 N2          2.4070   -1.0380   -0.8570 n         1 BI5     -0.541900
      9 C7          1.6520   -1.7880    0.0350 c         1 BI5      0.667700
     10 C8          0.1960   -1.4840    0.1210 ca        1 BI5     -0.168600
     11 C9         -0.6950   -2.5590    0.2500 ca        1 BI5     -0.063500
     12 C10        -2.0630   -2.3340    0.3410 ca        1 BI5     -0.176500
     13 C11        -2.5380   -1.0100    0.3200 ca        1 BI5      0.135100
     14 C12        -1.6560    0.0710    0.2100 ca        1 BI5     -0.176500
     15 C13        -0.2880   -0.1730    0.1100 ca        1 BI5     -0.063500
     16 O1         -3.9080   -0.8770    0.4910 os        1 BI5     -0.248200
     17 C14        -4.4900    0.3080    0.0420 ca        1 BI5      0.094100
     18 C15        -5.4390    0.8900    0.8940 ca        1 BI5     -0.147500
     19 C16        -6.1470    2.0040    0.4460 ca        1 BI5     -0.112000
     20 C17        -5.9060    2.5330   -0.8220 ca        1 BI5     -0.142000
     21 C18        -4.9550    1.9460   -1.6580 ca        1 BI5     -0.112000
     22 C19        -4.2390    0.8280   -1.2340 ca        1 BI5     -0.147500
     23 O2          2.1590   -2.7310    0.6760 o         1 BI5     -0.604100
     24 H2          6.1550   -1.2700    0.5300 ha        1 BI5      0.148000
     25 H3          7.4150    0.6030    1.6370 ha        1 BI5      0.140000
     26 H4          6.4490    2.9350    1.5450 ha        1 BI5      0.145000
     27 H5          4.2550    3.2850    0.3390 h4        1 BI5      0.021100
     28 H61         4.1630   -2.0680   -0.3730 h1        1 BI5      0.077700
     29 H62         4.1880   -1.0960   -1.9300 h1        1 BI5      0.077700
     30 HN2         2.0020   -0.2080   -1.2250 hn        1 BI5      0.315500
     31 H9         -0.2960   -3.5870    0.2840 ha        1 BI5      0.151000
     32 H10        -2.7730   -3.1670    0.4410 ha        1 BI5      0.154000
     33 H12        -2.0410    1.1020    0.2070 ha        1 BI5      0.154000
     34 H13         0.4020    0.6830    0.0430 ha        1 BI5      0.151000
     35 H15        -5.6210    0.4590    1.8880 ha        1 BI5      0.150000
     36 H16        -6.8990    2.4680    1.1020 ha        1 BI5      0.137000
     37 H17        -6.4670    3.4140   -1.1650 ha        1 BI5      0.136000
     38 H18        -4.7690    2.3630   -2.6590 ha        1 BI5      0.137000
     39 H19        -3.4890    0.3550   -1.8840 ha        1 BI5      0.150000
@<TRIPOS>BOND
     1    1    2 ar  
     2    1    6 ar  
     3    2    3 ar  
     4    2    7 1   
     5    3    4 ar  
     6    3   24 1   
     7    4    5 ar  
     8    4   25 1   
     9    5    6 ar  
    10    5   26 1   
    11    6   27 1   
    12    7    8 1   
    13    7   28 1   
    14    7   29 1   
    15    8    9 1   
    16    8   30 1   
    17    9   10 1   
    18    9   23 2   
    19   10   11 ar  
    20   10   15 ar  
    21   11   12 ar  
    22   11   31 1   
    23   12   13 ar  
    24   12   32 1   
    25   13   14 ar  
    26   13   16 1   
    27   14   15 ar  
    28   14   33 1   
    29   15   34 1   
    30   16   17 1   
    31   17   18 ar  
    32   17   22 ar  
    33   18   19 ar  
    34   18   35 1   
    35   19   20 ar  
    36   19   36 1   
    37   20   21 ar  
    38   20   37 1   
    39   21   22 ar  
    40   21   38 1   
    41   22   39 1   
@<TRIPOS>SUBSTRUCTURE
     1 BI5         1 TEMP              0 ****  ****    0 ROOT
