@<TRIPOS>MOLECULE
BI5
   39    34     1     0     0
SMALL
bcc


@<TRIPOS>ATOM
      1 N1          2.0500    4.7330    0.6400 n1        1 BI5     -0.153000
      2 C1          0.7230    4.5680    0.8770 c1        1 BI5     -0.047000
      3 C2         -0.2000    5.3500    0.2180 c1        1 BI5     -0.169000
      4 C3          0.2220    6.3030   -0.6850 c1        1 BI5     -0.130500
      5 C4          1.5470    6.4690   -0.9240 c1        1 BI5     -0.130500
      6 C5          2.4740    5.6780   -0.2570 c1        1 BI5     -0.065000
      7 C6          0.2520    3.5270    1.8840 c3        1 BI5      0.013000
      8 N2          0.4360    2.2130    1.3310 n         1 BI5     -0.351000
      9 C7          0.0080    1.0130    2.1050 c2        1 BI5      0.342000
     10 C8          0.2530   -0.3850    1.5490 c2        1 BI5     -0.147000
     11 C9          0.9140   -0.5510    0.3460 c2        1 BI5     -0.079000
     12 C10         1.0940   -1.8300   -0.1790 c1        1 BI5     -0.158000
     13 C11         0.6090   -2.9370    0.5060 c1        1 BI5      0.090000
     14 C12        -0.0550   -2.7680    1.7150 c1        1 BI5     -0.193000
     15 C13        -0.2340   -1.5030    2.2370 c1        1 BI5     -0.049000
     16 O1          0.7730   -4.2420   -0.0370 os        1 BI5     -0.159000
     17 C14        -0.3220   -4.5350   -0.9120 c2        1 BI5      0.049000
     18 C15        -1.3520   -5.3570   -0.4820 c2        1 BI5     -0.135000
     19 C16        -2.3770   -5.7310   -1.3790 c1        1 BI5     -0.113000
     20 C17        -2.3510   -5.2790   -2.6790 c1        1 BI5     -0.130500
     21 C18        -1.3140   -4.4530   -3.1060 c1        1 BI5     -0.130500
     22 C19        -0.2990   -4.0840   -2.2140 c1        1 BI5     -0.162000
     23 O2         -0.5680    1.1490    3.1550 o         1 BI5     -0.366000
     24 H2         -1.1190    5.2310    0.3850 ha        1 BI5      0.148000
     25 H3         -0.4710    6.8940   -1.1810 ha        1 BI5      0.139500
     26 H4          1.8440    7.1370   -1.5580 ha        1 BI5      0.139500
     27 H5          3.3780    5.7890   -0.4190 ha        1 BI5      0.158000
     28 H61        -0.7520    3.6760    2.0900 h1        1 BI5      0.117000
     29 H62         0.7600    3.6080    2.6950 h1        1 BI5      0.117000
     30 HN2         0.8290    2.1130    0.5240 hn        1 BI5      0.230000
     31 H9          1.2660    0.2570   -0.1580 ha        1 BI5      0.144000
     32 H10         1.5250   -1.9400   -0.9640 ha        1 BI5      0.155000
     33 H12        -0.4020   -3.5600    2.2040 ha        1 BI5      0.154000
     34 H13        -0.7310   -1.3800    3.1410 ha        1 BI5      0.158000
     35 H15        -1.3670   -5.6830    0.4550 ha        1 BI5      0.151000
     36 H16        -3.1180   -6.3190   -1.0750 ha        1 BI5      0.137000
     37 H17        -3.0640   -5.5390   -3.3030 ha        1 BI5      0.139500
     38 H18        -1.2920   -4.1300   -4.0290 ha        1 BI5      0.139500
     39 H19         0.4310   -3.4980   -2.5160 ha        1 BI5      0.150000
@<TRIPOS>BOND
     1    1    6 1   
     2    2    3 1   
     3    2    7 1   
     4    3   24 1   
     5    4    5 1   
     6    4   25 1   
     7    5   26 1   
     8    6   27 1   
     9    7    8 1   
    10    7   28 1   
    11    7   29 1   
    12    8    9 1   
    13    8   30 1   
    14    9   10 1   
    15    9   23 1   
    16   10   11 1   
    17   10   15 1   
    18   11   12 1   
    19   11   31 1   
    20   12   32 1   
    21   13   14 1   
    22   13   16 1   
    23   14   33 1   
    24   15   34 1   
    25   16   17 1   
    26   17   18 1   
    27   17   22 1   
    28   18   19 1   
    29   18   35 1   
    30   19   36 1   
    31   20   21 1   
    32   20   37 1   
    33   21   38 1   
    34   22   39 1   
@<TRIPOS>SUBSTRUCTURE
     1 BI5         1 TEMP              0 ****  ****    0 ROOT
