@<TRIPOS>MOLECULE
BI5
   40    42     1     0     0
SMALL
bcc


@<TRIPOS>ATOM
      1 N1          0.5890   -1.1170    0.6180 nb        1 BI5     -0.716000
      2 C1          1.6730   -0.3010    0.5640 ca        1 BI5      0.334600
      3 C2          1.9000    0.7400    1.4820 ca        1 BI5     -0.208300
      4 C3          0.9620    0.9430    2.5010 ca        1 BI5     -0.071000
      5 C4         -0.1560    0.1130    2.5690 ca        1 BI5     -0.209300
      6 C5         -0.2970   -0.9050    1.6030 ca        1 BI5      0.423200
      7 C6          2.7060   -0.4900   -0.5210 c3        1 BI5      0.071500
      8 N2          2.4040   -1.6090   -1.4590 n4        1 BI5     -0.664800
      9 C7          3.4540   -1.7850   -2.5450 c         1 BI5      0.579700
     10 C8          3.2230   -2.8560   -3.4980 ca        1 BI5     -0.263600
     11 C9          4.2010   -3.0140   -4.5080 ca        1 BI5     -0.024000
     12 C10         4.0750   -4.0040   -5.4640 ca        1 BI5     -0.187000
     13 C11         2.9540   -4.8630   -5.4260 ca        1 BI5      0.222100
     14 C12         1.9740   -4.7140   -4.4240 ca        1 BI5     -0.187000
     15 C13         2.1120   -3.7190   -3.4720 ca        1 BI5     -0.024000
     16 O1          2.9160   -5.8110   -6.4120 os        1 BI5     -0.217200
     17 C14         1.8180   -6.6890   -6.4140 ca        1 BI5      0.038100
     18 C15         1.9410   -7.9210   -5.7620 ca        1 BI5     -0.122000
     19 C16         0.9120   -8.8520   -5.9020 ca        1 BI5     -0.117000
     20 C17        -0.2110   -8.5500   -6.6750 ca        1 BI5     -0.108000
     21 C18        -0.3150   -7.3170   -7.3190 ca        1 BI5     -0.117000
     22 C19         0.7010   -6.3700   -7.1950 ca        1 BI5     -0.122000
     23 O2          4.3920   -0.9970   -2.4990 o         1 BI5     -0.449100
     24 H2          2.7920    1.3780    1.4030 ha        1 BI5      0.161000
     25 H3          1.1100    1.7500    3.2360 ha        1 BI5      0.167000
     26 H4         -0.9160    0.2400    3.3540 ha        1 BI5      0.171000
     27 H5         -1.1690   -1.5870    1.6190 h4        1 BI5      0.044100
     28 H61         2.7890    0.4590   -1.1280 hx        1 BI5      0.119700
     29 H62         3.7120   -0.6960   -0.0480 hx        1 BI5      0.119700
     30 HN2         2.3300   -2.4850   -0.9280 hn        1 BI5      0.465800
     31 H9          5.0730   -2.3360   -4.5270 ha        1 BI5      0.150500
     32 H10         4.8310   -4.1350   -6.2550 ha        1 BI5      0.180500
     33 H12         1.1050   -5.3920   -4.4060 ha        1 BI5      0.180500
     34 H13         1.3260   -3.6340   -2.7050 ha        1 BI5      0.150500
     35 H15         2.8400   -8.1520   -5.1730 ha        1 BI5      0.153000
     36 H16         0.9930   -9.8320   -5.4050 ha        1 BI5      0.152000
     37 H17        -1.0160   -9.2940   -6.7830 ha        1 BI5      0.151000
     38 H18        -1.1980   -7.0900   -7.9370 ha        1 BI5      0.152000
     39 H19         0.6420   -5.4020   -7.7130 ha        1 BI5      0.153000
     40 H22         1.4940   -1.4390   -1.9050 hn        1 BI5      0.465800
@<TRIPOS>BOND
     1    1    2 ar  
     2    1    6 ar  
     3    2    3 ar  
     4    2    7 1   
     5    3    4 ar  
     6    3   24 1   
     7    4    5 ar  
     8    4   25 1   
     9    5    6 ar  
    10    5   26 1   
    11    6   27 1   
    12    7    8 1   
    13    7   28 1   
    14    7   29 1   
    15    8    9 1   
    16    8   30 1   
    17    8   40 1   
    18    9   10 1   
    19    9   23 2   
    20   10   11 ar  
    21   10   15 ar  
    22   11   12 ar  
    23   11   31 1   
    24   12   13 ar  
    25   12   32 1   
    26   13   14 ar  
    27   13   16 1   
    28   14   15 ar  
    29   14   33 1   
    30   15   34 1   
    31   16   17 1   
    32   17   18 ar  
    33   17   22 ar  
    34   18   19 ar  
    35   18   35 1   
    36   19   20 ar  
    37   19   36 1   
    38   20   21 ar  
    39   20   37 1   
    40   21   22 ar  
    41   21   38 1   
    42   22   39 1   
@<TRIPOS>SUBSTRUCTURE
     1 BI5         1 TEMP              0 ****  ****    0 ROOT
