@<TRIPOS>MOLECULE
BI5
   40    42     1     0     0
SMALL
bcc


@<TRIPOS>ATOM
      1 N1          0.5500   -1.1090    0.5990 nb        1 BI5     -0.716000
      2 C1          1.6300   -0.2880    0.5500 ca        1 BI5      0.334600
      3 C2          1.8450    0.7580    1.4660 ca        1 BI5     -0.208300
      4 C3          0.8980    0.9600    2.4770 ca        1 BI5     -0.071000
      5 C4         -0.2160    0.1250    2.5400 ca        1 BI5     -0.209300
      6 C5         -0.3450   -0.8970    1.5760 ca        1 BI5      0.423200
      7 C6          2.6720   -0.4750   -0.5260 c3        1 BI5      0.071500
      8 N2          2.3820   -1.5990   -1.4620 ny        1 BI5     -0.664800
      9 C7          3.4420   -1.7730   -2.5390 c         1 BI5      0.579700
     10 C8          3.2240   -2.8500   -3.4900 ca        1 BI5     -0.263600
     11 C9          4.2110   -3.0070   -4.4910 ca        1 BI5     -0.024000
     12 C10         4.0980   -4.0020   -5.4440 ca        1 BI5     -0.187000
     13 C11         2.9810   -4.8670   -5.4110 ca        1 BI5      0.222100
     14 C12         1.9920   -4.7190   -4.4180 ca        1 BI5     -0.187000
     15 C13         2.1170   -3.7190   -3.4690 ca        1 BI5     -0.024000
     16 O1          2.9560   -5.8190   -6.3930 os        1 BI5     -0.217200
     17 C14         1.8630   -6.7030   -6.4000 ca        1 BI5      0.038100
     18 C15         1.9860   -7.9310   -5.7400 ca        1 BI5     -0.122000
     19 C16         0.9630   -8.8680   -5.8840 ca        1 BI5     -0.117000
     20 C17        -0.1540   -8.5770   -6.6690 ca        1 BI5     -0.108000
     21 C18        -0.2590   -7.3470   -7.3210 ca        1 BI5     -0.117000
     22 C19         0.7510   -6.3940   -7.1920 ca        1 BI5     -0.122000
     23 O2          4.3750   -0.9800   -2.4900 o         1 BI5     -0.449100
     24 H2          2.7340    1.4000    1.3910 ha        1 BI5      0.161000
     25 H3          1.0370    1.7700    3.2110 ha        1 BI5      0.167000
     26 H4         -0.9830    0.2510    3.3180 ha        1 BI5      0.171000
     27 H5         -1.2140   -1.5830    1.5880 h4        1 BI5      0.044100
     28 H61         2.7560    0.4720   -1.1350 hx        1 BI5      0.119700
     29 H62         3.6750   -0.6750   -0.0450 hx        1 BI5      0.119700
     30 HN2         1.4750   -1.4350   -1.9160 hn        1 BI5      0.465800
     31 H9          5.0800   -2.3250   -4.5070 ha        1 BI5      0.150500
     32 H10         4.8610   -4.1330   -6.2280 ha        1 BI5      0.180500
     33 H12         1.1260   -5.4010   -4.4030 ha        1 BI5      0.180500
     34 H13         1.3250   -3.6340   -2.7090 ha        1 BI5      0.150500
     35 H15         2.8800   -8.1550   -5.1410 ha        1 BI5      0.153000
     36 H16         1.0440   -9.8450   -5.3810 ha        1 BI5      0.152000
     37 H17        -0.9550   -9.3250   -6.7800 ha        1 BI5      0.151000
     38 H18        -1.1370   -7.1280   -7.9480 ha        1 BI5      0.152000
     39 H19         0.6920   -5.4290   -7.7160 ha        1 BI5      0.153000
     40 H22         2.3090   -2.4740   -0.9280 hn        1 BI5      0.465800
@<TRIPOS>BOND
     1    1    2 ar  
     2    1    6 ar  
     3    2    3 ar  
     4    2    7 1   
     5    3    4 ar  
     6    3   24 1   
     7    4    5 ar  
     8    4   25 1   
     9    5    6 ar  
    10    5   26 1   
    11    6   27 1   
    12    7    8 1   
    13    7   28 1   
    14    7   29 1   
    15    8    9 1   
    16    8   30 1   
    17    8   40 1   
    18    9   10 1   
    19    9   23 2   
    20   10   11 ar  
    21   10   15 ar  
    22   11   12 ar  
    23   11   31 1   
    24   12   13 ar  
    25   12   32 1   
    26   13   14 ar  
    27   13   16 1   
    28   14   15 ar  
    29   14   33 1   
    30   15   34 1   
    31   16   17 1   
    32   17   18 ar  
    33   17   22 ar  
    34   18   19 ar  
    35   18   35 1   
    36   19   20 ar  
    37   19   36 1   
    38   20   21 ar  
    39   20   37 1   
    40   21   22 ar  
    41   21   38 1   
    42   22   39 1   
@<TRIPOS>SUBSTRUCTURE
     1 BI5         1 TEMP              0 ****  ****    0 ROOT
