@<TRIPOS>MOLECULE
BI6
   70    73     1     0     0
SMALL
bcc


@<TRIPOS>ATOM
      1 C49       111.1580   99.2150   59.5490 c3        1 BI6     -0.052200
      2 C9        111.4530   98.5240   60.8610 c3        1 BI6     -0.087400
      3 C10       110.2390   97.9710   61.6180 c3        1 BI6      0.103700
      4 N3        109.0500   97.6820   60.8180 n         1 BI6     -0.453800
      5 C6        108.9840   96.7080   59.8490 c         1 BI6      0.689500
      6 C5        110.3120   96.1320   59.2880 c3        1 BI6      0.076900
      7 N2        110.1320   94.7790   58.8100 n         1 BI6     -0.533900
      8 C4        110.4050   93.6920   59.6260 c         1 BI6      0.640100
      9 C1        109.9440   92.3050   59.1230 c3        1 BI6      0.056500
     10 C2        108.6680   91.9420   59.9050 c3        1 BI6     -0.086400
     11 C3        107.4900   92.7680   59.4610 c3        1 BI6     -0.108100
     12 N1        110.9720   91.2900   59.1660 n2        1 BI6     -0.600900
     13 O1        111.0310   93.8230   60.6970 o         1 BI6     -0.618100
     14 C7        110.7810   97.0670   58.2090 c2        1 BI6     -0.189200
     15 C8        111.1380   98.3460   58.3510 c2        1 BI6     -0.134200
     16 O2        107.8800   96.3270   59.3960 o         1 BI6     -0.687500
     17 C13       107.8570   98.3090   61.3740 c3        1 BI6      0.038700
     18 C14       107.2910   99.4090   60.4380 c         1 BI6      0.655100
     19 O3        107.4270  100.6210   60.7040 o         1 BI6     -0.620100
     20 N4        106.6120   98.9690   59.3300 n         1 BI6     -0.556900
     21 C15       106.0190   99.8680   58.3640 c3        1 BI6      0.192300
     22 C17       104.5260   99.6380   58.2290 ca        1 BI6     -0.093300
     23 C18       103.6450  100.6910   58.4990 ca        1 BI6     -0.116000
     24 C26       111.7210   91.0950   60.1810 c2        1 BI6      0.450100
     25 C19       102.2690  100.5000   58.3770 ca        1 BI6     -0.131250
     26 C20       101.7660   99.2580   57.9910 ca        1 BI6     -0.127500
     27 C21       102.6410   98.2050   57.7270 ca        1 BI6     -0.131250
     28 C22       104.0180   98.3940   57.8440 ca        1 BI6     -0.116000
     29 C16       106.6620   99.7860   56.9940 ca        1 BI6     -0.093300
     30 C23       107.0420   98.5690   56.4200 ca        1 BI6     -0.116000
     31 C24       107.6150   98.5420   55.1490 ca        1 BI6     -0.131250
     32 C25       107.8120   99.7270   54.4420 ca        1 BI6     -0.127500
     33 C27       106.8680  100.9750   56.2830 ca        1 BI6     -0.116000
     34 C28       107.4380  100.9440   55.0120 ca        1 BI6     -0.131250
     35 C12       108.2620   98.9160   62.7330 c3        1 BI6     -0.084400
     36 C11       109.7840   98.9410   62.7360 c3        1 BI6     -0.087400
     37 H491      110.1800   99.7710   59.6100 hc        1 BI6      0.065200
     38 H492      111.9540   99.9970   59.3890 hc        1 BI6      0.065200
     39 H91C      112.1850   97.6910   60.6840 hc        1 BI6      0.052200
     40 H92C      111.9680   99.2550   61.5420 hc        1 BI6      0.052200
     41 H8        111.4520   98.8850   57.4340 ha        1 BI6      0.125000
     42 H10       110.5650   97.0000   62.1050 h1        1 BI6      0.055700
     43 H111      110.2000   98.6110   63.7180 hc        1 BI6      0.061200
     44 H112      110.1510   99.9770   62.5280 hc        1 BI6      0.061200
     45 H13       107.0560   97.5250   61.5160 h1        1 BI6      0.082700
     46 H5        111.0870   96.0830   60.1150 h1        1 BI6      0.112700
     47 H2        109.4380   94.6650   58.1040 hn        1 BI6      0.317500
     48 H7        110.8340   96.6190   57.1990 ha        1 BI6      0.136000
     49 H1        109.6760   92.3680   58.0240 h1        1 BI6      0.083700
     50 H21C      108.4360   90.8550   59.7420 hc        1 BI6      0.059200
     51 H22C      108.8550   92.0890   61.0010 hc        1 BI6      0.059200
     52 H31C      107.6490   93.8560   59.6660 hc        1 BI6      0.044367
     53 H32C      107.3050   92.6400   58.3670 hc        1 BI6      0.044367
     54 H33C      106.5730   92.4430   60.0110 hc        1 BI6      0.044367
     55 H261      112.4710   90.2840   60.1020 h4        1 BI6     -0.000700
     56 H262      111.7200   91.6620   61.1330 h4        1 BI6     -0.000700
     57 H121      107.8390   99.9440   62.8530 hc        1 BI6      0.072200
     58 H122      107.8700   98.2720   63.5580 hc        1 BI6      0.072200
     59 H4        106.5630   97.9920   59.1410 hn        1 BI6      0.338500
     60 H15       106.1790  100.9240   58.7560 h1        1 BI6      0.095700
     61 H18       104.0360  101.6710   58.8120 ha        1 BI6      0.135250
     62 H22       104.7060   97.5630   57.6260 ha        1 BI6      0.135250
     63 H19       101.5810  101.3320   58.5870 ha        1 BI6      0.131000
     64 H20       100.6800   99.1090   57.8970 ha        1 BI6      0.130500
     65 H21       102.2480   97.2240   57.4230 ha        1 BI6      0.131000
     66 H23       106.8990   97.6220   56.9640 ha        1 BI6      0.135250
     67 H27       106.5790  101.9380   56.7290 ha        1 BI6      0.135250
     68 H24       107.9100   97.5810   54.7030 ha        1 BI6      0.131000
     69 H25       108.2610   99.7040   53.4380 ha        1 BI6      0.130500
     70 H28       107.5930  101.8820   54.4590 ha        1 BI6      0.131000
@<TRIPOS>BOND
     1    1    2 1   
     2    1   15 1   
     3    1   37 1   
     4    1   38 1   
     5    2    3 1   
     6    2   39 1   
     7    2   40 1   
     8    3    4 1   
     9    3   36 1   
    10    3   42 1   
    11    4    5 1   
    12    4   17 1   
    13    5    6 1   
    14    5   16 2   
    15    6    7 1   
    16    6   14 1   
    17    6   46 1   
    18    7    8 1   
    19    7   47 1   
    20    8    9 1   
    21    8   13 2   
    22    9   10 1   
    23    9   12 1   
    24    9   49 1   
    25   10   11 1   
    26   10   50 1   
    27   10   51 1   
    28   11   52 1   
    29   11   53 1   
    30   11   54 1   
    31   12   24 2   
    32   14   15 2   
    33   14   48 1   
    34   15   41 1   
    35   17   18 1   
    36   17   35 1   
    37   17   45 1   
    38   18   19 2   
    39   18   20 1   
    40   20   21 1   
    41   20   59 1   
    42   21   22 1   
    43   21   29 1   
    44   21   60 1   
    45   22   23 ar  
    46   22   28 ar  
    47   23   25 ar  
    48   23   61 1   
    49   24   55 1   
    50   24   56 1   
    51   25   26 ar  
    52   25   63 1   
    53   26   27 ar  
    54   26   64 1   
    55   27   28 ar  
    56   27   65 1   
    57   28   62 1   
    58   29   30 ar  
    59   29   33 ar  
    60   30   31 ar  
    61   30   66 1   
    62   31   32 ar  
    63   31   68 1   
    64   32   34 ar  
    65   32   69 1   
    66   33   34 ar  
    67   33   67 1   
    68   34   70 1   
    69   35   36 1   
    70   35   57 1   
    71   35   58 1   
    72   36   43 1   
    73   36   44 1   
@<TRIPOS>SUBSTRUCTURE
     1 BI6         1 TEMP              0 ****  ****    0 ROOT
