@<TRIPOS>MOLECULE
BI6
   70    68     1     0     0
SMALL
bcc


@<TRIPOS>ATOM
      1 C49        -4.0860   -1.6540   -1.4150 c3        1 BI6     -0.141000
      2 C9         -2.5770   -1.5560   -1.4230 c3        1 BI6     -0.165000
      3 C10        -2.0740   -1.5530   -0.0410 c3        1 BI6      0.029000
      4 N3         -0.9370   -0.5890    0.1240 n         1 BI6     -0.304000
      5 C6         -1.4180    0.7270    0.6200 c2        1 BI6      0.292000
      6 C5         -2.9270    0.8790    0.4090 c3        1 BI6      0.056000
      7 N2         -3.1870    1.2140   -0.9540 n         1 BI6     -0.363000
      8 C4         -3.7800    2.4910   -1.2780 c2        1 BI6      0.316000
      9 C1         -4.2110    2.7750   -2.6720 c3        1 BI6     -0.071000
     10 C2         -3.7600    4.1920   -3.0680 c3        1 BI6     -0.149000
     11 C3         -4.1700    4.4730   -4.4960 c3        1 BI6     -0.215000
     12 N1         -5.6310    2.6840   -2.7600 n2        1 BI6     -0.198000
     13 O1         -4.0530    3.2700   -0.3940 o         1 BI6     -0.369000
     14 C7         -3.5480   -0.4230    0.8320 c2        1 BI6     -0.190000
     15 C8         -4.5360   -1.1210   -0.0770 c2        1 BI6     -0.138000
     16 O2         -0.7090    1.5690    1.1370 o         1 BI6     -0.381000
     17 C13         0.0390   -1.2770    0.7910 c3        1 BI6     -0.007000
     18 C14         1.3590   -0.7820    0.3740 c2        1 BI6      0.309000
     19 O3          1.4490   -0.0230   -0.5300 o         1 BI6     -0.379000
     20 N4          2.5480   -1.2020    1.0890 n         1 BI6     -0.365000
     21 C15         3.6720   -0.2620    1.2740 c3        1 BI6      0.101000
     22 C17         4.9390   -0.8360    0.5920 c2        1 BI6     -0.086500
     23 C18         5.9020    0.0130    0.0950 c2        1 BI6     -0.115000
     24 C26        -6.1670    1.9570   -3.6610 c1        1 BI6     -0.090000
     25 C19         7.0320   -0.5030   -0.5060 c1        1 BI6     -0.131000
     26 C20         7.1930   -1.8560   -0.6090 c1        1 BI6     -0.132250
     27 C21         6.2250   -2.7070   -0.1100 c1        1 BI6     -0.132250
     28 C22         5.1030   -2.1940    0.4880 c1        1 BI6     -0.117000
     29 C16         3.9430   -0.0710    2.7940 c2        1 BI6     -0.086500
     30 C23         4.0100   -1.1870    3.6420 c2        1 BI6     -0.115000
     31 C24         4.2830   -1.0170    5.0000 c1        1 BI6     -0.131000
     32 C25         4.4910    0.2660    5.5140 c1        1 BI6     -0.132250
     33 C27         4.1490    1.1970    3.3030 c1        1 BI6     -0.117000
     34 C28         4.4250    1.3700    4.6740 c1        1 BI6     -0.132250
     35 C12        -0.2530   -2.8170    0.3780 c3        1 BI6     -0.165000
     36 C11        -1.5180   -2.9520    0.3200 c3        1 BI6     -0.166000
     37 H491       -4.5580   -2.5320   -1.5980 hc        1 BI6      0.091000
     38 H492       -4.3990   -1.1140   -2.1710 hc        1 BI6      0.091000
     39 H91C       -2.3580   -0.6500   -1.8030 hc        1 BI6      0.099500
     40 H92C       -2.2500   -2.3990   -1.8320 hc        1 BI6      0.099500
     41 H8         -5.4530   -1.2400    0.2080 ha        1 BI6      0.123000
     42 H10        -2.7770   -1.3240    0.5560 h1        1 BI6      0.093000
     43 H111       -1.8590   -3.2340    1.1640 hc        1 BI6      0.098000
     44 H112       -1.7630   -3.6190   -0.3960 hc        1 BI6      0.098000
     45 H13         0.0940   -1.1770    1.7490 h1        1 BI6      0.123000
     46 H5         -3.3590    1.6470    0.8810 h1        1 BI6      0.165000
     47 H2         -3.0570    0.5850   -1.6180 hn        1 BI6      0.248000
     48 H7         -3.3680   -0.7860    1.7390 ha        1 BI6      0.137000
     49 H1         -3.8030    2.1190   -3.2810 h1        1 BI6      0.107000
     50 H21C       -2.7920    4.2570   -2.9880 hc        1 BI6      0.095000
     51 H22C       -4.1820    4.8480   -2.4730 hc        1 BI6      0.095000
     52 H31C       -4.2560    3.6320   -4.9810 hc        1 BI6      0.077667
     53 H32C       -3.4840    5.0370   -4.9330 hc        1 BI6      0.077667
     54 H33C       -5.0240    4.9400   -4.5010 hc        1 BI6      0.077667
     55 H261       -5.6050    1.4630   -4.2890 DU        1 BI6      0.097000
     56 H262       -7.1540    1.8940   -3.7240 ha        1 BI6      0.142000
     57 H121        0.1540   -3.0140   -0.5190 hc        1 BI6      0.112000
     58 H122        0.1280   -3.4360    1.0710 hc        1 BI6      0.112000
     59 H4          2.6180   -2.0680    1.3950 hn        1 BI6      0.249000
     60 H15         3.4550    0.5710    0.8860 h1        1 BI6      0.134000
     61 H18         5.7860    0.9750    0.1680 ha        1 BI6      0.138500
     62 H22         4.4270   -2.7890    0.8360 ha        1 BI6      0.134500
     63 H19         7.7360    0.1160   -0.8690 ha        1 BI6      0.134500
     64 H20         7.9920   -2.2220   -1.0350 ha        1 BI6      0.130000
     65 H21         6.3430   -3.6970   -0.1850 ha        1 BI6      0.130000
     66 H23         3.8570   -2.1210    3.2660 ha        1 BI6      0.138500
     67 H27         4.1010    1.9780    2.7100 ha        1 BI6      0.134500
     68 H24         4.3290   -1.7820    5.5800 ha        1 BI6      0.134500
     69 H25         4.6910    0.3920    6.5030 ha        1 BI6      0.130000
     70 H28         4.5690    2.2570    5.0290 ha        1 BI6      0.130000
@<TRIPOS>BOND
     1    1    2 1   
     2    1   15 1   
     3    1   37 1   
     4    1   38 1   
     5    2    3 1   
     6    2   39 1   
     7    2   40 1   
     8    3    4 1   
     9    3   36 1   
    10    3   42 1   
    11    4    5 1   
    12    4   17 1   
    13    5    6 1   
    14    5   16 1   
    15    6    7 1   
    16    6   14 1   
    17    6   46 1   
    18    7    8 1   
    19    7   47 1   
    20    8    9 1   
    21    8   13 1   
    22    9   10 1   
    23    9   12 1   
    24    9   49 1   
    25   10   11 1   
    26   10   50 1   
    27   10   51 1   
    28   11   52 1   
    29   11   53 1   
    30   11   54 1   
    31   12   24 1   
    32   14   15 1   
    33   14   48 1   
    34   15   41 1   
    35   17   18 1   
    36   17   35 1   
    37   17   45 1   
    38   18   19 1   
    39   18   20 1   
    40   20   21 1   
    41   20   59 1   
    42   21   22 1   
    43   21   29 1   
    44   21   60 1   
    45   22   23 1   
    46   22   28 1   
    47   23   25 1   
    48   23   61 1   
    49   24   56 1   
    50   25   63 1   
    51   26   27 1   
    52   26   64 1   
    53   27   65 1   
    54   28   62 1   
    55   29   30 1   
    56   29   33 1   
    57   30   31 1   
    58   30   66 1   
    59   31   68 1   
    60   32   34 1   
    61   32   69 1   
    62   33   67 1   
    63   34   70 1   
    64   35   36 1   
    65   35   57 1   
    66   35   58 1   
    67   36   43 1   
    68   36   44 1   
@<TRIPOS>SUBSTRUCTURE
     1 BI6         1 TEMP              0 ****  ****    0 ROOT
