@<TRIPOS>MOLECULE
BI6
   72    75     1     0     0
SMALL
bcc


@<TRIPOS>ATOM
      1 C49        -0.8390   -0.1820    0.0700 c3        1 BI6     -0.080200
      2 C9          0.6400   -0.4670   -0.0290 c3        1 BI6     -0.100400
      3 C10         1.5340    0.2080    1.0130 c3        1 BI6      0.094700
      4 N3          0.9520    0.4390    2.3430 n         1 BI6     -0.434800
      5 C6          0.4070   -0.5010    3.1700 c         1 BI6      0.705500
      6 C5          0.0710   -1.8990    2.6040 c3        1 BI6      0.126700
      7 N2          0.1240   -2.9270    3.7020 n4        1 BI6     -0.668800
      8 C4          1.4680   -3.6090    3.8750 c         1 BI6      0.566100
      9 C1          1.4750   -4.9020    4.7050 c3        1 BI6      0.061500
     10 C2          1.3410   -6.0840    3.7240 c3        1 BI6     -0.093400
     11 C3          2.5820   -6.2650    2.8910 c3        1 BI6     -0.116100
     12 N1          0.4630   -4.8310    5.7350 n2        1 BI6     -0.693900
     13 O1          2.4270   -3.0890    3.3300 o         1 BI6     -0.428100
     14 C7         -1.2900   -1.8280    1.9800 c2        1 BI6     -0.282200
     15 C8         -1.6340   -1.1020    0.9110 c2        1 BI6     -0.050200
     16 O2          0.1120   -0.2250    4.3590 o         1 BI6     -0.705500
     17 C13         1.2670    1.7750    2.8420 c3        1 BI6      0.047700
     18 C14        -0.0170    2.5580    3.1640 c         1 BI6      0.527100
     19 O3         -0.7360    3.1270    2.3570 o         1 BI6     -0.408100
     20 N4         -0.4290    2.6100    4.6000 n4        1 BI6     -0.684800
     21 C15         0.0360    3.8950    5.2960 c3        1 BI6      0.273100
     22 C17         1.5100    3.8690    5.5660 ca        1 BI6     -0.178300
     23 C18         2.2510    5.0160    5.2550 ca        1 BI6     -0.111000
     24 C26         0.3710   -5.7150    6.6520 c2        1 BI6      0.523100
     25 C19         3.6180    5.0630    5.5300 ca        1 BI6     -0.116500
     26 C20         4.2540    3.9640    6.1090 ca        1 BI6     -0.079500
     27 C21         3.5180    2.8170    6.4160 ca        1 BI6     -0.116500
     28 C22         2.1510    2.7690    6.1520 ca        1 BI6     -0.111000
     29 C16        -0.8270    4.1120    6.5030 ca        1 BI6     -0.178300
     30 C23        -0.3810    3.8530    7.8020 ca        1 BI6     -0.111000
     31 C24        -1.2130    4.1210    8.8900 ca        1 BI6     -0.116500
     32 C25        -2.4890    4.6450    8.6870 ca        1 BI6     -0.079500
     33 C27        -2.1120    4.6430    6.3010 ca        1 BI6     -0.111000
     34 C28        -2.9380    4.9060    7.3890 ca        1 BI6     -0.116500
     35 C12         2.0620    2.5030    1.7340 c3        1 BI6     -0.084400
     36 C11         2.0190    1.5900    0.5160 c3        1 BI6     -0.092400
     37 H491       -1.0140    0.8720    0.4310 hc        1 BI6      0.091700
     38 H492       -1.2680   -0.2260   -0.9750 hc        1 BI6      0.091700
     39 H91C        1.0030   -0.1140   -1.0370 hc        1 BI6      0.076200
     40 H92C        0.8130   -1.5760   -0.0190 hc        1 BI6      0.076200
     41 H8         -2.6970   -1.1650    0.5870 ha        1 BI6      0.166000
     42 H10         2.4400   -0.4570    1.1650 h1        1 BI6      0.076700
     43 H111        3.0290    1.4910    0.0450 hc        1 BI6      0.091200
     44 H112        1.3150    1.9980   -0.2530 hc        1 BI6      0.091200
     45 H13         1.8910    1.6950    3.7860 h1        1 BI6      0.111700
     46 H5          0.8490   -2.2100    1.8390 hx        1 BI6      0.138700
     47 H2         -0.1160   -2.4730    4.6020 hn        1 BI6      0.484800
     48 H7         -2.0780   -2.4310    2.4700 ha        1 BI6      0.154000
     49 H1          2.5180   -4.9360    5.1580 h1        1 BI6      0.125700
     50 H21C        0.4440   -5.9370    3.0670 hc        1 BI6      0.071200
     51 H22C        1.1610   -7.0170    4.3260 hc        1 BI6      0.071200
     52 H31C        2.4270   -7.0980    2.1610 hc        1 BI6      0.062033
     53 H32C        3.4590   -6.5250    3.5330 hc        1 BI6      0.062033
     54 H33C        2.8280   -5.3360    2.3210 hc        1 BI6      0.062033
     55 H261        1.0070   -6.6140    6.7770 h4        1 BI6      0.025300
     56 H262       -0.4280   -5.5750    7.4110 h4        1 BI6      0.025300
     57 H121        1.6180    3.5030    1.5020 hc        1 BI6      0.094200
     58 H122        3.1140    2.6610    2.0840 hc        1 BI6      0.094200
     59 H4         -0.0520    1.7890    5.0960 hn        1 BI6      0.470300
     60 H15        -0.1870    4.7230    4.5470 hx        1 BI6      0.110700
     61 H18         1.7570    5.8970    4.8110 ha        1 BI6      0.141250
     62 H22         1.5850    1.8710    6.4440 ha        1 BI6      0.141250
     63 H19         4.1920    5.9750    5.2990 ha        1 BI6      0.162000
     64 H20         5.3320    4.0040    6.3330 ha        1 BI6      0.166000
     65 H21         4.0170    1.9550    6.8870 ha        1 BI6      0.162000
     66 H23         0.6330    3.4600    7.9780 ha        1 BI6      0.141250
     67 H27        -2.4640    4.8780    5.2840 ha        1 BI6      0.141250
     68 H24        -0.8520    3.9270    9.9130 ha        1 BI6      0.162000
     69 H25        -3.1410    4.8640    9.5490 ha        1 BI6      0.166000
     70 H28        -3.9420    5.3310    7.2290 ha        1 BI6      0.162000
     71 H221       -0.5810   -3.6530    3.5190 hn        1 BI6      0.484800
     72 H42        -1.4560    2.5870    4.6640 hn        1 BI6      0.470300
@<TRIPOS>BOND
     1    1    2 1   
     2    1   15 1   
     3    1   37 1   
     4    1   38 1   
     5    2    3 1   
     6    2   39 1   
     7    2   40 1   
     8    3    4 1   
     9    3   36 1   
    10    3   42 1   
    11    4    5 1   
    12    4   17 1   
    13    5    6 1   
    14    5   16 2   
    15    6    7 1   
    16    6   14 1   
    17    6   46 1   
    18    7    8 1   
    19    7   47 1   
    20    7   71 1   
    21    8    9 1   
    22    8   13 2   
    23    9   10 1   
    24    9   12 1   
    25    9   49 1   
    26   10   11 1   
    27   10   50 1   
    28   10   51 1   
    29   11   52 1   
    30   11   53 1   
    31   11   54 1   
    32   12   24 2   
    33   14   15 2   
    34   14   48 1   
    35   15   41 1   
    36   17   18 1   
    37   17   35 1   
    38   17   45 1   
    39   18   19 2   
    40   18   20 1   
    41   20   21 1   
    42   20   59 1   
    43   20   72 1   
    44   21   22 1   
    45   21   29 1   
    46   21   60 1   
    47   22   23 ar  
    48   22   28 ar  
    49   23   25 ar  
    50   23   61 1   
    51   24   55 1   
    52   24   56 1   
    53   25   26 ar  
    54   25   63 1   
    55   26   27 ar  
    56   26   64 1   
    57   27   28 ar  
    58   27   65 1   
    59   28   62 1   
    60   29   30 ar  
    61   29   33 ar  
    62   30   31 ar  
    63   30   66 1   
    64   31   32 ar  
    65   31   68 1   
    66   32   34 ar  
    67   32   69 1   
    68   33   34 ar  
    69   33   67 1   
    70   34   70 1   
    71   35   36 1   
    72   35   57 1   
    73   35   58 1   
    74   36   43 1   
    75   36   44 1   
@<TRIPOS>SUBSTRUCTURE
     1 BI6         1 TEMP              0 ****  ****    0 ROOT
