@<TRIPOS>MOLECULE
BI6
   72    75     1     0     0
SMALL
bcc


@<TRIPOS>ATOM
      1 C49        -0.6710   -0.2920    0.0250 c3        1 BI6     -0.080200
      2 C9          0.8190   -0.5350   -0.0130 c3        1 BI6     -0.100400
      3 C10         1.6530    0.1830    1.0500 c3        1 BI6      0.094700
      4 N3          1.0140    0.4190    2.3530 n         1 BI6     -0.434800
      5 C6          0.4650   -0.5230    3.1750 c         1 BI6      0.705500
      6 C5          0.1910   -1.9400    2.6220 c3        1 BI6      0.126700
      7 N2          0.2320   -2.9460    3.7400 ny        1 BI6     -0.668800
      8 C4          1.5870   -3.5850    3.9760 c         1 BI6      0.566100
      9 C1          1.6000   -4.8630    4.8280 c3        1 BI6      0.061500
     10 C2          1.5380   -6.0650    3.8640 c3        1 BI6     -0.093400
     11 C3          2.8160   -6.2230    3.0830 c3        1 BI6     -0.116100
     12 N1          0.5470   -4.8060    5.8180 n2        1 BI6     -0.693900
     13 O1          2.5510   -3.0470    3.4580 o         1 BI6     -0.428100
     14 C7         -1.1470   -1.9190    1.9460 c2        1 BI6     -0.282200
     15 C8         -1.4700   -1.2210    0.8520 c2        1 BI6     -0.050200
     16 O2          0.1160   -0.2350    4.3470 o         1 BI6     -0.705500
     17 C13         1.2710    1.7710    2.8390 c3        1 BI6      0.047700
     18 C14        -0.0470    2.5220    3.0990 c         1 BI6      0.527100
     19 O3         -0.7500    3.0570    2.2550 o         1 BI6     -0.408100
     20 N4         -0.5150    2.5860    4.5170 ny        1 BI6     -0.684800
     21 C15        -0.1130    3.8950    5.2070 c3        1 BI6      0.273100
     22 C17         1.3490    3.9150    5.5350 ca        1 BI6     -0.178300
     23 C18         2.0710    5.0770    5.2320 ca        1 BI6     -0.111000
     24 C26         0.4460   -5.6770    6.7470 c2        1 BI6      0.523100
     25 C19         3.4240    5.1660    5.5590 ca        1 BI6     -0.116500
     26 C20         4.0660    4.0960    6.1810 ca        1 BI6     -0.079500
     27 C21         3.3510    2.9340    6.4800 ca        1 BI6     -0.116500
     28 C22         1.9970    2.8430    6.1640 ca        1 BI6     -0.111000
     29 C16        -1.0280    4.1090    6.3750 ca        1 BI6     -0.178300
     30 C23        -0.6270    3.8830    7.6950 ca        1 BI6     -0.111000
     31 C24        -1.5070    4.1460    8.7460 ca        1 BI6     -0.116500
     32 C25        -2.7880    4.6310    8.4840 ca        1 BI6     -0.079500
     33 C27        -2.3180    4.5990    6.1140 ca        1 BI6     -0.111000
     34 C28        -3.1930    4.8570    7.1650 ca        1 BI6     -0.116500
     35 C12         2.0860    2.5040    1.7490 c3        1 BI6     -0.084400
     36 C11         2.1160    1.5700    0.5480 c3        1 BI6     -0.092400
     37 H491       -0.8900    0.7620    0.3600 hc        1 BI6      0.091700
     38 H492       -1.0580   -0.3670   -1.0340 hc        1 BI6      0.091700
     39 H91C        1.2090   -0.1890   -1.0130 hc        1 BI6      0.076200
     40 H92C        1.0240   -1.6380    0.0240 hc        1 BI6      0.076200
     41 H8         -2.5180   -1.3220    0.4890 ha        1 BI6      0.166000
     42 H10         2.5710   -0.4530    1.2480 h1        1 BI6      0.076700
     43 H111        1.4300    1.9450   -0.2550 hc        1 BI6      0.091200
     44 H112        3.1450    1.4930    0.1160 hc        1 BI6      0.091200
     45 H13         1.8590    1.7260    3.8070 h1        1 BI6      0.111700
     46 H5          1.0070   -2.2400    1.8930 hx        1 BI6      0.138700
     47 H2         -0.0560   -2.4850    4.6220 hn        1 BI6      0.484800
     48 H7         -1.9350   -2.5370    2.4160 ha        1 BI6      0.154000
     49 H1          2.6260   -4.8580    5.3210 h1        1 BI6      0.125700
     50 H21C        0.6640   -5.9560    3.1720 hc        1 BI6      0.071200
     51 H22C        1.3630   -6.9930    4.4760 hc        1 BI6      0.071200
     52 H31C        3.6750   -6.4470    3.7630 hc        1 BI6      0.062033
     53 H32C        2.7140   -7.0730    2.3630 hc        1 BI6      0.062033
     54 H33C        3.0570   -5.2980    2.5060 hc        1 BI6      0.062033
     55 H261        1.1030   -6.5540    6.9120 h4        1 BI6      0.025300
     56 H262       -0.3850   -5.5470    7.4710 h4        1 BI6      0.025300
     57 H121        1.6220    3.4870    1.4830 hc        1 BI6      0.094200
     58 H122        3.1190    2.6990    2.1360 hc        1 BI6      0.094200
     59 H4         -0.1350    1.7840    5.0410 hn        1 BI6      0.470300
     60 H15        -0.3290    4.7040    4.4350 hx        1 BI6      0.110700
     61 H18         1.5710    5.9360    4.7540 ha        1 BI6      0.141250
     62 H22         1.4450    1.9340    6.4490 ha        1 BI6      0.141250
     63 H19         3.9810    6.0910    5.3340 ha        1 BI6      0.162000
     64 H20         5.1340    4.1700    6.4470 ha        1 BI6      0.166000
     65 H21         3.8540    2.0940    6.9850 ha        1 BI6      0.162000
     66 H23         0.3900    3.5210    7.9180 ha        1 BI6      0.141250
     67 H27        -2.6360    4.8080    5.0810 ha        1 BI6      0.141250
     68 H24        -1.1820    3.9790    9.7850 ha        1 BI6      0.162000
     69 H25        -3.4790    4.8460    9.3160 ha        1 BI6      0.166000
     70 H28        -4.2010    5.2520    6.9590 ha        1 BI6      0.162000
     71 H221       -0.4450   -3.6960    3.5430 hn        1 BI6      0.484800
     72 H42        -1.5430    2.5350    4.5420 hn        1 BI6      0.470300
@<TRIPOS>BOND
     1    1    2 1   
     2    1   15 1   
     3    1   37 1   
     4    1   38 1   
     5    2    3 1   
     6    2   39 1   
     7    2   40 1   
     8    3    4 1   
     9    3   36 1   
    10    3   42 1   
    11    4    5 1   
    12    4   17 1   
    13    5    6 1   
    14    5   16 2   
    15    6    7 1   
    16    6   14 1   
    17    6   46 1   
    18    7    8 1   
    19    7   47 1   
    20    7   71 1   
    21    8    9 1   
    22    8   13 2   
    23    9   10 1   
    24    9   12 1   
    25    9   49 1   
    26   10   11 1   
    27   10   50 1   
    28   10   51 1   
    29   11   52 1   
    30   11   53 1   
    31   11   54 1   
    32   12   24 2   
    33   14   15 2   
    34   14   48 1   
    35   15   41 1   
    36   17   18 1   
    37   17   35 1   
    38   17   45 1   
    39   18   19 2   
    40   18   20 1   
    41   20   21 1   
    42   20   59 1   
    43   20   72 1   
    44   21   22 1   
    45   21   29 1   
    46   21   60 1   
    47   22   23 ar  
    48   22   28 ar  
    49   23   25 ar  
    50   23   61 1   
    51   24   55 1   
    52   24   56 1   
    53   25   26 ar  
    54   25   63 1   
    55   26   27 ar  
    56   26   64 1   
    57   27   28 ar  
    58   27   65 1   
    59   28   62 1   
    60   29   30 ar  
    61   29   33 ar  
    62   30   31 ar  
    63   30   66 1   
    64   31   32 ar  
    65   31   68 1   
    66   32   34 ar  
    67   32   69 1   
    68   33   34 ar  
    69   33   67 1   
    70   34   70 1   
    71   35   36 1   
    72   35   57 1   
    73   35   58 1   
    74   36   43 1   
    75   36   44 1   
@<TRIPOS>SUBSTRUCTURE
     1 BI6         1 TEMP              0 ****  ****    0 ROOT
