@<TRIPOS>MOLECULE
BI6
   72    75     1     0     0
SMALL
bcc


@<TRIPOS>ATOM
      1 C49        -0.8870   -0.0900    0.0770 c3        1 BI6     -0.080200
      2 C9          0.5910   -0.3750   -0.0450 c3        1 BI6     -0.100400
      3 C10         1.4980    0.2760    1.0020 c3        1 BI6      0.094700
      4 N3          0.9310    0.4780    2.3440 n         1 BI6     -0.434800
      5 C6          0.3940   -0.4790    3.1550 c         1 BI6      0.705500
      6 C5          0.0490   -1.8640    2.5630 c3        1 BI6      0.126700
      7 N2          0.1130   -2.9160    3.6370 n4        1 BI6     -0.668800
      8 C4          1.4580   -3.6020    3.7810 c         1 BI6      0.566100
      9 C1          1.4720   -4.9130    4.5820 c3        1 BI6      0.061500
     10 C2          1.3280   -6.0730    3.5770 c3        1 BI6     -0.093400
     11 C3          2.5600   -6.2360    2.7280 c3        1 BI6     -0.116100
     12 N1          0.4710   -4.8650    5.6240 n2        1 BI6     -0.693900
     13 O1          2.4110   -3.0710    3.2370 o         1 BI6     -0.428100
     14 C7         -1.3190   -1.7780    1.9560 c2        1 BI6     -0.282200
     15 C8         -1.6730   -1.0270    0.9070 c2        1 BI6     -0.050200
     16 O2          0.1120   -0.2280    4.3530 o         1 BI6     -0.705500
     17 C13         1.2540    1.8020    2.8680 c3        1 BI6      0.047700
     18 C14        -0.0260    2.5800    3.2210 c         1 BI6      0.527100
     19 O3         -0.7520    3.1680    2.4340 o         1 BI6     -0.408100
     20 N4         -0.4220    2.6010    4.6620 n4        1 BI6     -0.684800
     21 C15         0.0550    3.8690    5.3810 c3        1 BI6      0.273100
     22 C17         1.5320    3.8310    5.6370 ca        1 BI6     -0.178300
     23 C18         2.2750    4.9820    5.3430 ca        1 BI6     -0.111000
     24 C26         0.3880   -5.7690    6.5220 c2        1 BI6      0.523100
     25 C19         3.6450    5.0160    5.6070 ca        1 BI6     -0.116500
     26 C20         4.2810    3.9030    6.1550 ca        1 BI6     -0.079500
     27 C21         3.5430    2.7530    6.4440 ca        1 BI6     -0.116500
     28 C22         2.1730    2.7160    6.1920 ca        1 BI6     -0.111000
     29 C16        -0.7950    4.0640    6.6000 ca        1 BI6     -0.178300
     30 C23        -0.3380    3.7740    7.8890 ca        1 BI6     -0.111000
     31 C24        -1.1580    4.0220    8.9910 ca        1 BI6     -0.116500
     32 C25        -2.4330    4.5560    8.8120 ca        1 BI6     -0.079500
     33 C27        -2.0800    4.6040    6.4230 ca        1 BI6     -0.111000
     34 C28        -2.8940    4.8470    7.5240 ca        1 BI6     -0.116500
     35 C12         2.0380    2.5530    1.7670 c3        1 BI6     -0.084400
     36 C11         1.9800    1.6670    0.5310 c3        1 BI6     -0.092400
     37 H491       -1.0560    0.9560    0.4630 hc        1 BI6      0.091700
     38 H492       -1.3270   -0.1100   -0.9640 hc        1 BI6      0.091700
     39 H91C        0.9430    0.0000   -1.0490 hc        1 BI6      0.076200
     40 H92C        0.7630   -1.4840   -0.0610 hc        1 BI6      0.076200
     41 H8         -2.7400   -1.0830    0.5930 ha        1 BI6      0.166000
     42 H10         2.4040   -0.3950    1.1290 h1        1 BI6      0.076700
     43 H111        1.2680    2.0940   -0.2220 hc        1 BI6      0.091200
     44 H112        2.9840    1.5770    0.0460 hc        1 BI6      0.091200
     45 H13         1.8870    1.7000    3.8030 h1        1 BI6      0.111700
     46 H5          0.8180   -2.1590    1.7820 hx        1 BI6      0.138700
     47 H2         -0.5950   -3.6370    3.4460 hn        1 BI6      0.484800
     48 H7         -2.1020   -2.3910    2.4400 ha        1 BI6      0.154000
     49 H1          2.5210   -4.9570    5.0230 h1        1 BI6      0.125700
     50 H21C        1.1540   -7.0190    4.1600 hc        1 BI6      0.071200
     51 H22C        0.4250   -5.9110    2.9330 hc        1 BI6      0.071200
     52 H31C        2.8010   -5.2960    2.1750 hc        1 BI6      0.062033
     53 H32C        3.4440   -6.5110    3.3550 hc        1 BI6      0.062033
     54 H33C        2.3980   -7.0530    1.9810 hc        1 BI6      0.062033
     55 H261        1.0250   -6.6710    6.6200 h4        1 BI6      0.025300
     56 H262       -0.4030   -5.6450    7.2910 h4        1 BI6      0.025300
     57 H121        1.5930    3.5590    1.5630 hc        1 BI6      0.094200
     58 H122        3.0940    2.7020    2.1090 hc        1 BI6      0.094200
     59 H4         -1.4490    2.5810    4.7360 hn        1 BI6      0.470300
     60 H15        -0.1710    4.7140    4.6530 hx        1 BI6      0.110700
     61 H18         1.7810    5.8740    4.9240 ha        1 BI6      0.141250
     62 H22         1.6060    1.8140    6.4690 ha        1 BI6      0.141250
     63 H19         4.2200    5.9320    5.3900 ha        1 BI6      0.162000
     64 H20         5.3620    3.9340    6.3700 ha        1 BI6      0.166000
     65 H21         4.0430    1.8790    6.8910 ha        1 BI6      0.162000
     66 H23         0.6750    3.3720    8.0470 ha        1 BI6      0.141250
     67 H27        -2.4400    4.8630    5.4150 ha        1 BI6      0.141250
     68 H24        -0.7890    3.8030   10.0060 ha        1 BI6      0.162000
     69 H25        -3.0760    4.7590    9.6850 ha        1 BI6      0.166000
     70 H28        -3.8970    5.2800    7.3830 ha        1 BI6      0.162000
     71 H221       -0.1170   -2.4810    4.5500 hn        1 BI6      0.484800
     72 H42        -0.0430    1.7680    5.1350 hn        1 BI6      0.470300
@<TRIPOS>BOND
     1    1    2 1   
     2    1   15 1   
     3    1   37 1   
     4    1   38 1   
     5    2    3 1   
     6    2   39 1   
     7    2   40 1   
     8    3    4 1   
     9    3   36 1   
    10    3   42 1   
    11    4    5 1   
    12    4   17 1   
    13    5    6 1   
    14    5   16 2   
    15    6    7 1   
    16    6   14 1   
    17    6   46 1   
    18    7    8 1   
    19    7   47 1   
    20    7   71 1   
    21    8    9 1   
    22    8   13 2   
    23    9   10 1   
    24    9   12 1   
    25    9   49 1   
    26   10   11 1   
    27   10   50 1   
    28   10   51 1   
    29   11   52 1   
    30   11   53 1   
    31   11   54 1   
    32   12   24 2   
    33   14   15 2   
    34   14   48 1   
    35   15   41 1   
    36   17   18 1   
    37   17   35 1   
    38   17   45 1   
    39   18   19 2   
    40   18   20 1   
    41   20   21 1   
    42   20   59 1   
    43   20   72 1   
    44   21   22 1   
    45   21   29 1   
    46   21   60 1   
    47   22   23 ar  
    48   22   28 ar  
    49   23   25 ar  
    50   23   61 1   
    51   24   55 1   
    52   24   56 1   
    53   25   26 ar  
    54   25   63 1   
    55   26   27 ar  
    56   26   64 1   
    57   27   28 ar  
    58   27   65 1   
    59   28   62 1   
    60   29   30 ar  
    61   29   33 ar  
    62   30   31 ar  
    63   30   66 1   
    64   31   32 ar  
    65   31   68 1   
    66   32   34 ar  
    67   32   69 1   
    68   33   34 ar  
    69   33   67 1   
    70   34   70 1   
    71   35   36 1   
    72   35   57 1   
    73   35   58 1   
    74   36   43 1   
    75   36   44 1   
@<TRIPOS>SUBSTRUCTURE
     1 BI6         1 TEMP              0 ****  ****    0 ROOT
