@<TRIPOS>MOLECULE
BI8
   52    45     1     0     0
SMALL
bcc


@<TRIPOS>ATOM
      1 CB0        -3.5430    2.5720   -3.1270 c3        1 BI8      0.172100
      2 NBC         4.1340   -5.0150    1.0400 n3        1 BI8     -0.915800
      3 CBB         2.9850   -4.5460    0.3110 c3        1 BI8      0.163800
      4 CBA         2.3770   -3.3480    1.0360 c3        1 BI8     -0.113400
      5 CAY         1.1400   -2.8810    0.2910 c3        1 BI8      0.218800
      6 NAH         0.5720   -1.7630    0.9650 n3        1 BI8     -0.430800
      7 CAW         0.7930   -0.4850    0.5200 c1        1 BI8      0.014800
      8 CAE        -0.5220   -1.7350    1.8330 c1        1 BI8      0.047800
      9 CAF        -1.2350   -2.7760    2.5200 c1        1 BI8     -0.086500
     10 CAA        -2.3520   -2.4690    3.2510 c1        1 BI8     -0.066500
     11 CAB        -2.7900   -1.1590    3.3250 c1        1 BI8     -0.066500
     12 CAC        -2.0870   -0.1390    2.6490 c1        1 BI8     -0.014500
     13 CAD        -0.9610   -0.4440    1.9110 c1        1 BI8     -0.053000
     14 CAG        -0.1500    0.3370    1.1000 c1        1 BI8     -0.122000
     15 CAI        -0.8020    1.7150    1.3970 c1        1 BI8      0.023100
     16 CAT        -0.3540    2.3720    2.8930 c2        1 BI8      0.676300
     17 OAZ        -0.9300    3.3300    3.3230 o         1 BI8     -0.561300
     18 NAU         0.9020    2.6240    2.6310 n         1 BI8     -0.634500
     19 CAV         0.8210    2.9770    1.0080 c         1 BI8      0.669300
     20 OAX         1.3650    3.9330    0.4460 o         1 BI8     -0.535100
     21 CAJ        -0.4810    2.3760    0.6410 ce        1 BI8     -0.114300
     22 CAK        -0.7870    2.0930   -0.7520 ce        1 BI8     -0.155800
     23 CAM        -0.1140    2.2820   -1.9560 cg        1 BI8     -0.084300
     24 CAP         1.2520    2.3320   -2.2780 c1        1 BI8     -0.066500
     25 CAQ         1.6510    2.5320   -3.6020 c1        1 BI8     -0.066500
     26 CAR         0.6930    2.6820   -4.6070 c1        1 BI8     -0.066500
     27 CAS        -0.6480    2.6330   -4.2950 c1        1 BI8     -0.066500
     28 CAN        -1.0590    2.4300   -2.9500 c1        1 BI8     -0.009000
     29 NAO        -2.3160    2.3330   -2.3690 n2        1 BI8     -0.506600
     30 CAL        -2.1480    2.1250   -1.0150 c1        1 BI8      0.243500
     31 HB01       -3.4970    3.4200   -3.5360 h1        1 BI8      0.052367
     32 HB02       -3.6380    1.8930   -3.8040 h1        1 BI8      0.052367
     33 HB03       -4.3440    2.5410   -2.5000 h1        1 BI8      0.052367
     34 HBC1        4.8920   -4.9970    0.4800 hn        1 BI8      0.353800
     35 HBC2        3.9870   -5.8650    1.3250 hn        1 BI8      0.353800
     36 HBB1        3.2500   -4.2830   -0.5680 h1        1 BI8      0.023700
     37 HBB2        2.3610   -5.2220    0.2530 h1        1 BI8      0.023700
     38 HBA1        3.0230   -2.6290    1.0700 hc        1 BI8      0.064200
     39 HBA2        2.1180   -3.6220    1.9930 hc        1 BI8      0.064200
     40 HAY1        0.4970   -3.6000    0.2590 h1        1 BI8      0.060200
     41 HAY2        1.3880   -2.6200   -0.6280 h1        1 BI8      0.060200
     42 HAW         1.4550   -0.2170   -0.1210 DU        1 BI8      0.180000
     43 HAF        -0.9150   -3.7270    2.4640 ha        1 BI8      0.072500
     44 HAA        -2.8350   -3.1670    3.7160 ha        1 BI8      0.077667
     45 HAB        -3.5330   -0.9530    3.8120 ha        1 BI8      0.077667
     46 HAC        -2.3960    0.7780    2.7020 ha        1 BI8      0.096500
     47 HAU         1.5010    2.9900    3.2180 hn        1 BI8      0.346500
     48 HAP         1.9480    2.2260   -1.5520 ha        1 BI8      0.077667
     49 HAQ         2.5600    2.5650   -3.8170 ha        1 BI8      0.077667
     50 HAR         0.9840    2.8270   -5.5670 ha        1 BI8      0.077667
     51 HAS        -1.3230    2.7400   -5.0070 ha        1 BI8      0.077667
     52 HAL        -2.8910    2.0040   -0.3350 DU        1 BI8      0.180000
@<TRIPOS>BOND
     1    1   29 1   
     2    1   31 1   
     3    1   32 1   
     4    1   33 1   
     5    2    3 1   
     6    2   34 1   
     7    2   35 1   
     8    3    4 1   
     9    3   36 1   
    10    3   37 1   
    11    4    5 1   
    12    4   38 1   
    13    4   39 1   
    14    5    6 1   
    15    5   40 1   
    16    5   41 1   
    17    6    7 1   
    18    6    8 1   
    19    7   14 3   
    20    8    9 3   
    21    9   43 1   
    22   10   11 3   
    23   10   44 1   
    24   11   45 1   
    25   12   13 3   
    26   12   46 1   
    27   15   16 2   
    28   15   21 2   
    29   16   17 1   
    30   16   18 1   
    31   18   19 1   
    32   18   47 1   
    33   19   20 2   
    34   19   21 1   
    35   21   22 1   
    36   22   23 1   
    37   22   30 2   
    38   23   28 3   
    39   24   25 3   
    40   24   48 1   
    41   25   49 1   
    42   26   27 3   
    43   26   50 1   
    44   27   51 1   
    45   29   30 2   
@<TRIPOS>SUBSTRUCTURE
     1 BI8         1 TEMP              0 ****  ****    0 ROOT
