@<TRIPOS>MOLECULE
BI8
   52    56     1     0     0
SMALL
bcc


@<TRIPOS>ATOM
      1 CB0        -3.0480   -2.1620    2.3240 c3        1 BI8      0.027600
      2 NBC        -2.7550    1.3890   -6.1390 n3        1 BI8     -0.915800
      3 CBB        -2.7880    0.4830   -5.0180 c3        1 BI8      0.163800
      4 CBA        -1.4630    0.4200   -4.2590 c3        1 BI8     -0.112400
      5 NAH        -0.4010   -0.8020   -2.3510 na        1 BI8     -0.068400
      6 CAW        -0.1720   -0.0890   -1.1760 cc        1 BI8     -0.070100
      7 CAE         0.8010   -1.4380   -2.7150 ca        1 BI8     -0.053200
      8 CAF         1.1030   -2.2620   -3.8090 ca        1 BI8     -0.142000
      9 CAA         2.3820   -2.7920   -3.8860 ca        1 BI8     -0.113000
     10 CAB         3.3510   -2.5150   -2.9070 ca        1 BI8     -0.151000
     11 CAC         3.0670   -1.7000   -1.8200 ca        1 BI8     -0.073000
     12 CAD         1.7920   -1.1480   -1.7020 ca        1 BI8     -0.064800
     13 CAG         1.1420   -0.2880   -0.7250 cd        1 BI8     -0.110200
     14 CAI         1.6860    0.2770    0.4620 cd        1 BI8     -0.056200
     15 CAT         3.1180    0.7740    0.5430 c         1 BI8      0.705700
     16 OAZ         4.0190    0.7310   -0.2970 o         1 BI8     -0.570500
     17 NAU         3.2760    1.3440    1.8270 n         1 BI8     -0.634500
     18 CAV         2.0750    1.2390    2.5630 c         1 BI8      0.705700
     19 OAX         1.9430    1.6630    3.7130 o         1 BI8     -0.571500
     20 CAJ         1.0760    0.5300    1.6660 cc        1 BI8     -0.054200
     21 CAK        -0.2300    0.1770    2.1090 cc        1 BI8     -0.113200
     22 CAM        -1.1180    0.9080    2.9970 ca        1 BI8     -0.063800
     23 CAP        -1.0380    2.1270    3.6720 ca        1 BI8     -0.072000
     24 CAQ        -2.1140    2.5410    4.4450 ca        1 BI8     -0.152000
     25 CAR        -3.2760    1.7590    4.5610 ca        1 BI8     -0.113000
     26 CAS        -3.3960    0.5400    3.9100 ca        1 BI8     -0.143000
     27 CAN        -2.3170    0.1100    3.1250 ca        1 BI8     -0.054200
     28 NAO        -2.1610   -1.0470    2.3410 na        1 BI8     -0.070400
     29 CAL        -0.9000   -1.0050    1.7520 cd        1 BI8     -0.067100
     30 HB01       -2.9130   -2.7930    3.2450 h1        1 BI8      0.052700
     31 HB02       -4.1090   -1.7960    2.2920 h1        1 BI8      0.052700
     32 HB03       -2.8440   -2.7920    1.4180 h1        1 BI8      0.052700
     33 HBC1       -3.6710    1.5020   -6.5240 hn        1 BI8      0.353800
     34 HBC2       -2.3920    2.2830   -5.8750 hn        1 BI8      0.353800
     35 HBB1       -3.0260   -0.5410   -5.4250 h1        1 BI8      0.023700
     36 HBB2       -3.6030    0.7400   -4.2750 h1        1 BI8      0.023700
     37 HBA1       -1.2410    1.4120   -3.7870 hc        1 BI8      0.064200
     38 HBA2       -0.6220    0.1850   -4.9640 hc        1 BI8      0.064200
     39 HAY1       -1.7360   -1.6610   -3.6910 h1        1 BI8      0.059700
     40 HAY2       -2.4410   -0.4480   -2.5180 h1        1 BI8      0.059700
     41 HAW        -0.9650    0.5050   -0.7120 h4        1 BI8      0.178000
     42 HAF         0.3510   -2.4740   -4.5810 ha        1 BI8      0.134000
     43 HAA         2.6480   -3.4400   -4.7350 ha        1 BI8      0.131000
     44 HAB         4.3560   -2.9510   -3.0120 ha        1 BI8      0.133000
     45 HAC         3.8390   -1.4680   -1.0700 ha        1 BI8      0.153000
     46 HAU         4.1090    1.7550    2.1620 hn        1 BI8      0.346500
     47 HAP        -0.1220    2.7340    3.6050 ha        1 BI8      0.154000
     48 HAQ        -2.0590    3.4980    4.9840 ha        1 BI8      0.133000
     49 HAR        -4.1060    2.1220    5.1860 ha        1 BI8      0.130000
     50 HAS        -4.3030   -0.0700    4.0080 ha        1 BI8      0.131000
     51 HAL        -0.5520   -1.8130    1.1020 h4        1 BI8      0.180000
     52 CAY        -1.5590   -0.6670   -3.1860 c3        1 BI8      0.042300
@<TRIPOS>BOND
     1    1   28 1   
     2    1   30 1   
     3    1   31 1   
     4    1   32 1   
     5    2    3 1   
     6    2   33 1   
     7    2   34 1   
     8    3    4 1   
     9    3   35 1   
    10    3   36 1   
    11    4   37 1   
    12    4   38 1   
    13    4   52 1   
    14    5    6 1   
    15    5    7 1   
    16    5   52 1   
    17    6   13 2   
    18    6   41 1   
    19    7    8 ar  
    20    7   12 ar  
    21    8    9 ar  
    22    8   42 1   
    23    9   10 ar  
    24    9   43 1   
    25   10   11 ar  
    26   10   44 1   
    27   11   12 ar  
    28   11   45 1   
    29   12   13 1   
    30   13   14 1   
    31   14   15 1   
    32   14   20 2   
    33   15   16 2   
    34   15   17 1   
    35   17   18 1   
    36   17   46 1   
    37   18   19 2   
    38   18   20 1   
    39   20   21 1   
    40   21   22 1   
    41   21   29 2   
    42   22   23 ar  
    43   22   27 ar  
    44   23   24 ar  
    45   23   47 1   
    46   24   25 ar  
    47   24   48 1   
    48   25   26 ar  
    49   25   49 1   
    50   26   27 ar  
    51   26   50 1   
    52   27   28 1   
    53   28   29 1   
    54   29   51 1   
    55   39   52 1   
    56   40   52 1   
@<TRIPOS>SUBSTRUCTURE
     1 BI8         1 TEMP              0 ****  ****    0 ROOT
