@<TRIPOS>MOLECULE
BI8
   52    56     1     0     0
SMALL
bcc


@<TRIPOS>ATOM
      1 CB0         1.2040    0.9920    2.9270 c3        1 BI8     -0.077000
      2 NBC         6.1100   -5.3300    3.2090 n4        1 BI8     -0.089000
      3 CBB         6.5780   -6.5270    2.4670 c3        1 BI8     -0.121000
      4 CBA         7.2250   -6.2110    1.1250 c3        1 BI8     -0.214000
      5 NAH         5.4180   -4.6620    0.2860 na        1 BI8     -0.157000
      6 CAW         5.9640   -3.5260    0.9460 c2        1 BI8     -0.197000
      7 CAE         4.0900   -4.8030    0.7630 ca        1 BI8     -0.047000
      8 CAF         3.1080   -5.7500    0.4460 ca        1 BI8     -0.160000
      9 CAA         1.8390   -5.5770    0.9870 ca        1 BI8     -0.107000
     10 CAB         1.5340   -4.4850    1.8120 ca        1 BI8     -0.154000
     11 CAC         2.4950   -3.5310    2.1300 ca        1 BI8     -0.052000
     12 CAD         3.7860   -3.6900    1.6310 ca        1 BI8     -0.110000
     13 CAG         5.0150   -2.9060    1.7560 c2        1 BI8      0.036000
     14 CAI         5.2610   -1.8310    2.6520 c2        1 BI8     -0.372000
     15 CAT         6.3830   -1.9120    3.6030 c2        1 BI8      0.376000
     16 OAZ         7.2060   -2.8520    3.7770 o         1 BI8     -0.505000
     17 NAU         6.3710   -0.7640    4.4030 n         1 BI8     -0.409000
     18 CAV         5.2790    0.0770    4.0290 c2        1 BI8      0.330000
     19 OAX         5.1250    1.1890    4.5250 o         1 BI8     -0.245000
     20 CAJ         4.5370   -0.6500    2.8990 c2        1 BI8      0.173000
     21 CAK         3.3550   -0.1200    2.3900 c2        1 BI8     -0.218000
     22 CAM         2.8900   -0.3110    1.0200 ca        1 BI8     -0.054000
     23 CAP         3.7400   -0.7010   -0.0170 ca        1 BI8     -0.107000
     24 CAQ         3.2880   -0.8040   -1.3310 ca        1 BI8     -0.172000
     25 CAR         1.9640   -0.4990   -1.6310 ca        1 BI8     -0.114000
     26 CAS         1.0970   -0.0760   -0.6290 ca        1 BI8     -0.199000
     27 CAN         1.5370    0.0310    0.7080 ca        1 BI8      0.053000
     28 NAO         0.6390    0.4090    1.7190 nh        1 BI8     -0.302000
     29 CAL         2.5800    0.6280    3.2840 c1        1 BI8     -0.145000
     30 HB01       -0.1520    0.9100    1.3670 hn        1 BI8      0.172000
     31 HB02        0.5320    0.6680    3.7780 h1        1 BI8      0.100000
     32 HB03        1.1770    2.1260    2.8960 h1        1 BI8      0.100000
     33 HBC1        6.6770   -4.4790    2.9560 hn        1 BI8      0.269667
     34 HBC2        6.1910   -5.4720    4.2150 hn        1 BI8      0.269667
     35 HBB1        5.1300   -5.1110    2.9800 hn        1 BI8      0.269667
     36 HBB2        7.3370   -7.0540    3.1160 hx        1 BI8      0.128500
     37 HBA1        5.6970   -7.2150    2.3140 hx        1 BI8      0.128500
     38 HBA2        8.0060   -5.4130    1.2510 hc        1 BI8      0.121500
     39 HAY1        7.7500   -7.1450    0.7860 hc        1 BI8      0.121500
     40 HAY2        6.8650   -5.5610   -0.8970 h1        1 BI8      0.112500
     41 HAW         6.9830   -3.2010    0.7240 h4        1 BI8      0.179000
     42 HAF         5.5840   -6.6800   -0.2330 h1        1 BI8      0.112500
     43 HAA         3.3200   -6.5860   -0.2340 ha        1 BI8      0.131000
     44 HAB         1.0490   -6.3050    0.7450 ha        1 BI8      0.133000
     45 HAC         0.5080   -4.3690    2.1940 ha        1 BI8      0.142000
     46 HAU         7.0300   -0.5580    5.1070 hn        1 BI8      0.247000
     47 HAP         4.7920   -0.9330    0.2150 ha        1 BI8      0.132000
     48 HAQ         3.9770   -1.1230   -2.1240 ha        1 BI8      0.118000
     49 HAR         1.5990   -0.5820   -2.6650 ha        1 BI8      0.117000
     50 HAS         0.0580    0.1770   -0.8880 ha        1 BI8      0.119000
     51 HAL         2.2470   -2.6410    2.7320 ha        1 BI8      0.175000
     52 CAY         6.2480   -5.8040    0.0180 c3        1 BI8     -0.041000
@<TRIPOS>BOND
     1    1   28 1   
     2    1   29 1   
     3    1   31 1   
     4    1   32 1   
     5    2    3 1   
     6    2   33 1   
     7    2   34 1   
     8    2   35 1   
     9    3    4 1   
    10    3   36 1   
    11    3   37 1   
    12    4   38 1   
    13    4   39 1   
    14    4   52 1   
    15    5    6 1   
    16    5    7 1   
    17    5   52 1   
    18    6   13 1   
    19    6   41 1   
    20    7    8 1   
    21    7   12 1   
    22    8    9 1   
    23    8   43 1   
    24    9   10 1   
    25    9   44 1   
    26   10   11 1   
    27   10   45 1   
    28   11   12 1   
    29   11   51 1   
    30   12   13 1   
    31   13   14 1   
    32   14   15 1   
    33   14   20 1   
    34   15   16 1   
    35   15   17 1   
    36   17   18 1   
    37   17   46 1   
    38   18   19 1   
    39   18   20 1   
    40   20   21 1   
    41   21   22 1   
    42   21   29 1   
    43   22   23 1   
    44   22   27 1   
    45   23   24 1   
    46   23   47 1   
    47   24   25 1   
    48   24   48 1   
    49   25   26 1   
    50   25   49 1   
    51   26   27 1   
    52   26   50 1   
    53   27   28 1   
    54   28   30 1   
    55   40   52 1   
    56   42   52 1   
@<TRIPOS>SUBSTRUCTURE
     1 BI8         1 TEMP              0 ****  ****    0 ROOT
