@<TRIPOS>MOLECULE
BI9
   58    55     1     0     0
SMALL
bcc


@<TRIPOS>ATOM
      1 CBC         6.4730    1.5140   -0.8620 c3        1 BI9     -0.086000
      2 CBE         7.9740    1.6240   -0.8990 c3        1 BI9     -0.027500
      3 OBG         8.5050    2.3010    0.2560 os        1 BI9     -0.269000
      4 CBF         8.0460    1.7610    1.4530 c3        1 BI9     -0.027500
      5 CBD         6.5380    1.6490    1.4940 c3        1 BI9     -0.086000
      6 NBB         6.0100    0.9720    0.3360 n3        1 BI9     -0.234000
      7 CBA         4.5790    1.0350    0.3550 c2        1 BI9      0.071000
      8 CAY         3.8720    0.2880    1.2600 c2        1 BI9     -0.170000
      9 CAS         2.4640    0.3710    1.2980 c1        1 BI9      0.104000
     10 OAT         1.7490   -0.3680    2.2360 o         1 BI9     -0.215000
     11 CAU         1.7670    0.1840    3.5330 c3        1 BI9     -0.072000
     12 CAX         3.8970    1.8910   -0.5440 c1        1 BI9     -0.181000
     13 CAR         2.5130    1.9730   -0.5080 c1        1 BI9     -0.115000
     14 CAL         1.7920    1.2120    0.4160 c2        1 BI9     -0.012000
     15 NAH         0.3180    1.3640    0.5130 n3        1 BI9     -0.217000
     16 C2         -0.5310    0.3190    0.0640 c2        1 BI9      0.164000
     17 N3         -1.8610    0.5360   -0.0780 n2        1 BI9     -0.251000
     18 N1          0.0060   -0.9180   -0.2500 n1        1 BI9     -0.177000
     19 C6         -0.7880   -1.8970   -0.6930 c1        1 BI9      0.006000
     20 C5         -2.1230   -1.6760   -0.8350 c1        1 BI9     -0.228000
     21 CL5        -3.1600   -2.9260   -1.5060 cl        1 BI9      0.027000
     22 C4         -2.6550   -0.4340   -0.5190 c2        1 BI9      0.162000
     23 NAE        -4.0240   -0.2160   -0.6330 n3        1 BI9     -0.240000
     24 CAJ        -4.9630   -1.2070   -0.0980 c2        1 BI9      0.117000
     25 CAQ        -4.6680   -1.8680    1.1020 c2        1 BI9     -0.179000
     26 CAW        -5.5180   -2.8910    1.5760 c1        1 BI9     -0.079000
     27 CAZ        -6.6460   -3.2440    0.8570 c1        1 BI9     -0.123500
     28 CAV        -6.9500   -2.5830   -0.3510 c1        1 BI9     -0.123500
     29 CAP        -6.1010   -1.5600   -0.8250 c1        1 BI9     -0.165000
     30 CAO        -6.4420   -0.8220   -2.0980 c2        1 BI9      0.355000
     31 OAI        -5.7280    0.0780   -2.4870 o         1 BI9     -0.383000
     32 NAN        -7.6620   -1.1800   -2.8560 n         1 BI9     -0.376000
     33 CAM        -8.3500   -0.2160   -3.5400 c3        1 BI9     -0.078000
     34 HBC1        6.1730    0.9430   -1.6040 h1        1 BI9      0.088000
     35 HBC2        6.0610    2.4740   -0.9800 h1        1 BI9      0.088000
     36 HBE1        8.3590    0.7170   -0.9420 h1        1 BI9      0.097000
     37 HBE2        8.2420    2.1270   -1.7150 h1        1 BI9      0.097000
     38 HBF1        8.3470    2.3360    2.1940 h1        1 BI9      0.097000
     39 HBF2        8.4310    0.8710    1.5680 h1        1 BI9      0.097000
     40 HBD1        6.2720    1.1450    2.3110 h1        1 BI9      0.088000
     41 HBD2        6.1750    2.5030    1.5370 h1        1 BI9      0.088000
     42 HAY         4.3310   -0.2320    1.9010 ha        1 BI9      0.153000
     43 HAX         4.3980    2.4200   -1.1810 ha        1 BI9      0.137000
     44 HAU1        2.5320    0.7610    3.6230 h1        1 BI9      0.080333
     45 HAU2        1.8230   -0.5930    4.2470 h1        1 BI9      0.080333
     46 HAU3        0.9780    0.6840    3.6740 h1        1 BI9      0.080333
     47 HAR         1.9960    2.6190   -1.1870 ha        1 BI9      0.136000
     48 HAH        -0.0600    2.1720    0.8680 hn        1 BI9      0.232000
     49 H6         -0.3900   -2.8130   -0.9260 ha        1 BI9      0.180000
     50 HAE        -4.3270    0.5770   -0.9220 hn        1 BI9      0.255000
     51 HAQ        -3.8390   -1.6090    1.6330 ha        1 BI9      0.147000
     52 HAW        -5.3090   -3.3480    2.4110 ha        1 BI9      0.137000
     53 HAZ        -7.2500   -3.9740    1.1970 ha        1 BI9      0.137500
     54 HAV        -7.7720   -2.8390   -0.8710 ha        1 BI9      0.137500
     55 HAN        -7.9350   -2.0440   -2.8940 hn        1 BI9      0.227000
     56 HAM1       -8.8710   -0.6400   -4.2810 h1        1 BI9      0.084000
     57 HAM2       -8.9750    0.2480   -2.9180 h1        1 BI9      0.084000
     58 HAM3       -7.7220    0.4270   -3.9120 h1        1 BI9      0.084000
@<TRIPOS>BOND
     1    1    2 1   
     2    1    6 1   
     3    1   34 1   
     4    1   35 1   
     5    2    3 1   
     6    2   36 1   
     7    2   37 1   
     8    3    4 1   
     9    4    5 1   
    10    4   38 1   
    11    4   39 1   
    12    5    6 1   
    13    5   40 1   
    14    5   41 1   
    15    6    7 1   
    16    7    8 1   
    17    7   12 1   
    18    8    9 1   
    19    8   42 1   
    20    9   14 1   
    21   10   11 1   
    22   11   44 1   
    23   11   45 1   
    24   11   46 1   
    25   12   43 1   
    26   13   14 1   
    27   13   47 1   
    28   14   15 1   
    29   15   16 1   
    30   15   48 1   
    31   16   17 1   
    32   16   18 1   
    33   17   22 1   
    34   19   20 1   
    35   19   49 1   
    36   20   22 1   
    37   22   23 1   
    38   23   24 1   
    39   23   50 1   
    40   24   25 1   
    41   24   29 1   
    42   25   26 1   
    43   25   51 1   
    44   26   52 1   
    45   27   28 1   
    46   27   53 1   
    47   28   54 1   
    48   29   30 1   
    49   30   31 1   
    50   30   32 1   
    51   32   33 1   
    52   32   55 1   
    53   33   56 1   
    54   33   57 1   
    55   33   58 1   
@<TRIPOS>SUBSTRUCTURE
     1 BI9         1 TEMP              0 ****  ****    0 ROOT
