@<TRIPOS>MOLECULE
BI9
   58    61     1     0     0
SMALL
bcc


@<TRIPOS>ATOM
      1 CBC         9.1000   -2.9240   31.7370 c3        1 BI9      0.149300
      2 CBE        10.1180   -3.4460   32.7590 c3        1 BI9      0.122900
      3 OBG        11.3770   -3.7170   32.1570 os        1 BI9     -0.412600
      4 CBF        11.9060   -2.5790   31.4870 c3        1 BI9      0.122900
      5 CBD        10.9330   -2.0410   30.4290 c3        1 BI9      0.149300
      6 NBB         9.6140   -1.7840   30.9860 nh        1 BI9     -0.632000
      7 CBA         8.6800   -1.1550   30.1230 ca        1 BI9      0.162600
      8 CAY         7.4570   -0.6860   30.6570 ca        1 BI9     -0.224000
      9 CAS         6.5590    0.0150   29.8550 ca        1 BI9      0.121100
     10 OAT         5.3440    0.4920   30.3150 os        1 BI9     -0.339900
     11 CAU         5.0410    0.2640   31.6860 c3        1 BI9      0.117700
     12 CAX         8.9530   -0.8990   28.7650 ca        1 BI9     -0.206000
     13 CAR         8.0520   -0.2010   27.9680 ca        1 BI9     -0.049000
     14 CAL         6.8330    0.2720   28.4800 ca        1 BI9      0.066600
     15 NAH         5.8810    0.8980   27.6380 nh        1 BI9     -0.677300
     16 C2          6.1420    2.1650   27.0650 ca        1 BI9      0.894900
     17 N3          7.4500    2.5830   26.9360 nb        1 BI9     -0.790000
     18 N1          5.0280    2.8610   26.5940 nb        1 BI9     -0.761000
     19 C6          5.2790    3.9970   25.9390 ca        1 BI9      0.494200
     20 C5          6.5700    4.5120   25.7310 ca        1 BI9     -0.334200
     21 CL5         6.7850    5.9570   24.8870 cl        1 BI9     -0.061400
     22 C4          7.6690    3.7620   26.2730 ca        1 BI9      0.730200
     23 NAE         8.9590    4.2670   26.1350 nh        1 BI9     -0.745300
     24 CAJ        10.1180    3.6460   26.6290 ca        1 BI9      0.205600
     25 CAQ        10.2000    3.2200   27.9760 ca        1 BI9     -0.127000
     26 CAW        11.3830    2.6910   28.4770 ca        1 BI9     -0.096000
     27 CAZ        12.5130    2.5770   27.6670 ca        1 BI9     -0.157000
     28 CAV        12.4490    2.9840   26.3390 ca        1 BI9     -0.092000
     29 CAP        11.2660    3.5040   25.8060 ca        1 BI9     -0.183600
     30 CAO        11.2360    3.9360   24.3780 c         1 BI9      0.675700
     31 OAI        10.7650    5.0390   24.0240 o         1 BI9     -0.624100
     32 NAN        11.7580    3.0570   23.4520 n         1 BI9     -0.567900
     33 CAM        11.7770    3.3270   22.0500 c3        1 BI9      0.077300
     34 HBC1        8.8210   -3.7710   31.0450 h1        1 BI9      0.048200
     35 HBC2        8.1740   -2.6070   32.2910 h1        1 BI9      0.048200
     36 HBE1       10.2530   -2.7110   33.5960 h1        1 BI9      0.056700
     37 HBE2        9.7810   -4.4360   33.1630 h1        1 BI9      0.056700
     38 HBF1       12.1580   -1.7840   32.2380 h1        1 BI9      0.056700
     39 HBF2       12.8400   -2.9540   30.9920 h1        1 BI9      0.056700
     40 HBD1       11.3410   -1.0700   30.0310 h1        1 BI9      0.048200
     41 HBD2       10.8870   -2.7840   29.5810 h1        1 BI9      0.048200
     42 HAY         7.2220   -0.8530   31.7180 ha        1 BI9      0.143000
     43 HAX         9.8860   -1.2490   28.2990 ha        1 BI9      0.137000
     44 HAU1        4.9840   -0.8310   31.9000 h1        1 BI9      0.047033
     45 HAU2        5.7970    0.7560   32.3450 h1        1 BI9      0.047033
     46 HAU3        4.0370    0.7440   31.8100 h1        1 BI9      0.047033
     47 HAR         8.3060   -0.0210   26.9100 ha        1 BI9      0.156000
     48 HAH         4.9380    0.7940   27.9690 hn        1 BI9      0.445800
     49 H6          4.3890    4.5380   25.5590 h4        1 BI9      0.038100
     50 HAE         9.0970    4.9330   25.3940 hn        1 BI9      0.482800
     51 HAQ         9.3260    3.3120   28.6400 ha        1 BI9      0.160000
     52 HAW        11.4260    2.3680   29.5290 ha        1 BI9      0.139000
     53 HAZ        13.4490    2.1720   28.0760 ha        1 BI9      0.136000
     54 HAV        13.3470    2.9080   25.7060 ha        1 BI9      0.136000
     55 HAN        12.0790    2.1710   23.7580 hn        1 BI9      0.314500
     56 HAM1       11.4100    4.3690   21.8490 h1        1 BI9      0.046033
     57 HAM2       12.8260    3.2260   21.6580 h1        1 BI9      0.046033
     58 HAM3       11.1190    2.5980   21.5040 h1        1 BI9      0.046033
@<TRIPOS>BOND
     1    1    2 1   
     2    1    6 1   
     3    1   34 1   
     4    1   35 1   
     5    2    3 1   
     6    2   36 1   
     7    2   37 1   
     8    3    4 1   
     9    4    5 1   
    10    4   38 1   
    11    4   39 1   
    12    5    6 1   
    13    5   40 1   
    14    5   41 1   
    15    6    7 1   
    16    7    8 ar  
    17    7   12 ar  
    18    8    9 ar  
    19    8   42 1   
    20    9   10 1   
    21    9   14 ar  
    22   10   11 1   
    23   11   44 1   
    24   11   45 1   
    25   11   46 1   
    26   12   13 ar  
    27   12   43 1   
    28   13   14 ar  
    29   13   47 1   
    30   14   15 1   
    31   15   16 1   
    32   15   48 1   
    33   16   17 ar  
    34   16   18 ar  
    35   17   22 ar  
    36   18   19 ar  
    37   19   20 ar  
    38   19   49 1   
    39   20   21 1   
    40   20   22 ar  
    41   22   23 1   
    42   23   24 1   
    43   23   50 1   
    44   24   25 ar  
    45   24   29 ar  
    46   25   26 ar  
    47   25   51 1   
    48   26   27 ar  
    49   26   52 1   
    50   27   28 ar  
    51   27   53 1   
    52   28   29 ar  
    53   28   54 1   
    54   29   30 1   
    55   30   31 2   
    56   30   32 1   
    57   32   33 1   
    58   32   55 1   
    59   33   56 1   
    60   33   57 1   
    61   33   58 1   
@<TRIPOS>SUBSTRUCTURE
     1 BI9         1 TEMP              0 ****  ****    0 ROOT
