@<TRIPOS>MOLECULE
BI9
   59    62     1     0     0
SMALL
bcc


@<TRIPOS>ATOM
      1 CBC         0.3130   -0.8690   -0.1080 c3        1 BI9      0.148300
      2 CBE         1.7920   -0.6550    0.2420 c3        1 BI9      0.122900
      3 OBG         1.9490    0.2410    1.3340 os        1 BI9     -0.402600
      4 CBF         1.2500   -0.2000    2.4900 c3        1 BI9      0.122900
      5 CBD        -0.2440   -0.4050    2.2060 c3        1 BI9      0.148300
      6 NBB        -0.4730   -1.2660    1.0510 nh        1 BI9     -0.636000
      7 CBA        -1.8190   -1.6280    0.8130 ca        1 BI9      0.185600
      8 CAY        -2.4060   -1.5400   -0.4690 ca        1 BI9     -0.250000
      9 CAS        -3.7030   -2.0060   -0.6910 ca        1 BI9      0.142100
     10 OAT        -4.3220   -1.9650   -1.9250 os        1 BI9     -0.340900
     11 CAU        -3.6790   -1.2060   -2.9450 c3        1 BI9      0.114700
     12 CAX        -2.5940   -2.1800    1.8600 ca        1 BI9     -0.201000
     13 CAR        -3.8870   -2.6300    1.6380 ca        1 BI9     -0.050000
     14 CAL        -4.4790   -2.5620    0.3650 ca        1 BI9      0.038600
     15 NAH        -5.8250   -2.9550    0.1640 nu        1 BI9     -0.666300
     16 C2         -6.2050   -4.3040    0.2260 ca        1 BI9      0.907900
     17 N3         -5.4050   -5.1980    0.9190 nb        1 BI9     -0.784000
     18 N1         -7.4350   -4.6330   -0.3590 nb        1 BI9     -0.727000
     19 C6         -7.8500   -5.8880   -0.2090 ca        1 BI9      0.507200
     20 C5         -7.1140   -6.8790    0.4830 ca        1 BI9     -0.322200
     21 Cl5        -7.7140   -8.4490    0.6160 cl        1 BI9     -0.048400
     22 C4         -5.8650   -6.4760    1.0370 ca        1 BI9      0.700200
     23 NAE        -5.1140   -7.4230    1.7680 nu        1 BI9     -0.751300
     24 CAJ        -3.7640   -7.3620    2.0440 ca        1 BI9      0.309600
     25 CAQ        -2.8490   -6.6740    1.1880 ca        1 BI9     -0.153000
     26 CAW        -1.4990   -6.6540    1.4560 ca        1 BI9     -0.030000
     27 CAZ        -0.9730   -7.3340    2.5740 ca        1 BI9     -0.145000
     28 CAV        -1.8230   -8.0070    3.4180 ca        1 BI9     -0.090000
     29 CAP        -3.2240   -8.0180    3.1960 ca        1 BI9     -0.296600
     30 CAO        -4.0990   -8.7050    4.1230 c         1 BI9      0.585700
     31 OAI        -5.1700   -9.2730    3.9470 o         1 BI9     -0.461100
     32 NAN        -3.6230   -8.7050    5.5830 ny        1 BI9     -0.675800
     33 CAM        -4.7430   -8.7140    6.5480 c3        1 BI9      0.082100
     34 HBC1       -0.0840    0.0840   -0.5650 h1        1 BI9      0.050950
     35 HBC2        0.2480   -1.6880   -0.8770 h1        1 BI9      0.050950
     36 HBE1        2.2890   -1.6320    0.4800 h1        1 BI9      0.059950
     37 HBE2        2.3170   -0.1510   -0.6120 h1        1 BI9      0.059950
     38 HBF1        1.3860    0.6280    3.2340 h1        1 BI9      0.059950
     39 HBF2        1.7140   -1.1460    2.8740 h1        1 BI9      0.059950
     40 HBD1       -0.7200    0.6070    2.0490 h1        1 BI9      0.050950
     41 HBD2       -0.7130   -0.8740    3.1140 h1        1 BI9      0.050950
     42 HAY        -1.8490   -1.0980   -1.3080 ha        1 BI9      0.149000
     43 HAX        -2.1790   -2.2670    2.8750 ha        1 BI9      0.138000
     44 HAU1       -3.5000   -0.1570   -2.6080 h1        1 BI9      0.053367
     45 HAU2       -2.7230   -1.6960   -3.2490 h1        1 BI9      0.053367
     46 HAU3       -4.4200   -1.2320   -3.7860 h1        1 BI9      0.053367
     47 HAR        -4.4600   -3.0480    2.4820 ha        1 BI9      0.146000
     48 HAH        -6.3000   -2.4190   -0.5420 hn        1 BI9      0.460800
     49 H6         -8.8260   -6.1360   -0.6740 h4        1 BI9      0.057100
     50 HAE        -5.6420   -8.1970    2.1220 hn        1 BI9      0.476800
     51 HAQ        -3.2220   -6.1620    0.2840 ha        1 BI9      0.188000
     52 HAW        -0.8130   -6.1140    0.7790 ha        1 BI9      0.169000
     53 HAZ         0.1140   -7.3330    2.7510 ha        1 BI9      0.163000
     54 HAV        -1.3890   -8.5800    4.2520 ha        1 BI9      0.119000
     55 HAN        -3.0400   -7.8740    5.7330 hn        1 BI9      0.456800
     56 HAM1       -5.4020   -9.6030    6.3510 hx        1 BI9      0.111033
     57 HAM2       -5.3490   -7.7770    6.4220 hx        1 BI9      0.111033
     58 HAM3       -4.3330   -8.7670    7.5920 hx        1 BI9      0.111033
     59 HAN2       -3.0420   -9.5380    5.7280 hn        1 BI9      0.456800
@<TRIPOS>BOND
     1    1    2 1   
     2    1    6 1   
     3    1   34 1   
     4    1   35 1   
     5    2    3 1   
     6    2   36 1   
     7    2   37 1   
     8    3    4 1   
     9    4    5 1   
    10    4   38 1   
    11    4   39 1   
    12    5    6 1   
    13    5   40 1   
    14    5   41 1   
    15    6    7 1   
    16    7    8 ar  
    17    7   12 ar  
    18    8    9 ar  
    19    8   42 1   
    20    9   10 1   
    21    9   14 ar  
    22   10   11 1   
    23   11   44 1   
    24   11   45 1   
    25   11   46 1   
    26   12   13 ar  
    27   12   43 1   
    28   13   14 ar  
    29   13   47 1   
    30   14   15 1   
    31   15   16 1   
    32   15   48 1   
    33   16   17 ar  
    34   16   18 ar  
    35   17   22 ar  
    36   18   19 ar  
    37   19   20 ar  
    38   19   49 1   
    39   20   21 1   
    40   20   22 ar  
    41   22   23 1   
    42   23   24 1   
    43   23   50 1   
    44   24   25 ar  
    45   24   29 ar  
    46   25   26 ar  
    47   25   51 1   
    48   26   27 ar  
    49   26   52 1   
    50   27   28 ar  
    51   27   53 1   
    52   28   29 ar  
    53   28   54 1   
    54   29   30 1   
    55   30   31 2   
    56   30   32 1   
    57   32   33 1   
    58   32   55 1   
    59   32   59 1   
    60   33   56 1   
    61   33   57 1   
    62   33   58 1   
@<TRIPOS>SUBSTRUCTURE
     1 BI9         1 TEMP              0 ****  ****    0 ROOT
