@<TRIPOS>MOLECULE
BI9
   61    64     1     0     0
SMALL
bcc


@<TRIPOS>ATOM
      1 CBC        -0.3270    1.0670   -1.7600 c3        1 BI9      0.154800
      2 CBE         0.9530    1.7450   -2.2680 c3        1 BI9      0.113900
      3 OBG         1.7040    2.3100   -1.2070 os        1 BI9     -0.371600
      4 CBF         2.1280    1.3100   -0.2970 c3        1 BI9      0.113900
      5 CBD         0.9360    0.6000    0.3610 c3        1 BI9      0.154800
      6 NBB        -0.1810    0.3080   -0.5250 nh        1 BI9     -0.594000
      7 CBA        -1.2240   -0.4420   -0.0720 ca        1 BI9      0.302600
      8 CAY        -2.4100   -0.6300   -0.8490 ca        1 BI9     -0.304000
      9 CAS        -3.4460   -1.4300   -0.3980 ca        1 BI9      0.264100
     10 OAT        -4.6120   -1.6480   -1.0870 os        1 BI9     -0.369900
     11 CAU        -4.8010   -0.9290   -2.3140 c3        1 BI9      0.115700
     12 CAX        -1.1740   -1.1060    1.2120 ca        1 BI9     -0.214000
     13 CAR        -2.2000   -1.8930    1.6550 ca        1 BI9     -0.024000
     14 CAL        -3.3740   -2.0660    0.8800 ca        1 BI9     -0.252400
     15 NAH        -4.4900   -2.8320    1.3820 n4        1 BI9     -0.548100
     16 C2         -4.4030   -4.3140    1.1020 ca        1 BI9      0.755900
     17 N3         -4.7310   -5.1640    2.1180 nb        1 BI9     -0.683000
     18 N1         -4.0130   -4.6930   -0.1730 nb        1 BI9     -0.563000
     19 C6         -3.9650   -6.0000   -0.4180 ca        1 BI9      0.497200
     20 C5         -4.3030   -6.9950    0.5600 ca        1 BI9     -0.170200
     21 CL5        -4.2520   -8.6150    0.1710 cl        1 BI9      0.071600
     22 C4         -4.6890   -6.5020    1.8260 ca        1 BI9      0.495200
     23 NAE        -5.1670   -7.4310    2.8810 n4        1 BI9     -0.629100
     24 CAJ        -4.1210   -8.0960    3.6790 ca        1 BI9      0.026600
     25 CAQ        -2.8110   -7.6100    3.6430 ca        1 BI9     -0.084000
     26 CAW        -1.8030   -8.2230    4.4010 ca        1 BI9     -0.024000
     27 CAZ        -2.1030   -9.3210    5.1970 ca        1 BI9     -0.064000
     28 CAV        -3.4130   -9.8080    5.2480 ca        1 BI9     -0.055000
     29 CAP        -4.4460   -9.2180    4.5080 ca        1 BI9     -0.182600
     30 CAO        -5.8240   -9.7340    4.5840 c         1 BI9      0.561700
     31 OAI        -6.7820   -9.3030    3.9440 o         1 BI9     -0.463100
     32 NAN        -6.1180  -10.8780    5.5140 n4        1 BI9     -0.652800
     33 CAM        -7.5560  -11.2720    5.5310 c3        1 BI9      0.082100
     34 HBC1       -0.6780    0.3680   -2.5730 h1        1 BI9      0.069450
     35 HBC2       -1.1150    1.8590   -1.5950 h1        1 BI9      0.069450
     36 HBE1        0.6800    2.6180   -2.9210 h1        1 BI9      0.083700
     37 HBE2        1.5820    1.0150   -2.8430 h1        1 BI9      0.083700
     38 HBF1        2.7130    1.8640    0.4860 h1        1 BI9      0.083700
     39 HBF2        2.7880    0.5660   -0.8180 h1        1 BI9      0.083700
     40 HBD1        1.3230   -0.3700    0.7880 h1        1 BI9      0.069450
     41 HBD2        0.5560    1.2440    1.2080 h1        1 BI9      0.069450
     42 HAY        -2.5200   -0.1220   -1.8200 ha        1 BI9      0.177000
     43 HAX        -0.3000   -0.9660    1.8700 ha        1 BI9      0.171000
     44 HAU1       -5.8270   -1.2490   -2.6330 h1        1 BI9      0.074367
     45 HAU2       -4.0340   -1.2420   -3.0620 h1        1 BI9      0.074367
     46 HAU3       -4.7660    0.1710   -2.1270 h1        1 BI9      0.074367
     47 HAR        -2.1180   -2.3730    2.6450 ha        1 BI9      0.136000
     48 HAH        -5.3510   -2.4990    0.9060 hn        1 BI9      0.490800
     49 H6         -3.6530   -6.3010   -1.4490 h4        1 BI9      0.120100
     50 HAE        -5.7870   -6.9190    3.5390 hn        1 BI9      0.492800
     51 HAQ        -2.5350   -6.7370    3.0230 ha        1 BI9      0.181000
     52 HAW        -0.7690   -7.8250    4.3580 ha        1 BI9      0.211000
     53 HAZ        -1.3090   -9.8130    5.7950 ha        1 BI9      0.215000
     54 HAV        -3.5880  -10.6820    5.9000 ha        1 BI9      0.165000
     55 HAN        -5.5530  -11.6910    5.2250 hn        1 BI9      0.481300
     56 HAM1       -8.1840  -10.4020    5.8640 hx        1 BI9      0.132700
     57 HAM2       -7.8750  -11.5870    4.5000 hx        1 BI9      0.132700
     58 HAM3       -7.6780  -12.1320    6.2500 hx        1 BI9      0.132700
     59 HAH2       -4.5680   -2.6880    2.3990 hn        1 BI9      0.490800
     60 HAE2       -5.7410   -8.1560    2.4070 hn        1 BI9      0.492800
     61 HAN2       -5.8340  -10.6080    6.4680 hn        1 BI9      0.481300
@<TRIPOS>BOND
     1    1    2 1   
     2    1    6 1   
     3    1   34 1   
     4    1   35 1   
     5    2    3 1   
     6    2   36 1   
     7    2   37 1   
     8    3    4 1   
     9    4    5 1   
    10    4   38 1   
    11    4   39 1   
    12    5    6 1   
    13    5   40 1   
    14    5   41 1   
    15    6    7 1   
    16    7    8 ar  
    17    7   12 ar  
    18    8    9 ar  
    19    8   42 1   
    20    9   10 1   
    21    9   14 ar  
    22   10   11 1   
    23   11   44 1   
    24   11   45 1   
    25   11   46 1   
    26   12   13 ar  
    27   12   43 1   
    28   13   14 ar  
    29   13   47 1   
    30   14   15 1   
    31   15   16 1   
    32   15   48 1   
    33   15   59 1   
    34   16   17 ar  
    35   16   18 ar  
    36   17   22 ar  
    37   18   19 ar  
    38   19   20 ar  
    39   19   49 1   
    40   20   21 1   
    41   20   22 ar  
    42   22   23 1   
    43   23   24 1   
    44   23   50 1   
    45   23   60 1   
    46   24   25 ar  
    47   24   29 ar  
    48   25   26 ar  
    49   25   51 1   
    50   26   27 ar  
    51   26   52 1   
    52   27   28 ar  
    53   27   53 1   
    54   28   29 ar  
    55   28   54 1   
    56   29   30 1   
    57   30   31 2   
    58   30   32 1   
    59   32   33 1   
    60   32   55 1   
    61   32   61 1   
    62   33   56 1   
    63   33   57 1   
    64   33   58 1   
@<TRIPOS>SUBSTRUCTURE
     1 BI9         1 TEMP              0 ****  ****    0 ROOT
