@<TRIPOS>MOLECULE
BI9
   59    62     1     0     0
SMALL
bcc


@<TRIPOS>ATOM
      1 CBC         0.3190   -0.8750   -0.1050 c3        1 BI9      0.148300
      2 CBE         1.7960   -0.6590    0.2510 c3        1 BI9      0.122900
      3 OBG         1.9470    0.2410    1.3400 os        1 BI9     -0.402600
      4 CBF         1.2420   -0.1960    2.4940 c3        1 BI9      0.122900
      5 CBD        -0.2500   -0.4020    2.2040 c3        1 BI9      0.148300
      6 NBB        -0.4730   -1.2680    1.0520 nh        1 BI9     -0.636000
      7 CBA        -1.8170   -1.6310    0.8080 ca        1 BI9      0.185600
      8 CAY        -2.3980   -1.5490   -0.4770 ca        1 BI9     -0.250000
      9 CAS        -3.6930   -2.0170   -0.7040 ca        1 BI9      0.142100
     10 OAT        -4.3070   -1.9810   -1.9410 os        1 BI9     -0.340900
     11 CAU        -3.6590   -1.2260   -2.9610 c3        1 BI9      0.114700
     12 CAX        -2.5980   -2.1790    1.8530 ca        1 BI9     -0.201000
     13 CAR        -3.8890   -2.6300    1.6270 ca        1 BI9     -0.050000
     14 CAL        -4.4750   -2.5680    0.3510 ca        1 BI9      0.038600
     15 NAH        -5.8200   -2.9620    0.1440 nh        1 BI9     -0.666300
     16 C2         -6.2000   -4.3110    0.2100 ca        1 BI9      0.907900
     17 N3         -5.4030   -5.2010    0.9110 nb        1 BI9     -0.784000
     18 N1         -7.4270   -4.6430   -0.3780 nb        1 BI9     -0.727000
     19 C6         -7.8430   -5.8960   -0.2230 ca        1 BI9      0.507200
     20 C5         -7.1110   -6.8850    0.4760 ca        1 BI9     -0.322200
     21 CL5        -7.7110   -8.4540    0.6140 cl        1 BI9     -0.048400
     22 C4         -5.8630   -6.4790    1.0330 ca        1 BI9      0.700200
     23 NAE        -5.1150   -7.4220    1.7720 nh        1 BI9     -0.751300
     24 CAJ        -3.7670   -7.3610    2.0510 ca        1 BI9      0.309600
     25 CAQ        -2.8480   -6.6780    1.1940 ca        1 BI9     -0.153000
     26 CAW        -1.4990   -6.6580    1.4660 ca        1 BI9     -0.030000
     27 CAZ        -0.9770   -7.3330    2.5880 ca        1 BI9     -0.145000
     28 CAV        -1.8300   -8.0010    3.4330 ca        1 BI9     -0.090000
     29 CAP        -3.2300   -8.0120    3.2080 ca        1 BI9     -0.296600
     30 CAO        -4.1080   -8.6920    4.1370 c         1 BI9      0.585700
     31 OAI        -5.1790   -9.2610    3.9610 o         1 BI9     -0.461100
     32 NAN        -3.6370   -8.6850    5.5980 n4        1 BI9     -0.675800
     33 CAM        -4.7590   -8.6840    6.5600 c3        1 BI9      0.082100
     34 HBC1        0.2580   -1.6980   -0.8710 h1        1 BI9      0.050950
     35 HBC2       -0.0760    0.0750   -0.5680 h1        1 BI9      0.050950
     36 HBE1        2.3250   -0.1590   -0.6030 h1        1 BI9      0.059950
     37 HBE2        2.2920   -1.6350    0.4950 h1        1 BI9      0.059950
     38 HBF1        1.3750    0.6360    3.2360 h1        1 BI9      0.059950
     39 HBF2        1.7050   -1.1400    2.8850 h1        1 BI9      0.059950
     40 HBD1       -0.7230   -0.8680    3.1110 h1        1 BI9      0.050950
     41 HBD2       -0.7250    0.6090    2.0400 h1        1 BI9      0.050950
     42 HAY        -1.8370   -1.1100   -1.3160 ha        1 BI9      0.149000
     43 HAX        -2.1870   -2.2620    2.8710 ha        1 BI9      0.138000
     44 HAU1       -4.3950   -1.2560   -3.8060 h1        1 BI9      0.053367
     45 HAU2       -2.7010   -1.7170   -3.2580 h1        1 BI9      0.053367
     46 HAU3       -3.4810   -0.1750   -2.6280 h1        1 BI9      0.053367
     47 HAR        -4.4660   -3.0440    2.4690 ha        1 BI9      0.146000
     48 HAH        -6.2910   -2.4290   -0.5660 hn        1 BI9      0.460800
     49 H6         -8.8170   -6.1470   -0.6920 h4        1 BI9      0.057100
     50 HAE        -5.6460   -8.1940    2.1280 hn        1 BI9      0.476800
     51 HAQ        -3.2190   -6.1710    0.2870 ha        1 BI9      0.187000
     52 HAW        -0.8110   -6.1230    0.7880 ha        1 BI9      0.169000
     53 HAZ         0.1090   -7.3320    2.7680 ha        1 BI9      0.163000
     54 HAV        -1.3980   -8.5690    4.2720 ha        1 BI9      0.119000
     55 HAN        -3.0590   -9.5190    5.7490 hn        1 BI9      0.456800
     56 HAM1       -5.4210   -9.5720    6.3660 hx        1 BI9      0.111033
     57 HAM2       -4.3520   -8.7320    7.6060 hx        1 BI9      0.111033
     58 HAM3       -5.3610   -7.7450    6.4270 hx        1 BI9      0.111033
     59 HAN2       -3.0510   -7.8550    5.7440 hn        1 BI9      0.456800
@<TRIPOS>BOND
     1    1    2 1   
     2    1    6 1   
     3    1   34 1   
     4    1   35 1   
     5    2    3 1   
     6    2   36 1   
     7    2   37 1   
     8    3    4 1   
     9    4    5 1   
    10    4   38 1   
    11    4   39 1   
    12    5    6 1   
    13    5   40 1   
    14    5   41 1   
    15    6    7 1   
    16    7    8 ar  
    17    7   12 ar  
    18    8    9 ar  
    19    8   42 1   
    20    9   10 1   
    21    9   14 ar  
    22   10   11 1   
    23   11   44 1   
    24   11   45 1   
    25   11   46 1   
    26   12   13 ar  
    27   12   43 1   
    28   13   14 ar  
    29   13   47 1   
    30   14   15 1   
    31   15   16 1   
    32   15   48 1   
    33   16   17 ar  
    34   16   18 ar  
    35   17   22 ar  
    36   18   19 ar  
    37   19   20 ar  
    38   19   49 1   
    39   20   21 1   
    40   20   22 ar  
    41   22   23 1   
    42   23   24 1   
    43   23   50 1   
    44   24   25 ar  
    45   24   29 ar  
    46   25   26 ar  
    47   25   51 1   
    48   26   27 ar  
    49   26   52 1   
    50   27   28 ar  
    51   27   53 1   
    52   28   29 ar  
    53   28   54 1   
    54   29   30 1   
    55   30   31 2   
    56   30   32 1   
    57   32   33 1   
    58   32   55 1   
    59   32   59 1   
    60   33   56 1   
    61   33   57 1   
    62   33   58 1   
@<TRIPOS>SUBSTRUCTURE
     1 BI9         1 TEMP              0 ****  ****    0 ROOT
