@<TRIPOS>MOLECULE
BIA
   51    50     1     0     0
SMALL
bcc


@<TRIPOS>ATOM
      1 N2          0.7700    0.6250    0.1070 n3        1 BIA     -0.248000
      2 C3          1.2640   -5.6840    6.5750 c2        1 BIA      0.085000
      3 C4          0.4940    0.5690   -2.3200 c2        1 BIA     -0.321000
      4 C6          1.6210   -4.3290    4.5380 c2        1 BIA      0.331000
      5 C7          0.7980   -5.8400    7.9280 c2        1 BIA      0.001000
      6 O8          2.3230   -5.2190    4.0280 o         1 BIA     -0.334000
      7 O9          0.9860   -7.0900    8.4640 oh        1 BIA     -0.233000
      8 C10        -0.2490    0.2500   -3.4490 c1        1 BIA     -0.126000
      9 C11         1.1280   -4.4710    5.9330 c2        1 BIA     -0.241000
     10 C12         0.5640   -0.7470    2.1490 c2        1 BIA      0.007000
     11 C16         2.6240    1.9840    1.1520 c1        1 BIA     -0.053000
     12 O17        -1.9790   -3.2190    8.8750 o         1 BIA     -0.475200
     13 O18        -1.0990   -1.4690    8.1000 o         1 BIA     -0.475200
     14 C19         0.4320   -3.4050    6.5310 c1        1 BIA     -0.050000
     15 C21         2.0210    1.3690   -0.0040 c3        1 BIA     -0.116000
     16 N23         1.3850   -1.7930    1.7760 n3        1 BIA     -0.272000
     17 C24        -2.0390   -0.5870   -1.9340 c2        1 BIA     -0.125000
     18 C25         0.2740    0.3520    1.4020 c2        1 BIA     -0.200000
     19 C26        -1.2950   -0.2750   -0.8560 c2        1 BIA     -0.142000
     20 C27         1.6560   -2.8890    2.5680 c2        1 BIA      0.059000
     21 C28         0.1890   -3.4380    7.9830 c3        1 BIA     -0.123000
     22 C31         0.0350    0.3330   -1.0150 c2        1 BIA      0.187000
     23 C32         0.2340   -4.7950    8.6190 c2        1 BIA     -0.012000
     24 C37        -1.5720   -0.3470   -3.3220 c3        1 BIA     -0.175000
     25 H3          1.6910   -6.5690    6.0640 ha        1 BIA      0.192000
     26 H4          1.4860    1.0160   -2.4900 ha        1 BIA      0.141000
     27 H5         -0.9710   -4.6070   10.0980 ho        1 BIA      0.265000
     28 H9          0.5670   -7.1090    9.3410 ho        1 BIA      0.245000
     29 H10        -2.3090    0.3260   -3.8540 hc        1 BIA      0.163000
     30 H121       -0.4060    1.1190    1.8190 h4        1 BIA      0.156000
     31 H122        0.6830    1.4360    3.8760 ha        1 BIA      0.001000
     32 H161        2.1320    1.9370    2.1330 ha        1 BIA      0.073000
     33 H162        2.8080    0.6800   -0.4560 h1        1 BIA      0.166000
     34 H19         1.0500   -2.8250    8.4280 h1        1 BIA      0.211000
     35 H211        3.6390   -1.5300   -0.4110 ha        1 BIA      0.001000
     36 H212        1.8830    2.2230   -0.7500 h1        1 BIA      0.166000
     37 H221        0.1190   -0.8260    3.1640 h4        1 BIA      0.176000
     38 H222        0.5960   -2.4100    4.4050 ha        1 BIA      0.177000
     39 H251        0.8330    1.9070    4.3390 ha        1 BIA      0.001000
     40 H252        3.2190   -1.6440   -0.9300 ha        1 BIA      0.001000
     41 H26        -1.6690   -0.4620    0.1660 ha        1 BIA      0.158000
     42 H271        1.7730   -1.7920    0.8560 hn        1 BIA      0.245000
     43 H272        2.3030   -3.6450    2.0660 h4        1 BIA      0.166000
     44 H37        -1.5700   -1.3230   -3.8920 hc        1 BIA      0.163000
     45 C33        -3.4260   -1.2120   -1.7850 c3        1 BIA      0.449000
     46 C22         1.2340   -3.1080    3.8400 c2        1 BIA     -0.323000
     47 N14        -1.0760   -2.6380    8.3330 no        1 BIA      0.809400
     48 O5         -0.0870   -4.9860    9.9330 oh        1 BIA     -0.260000
     49 F37        -3.5410   -2.4470   -2.3750 f         1 BIA     -0.163333
     50 F38        -3.8450   -1.4160   -0.4930 f         1 BIA     -0.163333
     51 F39        -4.4320   -0.4680   -2.3530 f         1 BIA     -0.163333
@<TRIPOS>BOND
     1    1   15 1   
     2    1   18 1   
     3    1   22 1   
     4    2    5 1   
     5    2    9 1   
     6    2   25 1   
     7    3    8 1   
     8    3   22 1   
     9    3   26 1   
    10    4    6 1   
    11    4    9 1   
    12    4   46 1   
    13    5    7 1   
    14    5   23 1   
    15    7   28 1   
    16    8   24 1   
    17    9   14 1   
    18   10   16 1   
    19   10   18 1   
    20   10   37 1   
    21   11   15 1   
    22   11   32 1   
    23   12   47 2   
    24   13   47 2   
    25   14   21 1   
    26   15   33 1   
    27   15   36 1   
    28   16   20 1   
    29   16   42 1   
    30   17   19 1   
    31   17   24 1   
    32   17   45 1   
    33   18   30 1   
    34   19   22 1   
    35   19   41 1   
    36   20   43 1   
    37   20   46 1   
    38   21   23 1   
    39   21   34 1   
    40   21   47 1   
    41   23   48 1   
    42   24   29 1   
    43   24   44 1   
    44   27   48 1   
    45   31   39 1   
    46   35   40 1   
    47   38   46 1   
    48   45   49 1   
    49   45   50 1   
    50   45   51 1   
@<TRIPOS>SUBSTRUCTURE
     1 BIA         1 TEMP              0 ****  ****    0 ROOT
