@<TRIPOS>MOLECULE
BIA
   51    53     1     0     0
SMALL
bcc


@<TRIPOS>ATOM
      1 N2          3.3840   -1.1700   -0.0770 nh        1 BIA     -0.637000
      2 C3         -4.2210    0.7590   -0.8860 ca        1 BIA     -0.064000
      3 C4          5.4620   -1.7200   -1.3180 ca        1 BIA     -0.156000
      4 C6         -3.2680   -1.2570    0.2830 c         1 BIA      0.581700
      5 C7         -5.3020    1.5950   -1.1620 ca        1 BIA      0.081100
      6 O8         -3.4660   -2.3200    0.8850 o         1 BIA     -0.523100
      7 O9         -5.0680    2.6580   -2.0010 oh        1 BIA     -0.486100
      8 C10         6.8220   -1.5130   -1.5280 ca        1 BIA     -0.107000
      9 C11        -4.3920   -0.3430   -0.0350 ca        1 BIA     -0.185600
     10 C12         1.1000   -0.2980    0.4040 c3        1 BIA      0.165800
     11 C16         1.3780   -2.6450   -0.0830 c3        1 BIA      0.165800
     12 O17        -8.9910    0.6180    0.6560 o         1 BIA     -0.209000
     13 O18        -8.1170   -1.0310    1.6210 o         1 BIA     -0.209000
     14 C19        -5.6400   -0.6030    0.5280 ca        1 BIA     -0.020000
     15 C21         2.7870   -2.3660   -0.6470 c3        1 BIA      0.185300
     16 N23         0.4950   -1.4900   -0.1720 n3        1 BIA     -0.735600
     17 C24         6.8070    0.2720    0.0760 ca        1 BIA     -0.142300
     18 C25         2.5080   -0.0100   -0.1550 c3        1 BIA      0.185300
     19 C26         5.4500    0.0760    0.3100 ca        1 BIA     -0.115000
     20 C27        -0.8260   -1.7720    0.3740 c3        1 BIA      0.173800
     21 C28        -6.7380    0.2380    0.2590 ca        1 BIA     -0.242200
     22 C31         4.7440   -0.9330   -0.3900 ca        1 BIA      0.138600
     23 C32        -6.5820    1.3510   -0.5920 ca        1 BIA      0.162100
     24 C37         7.5080   -0.5160   -0.8390 ca        1 BIA     -0.113000
     25 H3         -3.2480    0.9850   -1.3520 ha        1 BIA      0.169000
     26 H4          4.9580   -2.5130   -1.8930 ha        1 BIA      0.140000
     27 H5         -8.3990    2.0540   -0.5700 ho        1 BIA      0.483000
     28 H9         -5.8980    3.1470   -2.1210 ho        1 BIA      0.447000
     29 H10         7.3610   -2.1420   -2.2530 ha        1 BIA      0.141000
     30 H121        0.4480    0.5820    0.1420 h1        1 BIA      0.042700
     31 H122        1.1630   -0.3610    1.5290 h1        1 BIA      0.042700
     32 H161        1.4800   -3.0140    0.9790 h1        1 BIA      0.042700
     33 H162        0.9280   -3.4740   -0.6990 h1        1 BIA      0.042700
     34 H19        -5.7640   -1.4820    1.1910 ha        1 BIA      0.196000
     35 H211        3.4380   -3.2460   -0.3830 h1        1 BIA      0.046950
     36 H212        2.7170   -2.2980   -1.7720 h1        1 BIA      0.046950
     37 H221       -1.8760   -0.8010   -1.2800 hc        1 BIA      0.077200
     38 H222       -1.7170    0.2220    0.2120 hc        1 BIA      0.077200
     39 H251        2.9500    0.8250    0.4560 h1        1 BIA      0.046950
     40 H252        2.4090    0.3500   -1.2200 h1        1 BIA      0.046950
     41 H26         4.9400    0.7090    1.0540 ha        1 BIA      0.154000
     42 H271       -0.8370   -1.7260    1.5030 h1        1 BIA      0.051200
     43 H272       -1.1180   -2.8220    0.0830 h1        1 BIA      0.051200
     44 H37         8.5810   -0.3440   -1.0120 ha        1 BIA      0.152000
     45 C33         7.5460    1.3560    0.8540 c3        1 BIA      0.686200
     46 C22        -1.9010   -0.8210   -0.1570 c3        1 BIA     -0.178400
     47 N14        -8.0370   -0.0840    0.8910 no        1 BIA      0.324200
     48 O5         -7.5300    2.2610   -0.9540 oh        1 BIA     -0.510100
     49 F37         8.6310    1.8890    0.2020 f         1 BIA     -0.237633
     50 F38         6.7800    2.4500    1.1790 f         1 BIA     -0.237633
     51 F39         8.0540    0.9360    2.0600 f         1 BIA     -0.237633
@<TRIPOS>BOND
     1    1   15 1   
     2    1   18 1   
     3    1   22 1   
     4    2    5 ar  
     5    2    9 ar  
     6    2   25 1   
     7    3    8 ar  
     8    3   22 ar  
     9    3   26 1   
    10    4    6 2   
    11    4    9 1   
    12    4   46 1   
    13    5    7 1   
    14    5   23 ar  
    15    7   28 1   
    16    8   24 ar  
    17    8   29 1   
    18    9   14 ar  
    19   10   16 1   
    20   10   18 1   
    21   10   30 1   
    22   10   31 1   
    23   11   15 1   
    24   11   16 1   
    25   11   32 1   
    26   11   33 1   
    27   12   47 1   
    28   13   47 1   
    29   14   21 ar  
    30   14   34 1   
    31   15   35 1   
    32   15   36 1   
    33   16   20 1   
    34   17   19 ar  
    35   17   24 ar  
    36   17   45 1   
    37   18   39 1   
    38   18   40 1   
    39   19   22 ar  
    40   19   41 1   
    41   20   42 1   
    42   20   43 1   
    43   20   46 1   
    44   21   23 ar  
    45   21   47 1   
    46   23   48 1   
    47   24   44 1   
    48   27   48 1   
    49   37   46 1   
    50   38   46 1   
    51   45   49 1   
    52   45   50 1   
    53   45   51 1   
@<TRIPOS>SUBSTRUCTURE
     1 BIA         1 TEMP              0 ****  ****    0 ROOT
