@<TRIPOS>MOLECULE
BIA
   51    51     1     0     0
SMALL
bcc


@<TRIPOS>ATOM
      1 N2          0.1040    2.1090   -2.4750 n2        1 BIA     -0.149000
      2 C3         -0.2360   -6.0730    6.6630 c2        1 BIA      0.068000
      3 C4          0.2380    0.4840   -0.5810 c3        1 BIA     -0.237000
      4 C6         -0.1610   -4.3440    4.8970 c2        1 BIA      0.334000
      5 C7          0.0650   -6.5490    7.9910 c2        1 BIA      0.010000
      6 O8         -0.9560   -5.0020    4.1990 o         1 BIA     -0.358000
      7 O9         -0.4070   -7.8060    8.2760 oh        1 BIA     -0.235000
      8 C10        -0.2780   -0.7700   -0.0810 c1        1 BIA     -0.058000
      9 C11         0.1830   -4.8240    6.2650 c2        1 BIA     -0.230000
     10 C12         1.5920   -0.6070    3.2840 c2        1 BIA     -0.017000
     11 C16         0.2120    4.0560   -0.9190 c3        1 BIA     -0.215000
     12 O17         3.1990   -4.7680    9.5410 o         1 BIA     -0.479700
     13 O18         2.7340   -2.7610    9.1100 o         1 BIA     -0.479700
     14 C19         1.0310   -4.0500    7.0840 c1        1 BIA     -0.035000
     15 C21         0.9480    3.0660   -1.8120 c3        1 BIA     -0.109000
     16 N23         0.6740   -1.4530    2.6680 n7        1 BIA     -0.290000
     17 C24        -1.4990   -1.1140   -2.2160 c2        1 BIA     -0.202000
     18 C25         2.0770    0.5180    2.7300 c2        1 BIA     -0.322000
     19 C26        -1.0670    0.0530   -2.7120 c2        1 BIA     -0.045000
     20 C27         0.1820   -2.5940    3.2380 c2        1 BIA      0.088000
     21 C28         1.1140   -4.3670    8.5200 c3        1 BIA     -0.120000
     22 C31        -0.2070    0.9740   -1.9390 c2        1 BIA     -0.024000
     23 C32         0.7460   -5.7720    8.8940 c2        1 BIA     -0.029000
     24 C37        -1.1600   -1.6090   -0.8580 c3        1 BIA     -0.189000
     25 H3         -0.7760   -6.7520    5.9750 ha        1 BIA      0.191000
     26 H4         -0.0010    1.2690    0.2020 hc        1 BIA      0.166000
     27 H5          1.8280   -6.1160   10.4350 ho        1 BIA      0.261000
     28 H9         -0.0940   -8.0510    9.1640 ho        1 BIA      0.243000
     29 H10        -0.6840   -2.6360   -0.9310 hc        1 BIA      0.172500
     30 H121       -0.5700    4.6080   -1.4930 hc        1 BIA      0.085000
     31 H122        2.8000    1.1380    3.2720 ha        1 BIA      0.115000
     32 H161        0.9480    4.7930   -0.5180 hc        1 BIA      0.085000
     33 H162        1.4530    3.6390   -2.6440 h1        1 BIA      0.091500
     34 H19         0.3530   -3.6680    9.0150 h1        1 BIA      0.207000
     35 H211        1.7600    2.5720   -1.2010 h1        1 BIA      0.091500
     36 H212        1.3690    0.3840   -0.5710 hc        1 BIA      0.166000
     37 H221        1.1630   -2.6400    5.1790 ha        1 BIA      0.172000
     38 H222        1.9150   -0.9250    4.2950 h4        1 BIA      0.152000
     39 H251        1.7930    0.8780    1.7340 ha        1 BIA      0.115000
     40 H252       -0.2780    3.5370   -0.0600 hc        1 BIA      0.085000
     41 H26        -1.3490    0.3740   -3.7340 ha        1 BIA      0.172000
     42 H271       -0.5360   -3.1380    2.5820 h4        1 BIA      0.151000
     43 H272        0.3530   -1.2130    1.7340 hn        1 BIA      0.281000
     44 H37        -2.1090   -1.7610   -0.2560 hc        1 BIA      0.172500
     45 C33        -2.3920   -2.0450   -3.0320 c3        1 BIA      0.460000
     46 C22         0.4650   -3.1090    4.4690 c2        1 BIA     -0.371000
     47 N14         2.4720   -3.9240    9.0890 no        1 BIA      0.807400
     48 O5          0.8950   -6.2340   10.1730 oh        1 BIA     -0.264000
     49 F37        -1.8490   -3.2920   -3.2360 f         1 BIA     -0.162000
     50 F38        -3.6070   -2.2990   -2.4430 f         1 BIA     -0.162000
     51 F39        -2.7100   -1.6020   -4.2920 f         1 BIA     -0.162000
@<TRIPOS>BOND
     1    1   15 1   
     2    1   22 1   
     3    2    5 1   
     4    2    9 1   
     5    2   25 1   
     6    3    8 1   
     7    3   22 1   
     8    3   26 1   
     9    3   36 1   
    10    4    6 1   
    11    4    9 1   
    12    4   46 1   
    13    5    7 1   
    14    5   23 1   
    15    7   28 1   
    16    8   24 1   
    17    9   14 1   
    18   10   16 1   
    19   10   18 1   
    20   10   38 1   
    21   11   15 1   
    22   11   30 1   
    23   11   32 1   
    24   11   40 1   
    25   12   47 2   
    26   13   47 2   
    27   14   21 1   
    28   15   33 1   
    29   15   35 1   
    30   16   20 1   
    31   16   43 1   
    32   17   19 1   
    33   17   24 1   
    34   17   45 1   
    35   18   31 1   
    36   18   39 1   
    37   19   22 1   
    38   19   41 1   
    39   20   42 1   
    40   20   46 1   
    41   21   23 1   
    42   21   34 1   
    43   21   47 1   
    44   23   48 1   
    45   24   29 1   
    46   24   44 1   
    47   27   48 1   
    48   37   46 1   
    49   45   49 1   
    50   45   50 1   
    51   45   51 1   
@<TRIPOS>SUBSTRUCTURE
     1 BIA         1 TEMP              0 ****  ****    0 ROOT
