@<TRIPOS>MOLECULE
BIA
   51    45     1     0     0
SMALL
bcc


@<TRIPOS>ATOM
      1 N2         -1.9980    0.6710   -1.8940 n3        1 BIA     -0.235000
      2 C3          3.2390   -2.5790    2.7610 c1        1 BIA     -0.098000
      3 C4         -2.5080   -0.2030   -4.1340 c1        1 BIA     -0.122000
      4 O5          6.4550   -3.4180    4.1100 oh        1 BIA     -0.193000
      5 C6          1.6750   -0.4820    3.0920 c1        1 BIA      0.269000
      6 C7          4.4550   -3.1820    3.0610 c1        1 BIA     -0.034000
      7 O8          1.5180    0.5400    3.7330 o         1 BIA     -0.279000
      8 O9          4.8280   -4.3310    2.3470 o         1 BIA     -0.265000
      9 C10        -3.1100   -0.0580   -5.3820 c1        1 BIA     -0.122000
     10 C11         2.8860   -1.3860    3.3740 c1        1 BIA     -0.171000
     11 C12        -2.3070    0.4800    0.3810 c3        1 BIA     -0.089500
     12 N14         5.9250   -0.8900    5.5090 n2        1 BIA      0.581000
     13 C16        -0.3820    1.4220   -0.4320 c3        1 BIA     -0.089500
     14 O17         5.6540    0.0750    6.1980 o         1 BIA     -0.363000
     15 O18         7.1370   -1.5060    5.6430 os        1 BIA     -0.325000
     16 C19         3.7480   -0.7940    4.2870 c1        1 BIA     -0.010000
     17 C21        -0.9900    1.4400   -1.8220 c3        1 BIA     -0.079500
     18 C22         0.6400   -0.8910    2.0320 c3        1 BIA     -0.207000
     19 N23        -0.7910    0.1750    0.3840 n3        1 BIA     -0.266000
     20 C24        -3.9220    2.1090   -4.7390 c1        1 BIA     -0.130000
     21 C25        -2.8990    0.5050   -1.0150 c3        1 BIA     -0.079500
     22 C26        -3.3210    1.9640   -3.4920 c1        1 BIA     -0.141000
     23 C27        -0.2780    0.2920    1.7320 c3        1 BIA     -0.062000
     24 C28         4.9670   -1.3980    4.5870 c1        1 BIA     -0.166000
     25 C31        -2.6150    0.8080   -3.1920 c1        1 BIA      0.055000
     26 C32         5.3180   -2.5890    3.9740 c2        1 BIA      0.165000
     27 C33        -4.9550    3.1300   -5.1980 c3        1 BIA      0.464000
     28 F37        -6.1870    2.6000   -5.0960 f         1 BIA     -0.166333
     29 F38        -4.8740    4.2200   -4.4300 f         1 BIA     -0.166333
     30 F39        -4.7160    3.4640   -6.4730 f         1 BIA     -0.166333
     31 C37        -3.8150    1.0970   -5.6820 c1        1 BIA     -0.112000
     32 H3          2.6340   -2.9930    2.1100 ha        1 BIA      0.151000
     33 H4         -2.0160   -1.0080   -3.9250 ha        1 BIA      0.142500
     34 H5          6.2470   -4.1270    4.5990 ho        1 BIA      0.251000
     35 H9          4.8730   -4.1410    1.4820 ho        1 BIA      0.238000
     36 H10        -3.0340   -0.7700   -6.0460 ha        1 BIA      0.142500
     37 H121       -2.7680   -0.2080    0.9070 h1        1 BIA      0.094250
     38 H122       -2.4550    1.3490    0.8010 h1        1 BIA      0.094250
     39 H161        0.5890    1.4380   -0.5140 h1        1 BIA      0.094250
     40 H162       -0.6710    2.2200    0.0480 h1        1 BIA      0.094250
     41 H19         3.5010    0.0450    4.7180 ha        1 BIA      0.199000
     42 H211       -1.2660    2.3510   -2.0390 h1        1 BIA      0.098500
     43 H212       -0.3190    1.1470   -2.4680 h1        1 BIA      0.098500
     44 H221        0.1110   -1.6360    2.3650 hc        1 BIA      0.111500
     45 H222        1.1000   -1.1600    1.2160 hc        1 BIA      0.111500
     46 H251       -3.5460    1.2380   -1.0760 h1        1 BIA      0.098500
     47 H252       -3.3560   -0.3400   -1.1830 h1        1 BIA      0.098500
     48 H26        -3.3620    2.6930   -2.8440 ha        1 BIA      0.149000
     49 H271        0.2260    1.1270    1.8190 h1        1 BIA      0.092500
     50 H272       -1.0260    0.2940    2.3680 h1        1 BIA      0.092500
     51 H37        -4.2380    1.1980   -6.5590 ha        1 BIA      0.153000
@<TRIPOS>BOND
     1    1   17 1   
     2    1   21 1   
     3    1   25 1   
     4    2    6 1   
     5    2   32 1   
     6    3    9 1   
     7    3   33 1   
     8    4   26 1   
     9    4   34 1   
    10    5    7 1   
    11    5   18 1   
    12    6   26 1   
    13    8   35 1   
    14    9   36 1   
    15   10   16 1   
    16   11   19 1   
    17   11   21 1   
    18   11   37 1   
    19   11   38 1   
    20   12   14 1   
    21   12   24 1   
    22   13   17 1   
    23   13   19 1   
    24   13   39 1   
    25   13   40 1   
    26   16   41 1   
    27   17   42 1   
    28   17   43 1   
    29   18   23 1   
    30   18   44 1   
    31   18   45 1   
    32   19   23 1   
    33   20   27 1   
    34   20   31 1   
    35   21   46 1   
    36   21   47 1   
    37   22   25 1   
    38   22   48 1   
    39   23   49 1   
    40   23   50 1   
    41   24   26 1   
    42   27   28 1   
    43   27   29 1   
    44   27   30 1   
    45   31   51 1   
@<TRIPOS>SUBSTRUCTURE
     1 BIA         1 TEMP              0 ****  ****    0 ROOT
