@<TRIPOS>MOLECULE
BIA
   51    50     1     0     0
SMALL
bcc


@<TRIPOS>ATOM
      1 N2         -0.2170    0.9150   -1.0890 n2        1 BIA     -0.179000
      2 C3          3.4590   -3.9840    7.8900 c2        1 BIA      0.069000
      3 C4         -1.5470   -0.6120   -2.5750 c3        1 BIA     -0.201000
      4 C6          2.3650   -2.8650    5.9760 c2        1 BIA      0.334000
      5 C7          3.4560   -4.9190    8.9890 c2        1 BIA      0.009000
      6 O8          3.4550   -2.3860    5.6100 o         1 BIA     -0.357000
      7 O9          4.6360   -4.9960    9.6860 oh        1 BIA     -0.235000
      8 C10        -1.2500   -1.1370   -3.9680 c3        1 BIA     -0.218000
      9 C11         2.3310   -3.8220    7.1190 c2        1 BIA     -0.230000
     10 C12        -1.3570   -1.7050    3.8700 c2        1 BIA     -0.017000
     11 C16         0.3620    0.4930    1.2700 c1        1 BIA     -0.069000
     12 O17        -0.1620   -5.6360   10.3300 o         1 BIA     -0.479200
     13 O18        -1.1650   -5.9860    8.5130 o         1 BIA     -0.479200
     14 C19         1.1190   -4.4520    7.4650 c1        1 BIA     -0.035000
     15 C21        -0.2880    0.0340    0.0480 c3        1 BIA     -0.185000
     16 N23        -0.0580   -1.2910    3.5930 n3        1 BIA     -0.294000
     17 C24        -0.7820    1.2070   -4.6160 c2        1 BIA     -0.241000
     18 C25        -2.4460   -1.2930    3.1960 c2        1 BIA     -0.325000
     19 C26        -0.6320    1.6040   -3.3320 c2        1 BIA      0.032000
     20 C27         1.0410   -1.6930    4.2990 c2        1 BIA      0.087000
     21 C28         1.1560   -5.6080    8.3780 c3        1 BIA     -0.121000
     22 C31        -0.7530    0.6210   -2.2280 c2        1 BIA     -0.011000
     23 C32         2.3550   -5.6840    9.2750 c2        1 BIA     -0.028000
     24 C37        -0.9330   -0.1640   -4.9990 c1        1 BIA      0.003000
     25 H3          4.3730   -3.3850    7.7170 ha        1 BIA      0.191000
     26 H4         -2.6360   -0.3400   -2.4990 hc        1 BIA      0.106000
     27 H5          1.6790   -6.5560   10.8400 ho        1 BIA      0.261000
     28 H9          4.5040   -5.6000   10.4360 ho        1 BIA      0.243000
     29 H10        -0.3680   -1.8450   -3.9410 hc        1 BIA      0.151500
     30 H121       -3.4410   -1.6620    3.4670 ha        1 BIA      0.115500
     31 H122       -1.2770    1.4050    2.4540 ha        1 BIA      0.013500
     32 H161        0.9750    1.4030    1.2510 ha        1 BIA      0.084000
     33 H162        0.2100   -0.9690   -0.1700 h1        1 BIA      0.153000
     34 H19         1.1850   -6.5210    7.6860 h1        1 BIA      0.207000
     35 H211       -1.3650   -0.2140    0.3150 h1        1 BIA      0.153000
     36 H212       -1.3610   -1.4290   -1.8280 hc        1 BIA      0.106000
     37 H221       -1.4510   -2.4240    4.7090 h4        1 BIA      0.152000
     38 H222        0.2050   -3.0470    5.7820 ha        1 BIA      0.172000
     39 H251       -2.4140   -0.5780    2.3660 ha        1 BIA      0.115500
     40 H252       -1.2420    1.9000    1.9860 ha        1 BIA      0.013500
     41 H26        -0.3970    2.6510   -3.0620 ha        1 BIA      0.173000
     42 H271        0.0820   -0.6320    2.8290 hn        1 BIA      0.281000
     43 H272        1.9900   -1.2370    3.9330 h4        1 BIA      0.153000
     44 H37        -2.1240   -1.7480   -4.3370 hc        1 BIA      0.151500
     45 C33        -0.7020    2.2160   -5.7630 c3        1 BIA      0.482000
     46 C22         1.0930   -2.5580    5.3530 c2        1 BIA     -0.371000
     47 N14        -0.1770   -5.7380    9.1320 no        1 BIA      0.807400
     48 O5          2.4550   -6.6350   10.2540 oh        1 BIA     -0.264000
     49 F37         0.3960    2.0700   -6.5700 f         1 BIA     -0.161333
     50 F38        -1.7770    2.1820   -6.6150 f         1 BIA     -0.161333
     51 F39        -0.6440    3.5300   -5.3570 f         1 BIA     -0.161333
@<TRIPOS>BOND
     1    1   15 1   
     2    1   22 1   
     3    2    5 1   
     4    2    9 1   
     5    2   25 1   
     6    3    8 1   
     7    3   22 1   
     8    3   26 1   
     9    3   36 1   
    10    4    6 1   
    11    4    9 1   
    12    4   46 1   
    13    5    7 1   
    14    5   23 1   
    15    7   28 1   
    16    8   24 1   
    17    8   29 1   
    18    8   44 1   
    19    9   14 1   
    20   10   16 1   
    21   10   18 1   
    22   10   37 1   
    23   11   15 1   
    24   11   32 1   
    25   12   47 2   
    26   13   47 2   
    27   14   21 1   
    28   15   33 1   
    29   15   35 1   
    30   16   20 1   
    31   16   42 1   
    32   17   19 1   
    33   17   24 1   
    34   17   45 1   
    35   18   30 1   
    36   18   39 1   
    37   19   22 1   
    38   19   41 1   
    39   20   43 1   
    40   20   46 1   
    41   21   23 1   
    42   21   34 1   
    43   21   47 1   
    44   23   48 1   
    45   27   48 1   
    46   31   40 1   
    47   38   46 1   
    48   45   49 1   
    49   45   50 1   
    50   45   51 1   
@<TRIPOS>SUBSTRUCTURE
     1 BIA         1 TEMP              0 ****  ****    0 ROOT
