@<TRIPOS>MOLECULE
BIB
   15    14     1     0     0
SMALL
bcc


@<TRIPOS>ATOM
      1 O7          1.5530    0.0550   -1.1330 o         1 BIB     -0.844300
      2 C5          1.1690   -0.1590    0.0510 c         1 BIB      0.917600
      3 O6          1.9130   -0.5990    0.9730 o         1 BIB     -0.844300
      4 C3         -0.3120    0.1380    0.4090 c3        1 BIB     -0.228700
      5 C2         -0.5680    1.6190    0.2850 c3        1 BIB     -0.065100
      6 C4         -1.2090   -0.6810   -0.5200 c3        1 BIB      0.148800
      7 N1         -2.6380   -0.5540   -0.3310 n3        1 BIB     -0.909800
      8 H3         -0.4820   -0.1810    1.4720 hc        1 BIB      0.031700
      9 H21        -0.4110    1.9440   -0.7720 hc        1 BIB      0.014033
     10 H22        -1.6080    1.8870    0.5950 hc        1 BIB      0.014033
     11 H23         0.1440    2.1820    0.9350 hc        1 BIB      0.014033
     12 H41        -0.9640   -0.3960   -1.5830 h1        1 BIB      0.055700
     13 H42        -0.9460   -1.7680   -0.3910 h1        1 BIB      0.055700
     14 HN11       -2.8720   -0.7560    0.6240 hn        1 BIB      0.320300
     15 HN12       -2.9210    0.3930   -0.5110 hn        1 BIB      0.320300
@<TRIPOS>BOND
     1    1    2 1   
     2    2    3 1   
     3    2    4 1   
     4    4    5 1   
     5    4    6 1   
     6    4    8 1   
     7    5    9 1   
     8    5   10 1   
     9    5   11 1   
    10    6    7 1   
    11    6   12 1   
    12    6   13 1   
    13    7   14 1   
    14    7   15 1   
@<TRIPOS>SUBSTRUCTURE
     1 BIB         1 TEMP              0 ****  ****    0 ROOT
