@<TRIPOS>MOLECULE
BIB
   16    15     1     0     0
SMALL
bcc


@<TRIPOS>ATOM
      1 O7          1.1770   -1.4390   -0.4840 o         1 BIB     -0.782800
      2 C5          1.3210   -0.2500   -0.1000 c         1 BIB      0.944600
      3 O6          1.0100    0.8030   -0.6900 o         1 BIB     -0.782800
      4 C3          2.0310   -0.0840    1.3170 c3        1 BIB     -0.275700
      5 C2          1.6000    1.1780    2.0060 c3        1 BIB     -0.084100
      6 C4          1.6950   -1.3260    2.1070 c3        1 BIB      0.117800
      7 N1          2.6250   -1.5270    3.2720 nz        1 BIB     -0.847600
      8 H3          3.1250   -0.0420    1.0710 hc        1 BIB      0.054700
      9 H21         2.2380    1.4010    2.8970 hc        1 BIB      0.035700
     10 H22         1.6790    2.0280    1.2790 hc        1 BIB      0.035700
     11 H23         0.5350    1.1140    2.3340 hc        1 BIB      0.035700
     12 H41         0.6500   -1.2660    2.5190 hx        1 BIB      0.119200
     13 H42         1.7760   -2.2330    1.4280 hx        1 BIB      0.119200
     14 HN11        2.3600   -2.3500    3.8120 hn        1 BIB      0.436800
     15 HN12        3.5790   -1.6430    2.9240 hn        1 BIB      0.436800
     16 H13         2.5980   -0.7000    3.8720 hn        1 BIB      0.436800
@<TRIPOS>BOND
     1    1    2 1   
     2    2    3 1   
     3    2    4 1   
     4    4    5 1   
     5    4    6 1   
     6    4    8 1   
     7    5    9 1   
     8    5   10 1   
     9    5   11 1   
    10    6    7 1   
    11    6   12 1   
    12    6   13 1   
    13    7   14 1   
    14    7   15 1   
    15    7   16 1   
@<TRIPOS>SUBSTRUCTURE
     1 BIB         1 TEMP              0 ****  ****    0 ROOT
