@<TRIPOS>MOLECULE
BIB
   15    14     1     0     0
SMALL
bcc


@<TRIPOS>ATOM
      1 O7         -1.7500    0.4240   -1.4970 o         1 BIB     -0.849300
      2 C5         -0.4910    0.4240   -1.4970 c         1 BIB      0.911600
      3 O6          0.1390    0.4240   -2.5870 o         1 BIB     -0.849300
      4 C3          0.2660    0.4240   -0.1870 c3        1 BIB     -0.226700
      5 C2         -0.1720    1.6070    0.6480 c3        1 BIB     -0.057100
      6 C4         -0.0250   -0.8570    0.5630 c3        1 BIB      0.171800
      7 N1          0.7360   -1.9220   -0.0030 n3        1 BIB     -0.907800
      8 H3          1.2240    0.4870   -0.3640 hc        1 BIB      0.028700
      9 H21        -1.0890    1.4700    0.9520 hc        1 BIB      0.015367
     10 H22         0.4170    1.6950    1.4220 hc        1 BIB      0.015367
     11 H23        -0.1250    2.4200    0.1100 hc        1 BIB      0.015367
     12 H41         0.2190   -0.7470    1.5020 h1        1 BIB      0.019200
     13 H42        -0.9760   -1.0650    0.4960 h1        1 BIB      0.019200
     14 HN11        1.4270   -2.1310    0.5530 hn        1 BIB      0.347800
     15 HN12        0.2010   -2.6530   -0.1120 hn        1 BIB      0.347800
@<TRIPOS>BOND
     1    1    2 1   
     2    2    3 1   
     3    2    4 1   
     4    4    5 1   
     5    4    6 1   
     6    4    8 1   
     7    5    9 1   
     8    5   10 1   
     9    5   11 1   
    10    6    7 1   
    11    6   12 1   
    12    6   13 1   
    13    7   14 1   
    14    7   15 1   
@<TRIPOS>SUBSTRUCTURE
     1 BIB         1 TEMP              0 ****  ****    0 ROOT
