@<TRIPOS>MOLECULE
BIB
   16    15     1     0     0
SMALL
bcc


@<TRIPOS>ATOM
      1 O7          1.1040   -1.4060   -0.4750 o         1 BIB     -0.782800
      2 C5          1.2950   -0.2240   -0.0900 c         1 BIB      0.944600
      3 O6          1.0090    0.8420   -0.6710 o         1 BIB     -0.782800
      4 C3          2.0330   -0.0870    1.3150 c3        1 BIB     -0.275700
      5 C2          1.6550    1.1850    2.0160 c3        1 BIB     -0.084100
      6 C4          1.6700   -1.3210    2.1060 c3        1 BIB      0.117800
      7 N1          2.6100   -1.5560    3.2570 n4        1 BIB     -0.847600
      8 H3          3.1230   -0.0800    1.0510 hc        1 BIB      0.054700
      9 H21         2.3150    1.3840    2.8970 hc        1 BIB      0.035700
     10 H22         1.7480    2.0350    1.2910 hc        1 BIB      0.035700
     11 H23         0.5940    1.1540    2.3630 hc        1 BIB      0.035700
     12 H41         0.6330   -1.2290    2.5340 hx        1 BIB      0.119200
     13 H42         1.7120   -2.2270    1.4230 hx        1 BIB      0.119200
     14 HN11        2.3270   -2.3720    3.7980 hn        1 BIB      0.436800
     15 HN12        2.6180   -0.7300    3.8600 hn        1 BIB      0.436800
     16 H13         3.5550   -1.7010    2.8940 hn        1 BIB      0.436800
@<TRIPOS>BOND
     1    1    2 1   
     2    2    3 1   
     3    2    4 1   
     4    4    5 1   
     5    4    6 1   
     6    4    8 1   
     7    5    9 1   
     8    5   10 1   
     9    5   11 1   
    10    6    7 1   
    11    6   12 1   
    12    6   13 1   
    13    7   14 1   
    14    7   15 1   
    15    7   16 1   
@<TRIPOS>SUBSTRUCTURE
     1 BIB         1 TEMP              0 ****  ****    0 ROOT
