@<TRIPOS>MOLECULE
BIB
   16    15     1     0     0
SMALL
bcc


@<TRIPOS>ATOM
      1 O7          1.3060   -1.2490   -0.5930 o         1 BIB     -0.782800
      2 C5          1.2640   -0.1080   -0.0670 c         1 BIB      0.944600
      3 O6          0.7740    0.9440   -0.5220 o         1 BIB     -0.782800
      4 C3          1.9680   -0.0010    1.3590 c3        1 BIB     -0.275700
      5 C2          1.3550    1.0830    2.1980 c3        1 BIB     -0.084100
      6 C4          1.8520   -1.3670    1.9920 c3        1 BIB      0.117800
      7 N1          2.8270   -1.5550    3.1220 n4        1 BIB     -0.847600
      8 H3          3.0350    0.2470    1.1190 hc        1 BIB      0.054700
      9 H21         1.9660    1.2960    3.1090 hc        1 BIB      0.035700
     10 H22         1.2810    2.0150    1.5800 hc        1 BIB      0.035700
     11 H23         0.3200    0.8080    2.5160 hc        1 BIB      0.035700
     12 H41         0.8190   -1.5260    2.4100 hx        1 BIB      0.119200
     13 H42         2.0620   -2.1600    1.2070 hx        1 BIB      0.119200
     14 HN11        2.7080   -2.4680    3.5580 hn        1 BIB      0.436800
     15 HN12        3.7800   -1.4720    2.7600 hn        1 BIB      0.436800
     16 H13         2.6810   -0.8200    3.8190 hn        1 BIB      0.436800
@<TRIPOS>BOND
     1    1    2 1   
     2    2    3 1   
     3    2    4 1   
     4    4    5 1   
     5    4    6 1   
     6    4    8 1   
     7    5    9 1   
     8    5   10 1   
     9    5   11 1   
    10    6    7 1   
    11    6   12 1   
    12    6   13 1   
    13    7   14 1   
    14    7   15 1   
    15    7   16 1   
@<TRIPOS>SUBSTRUCTURE
     1 BIB         1 TEMP              0 ****  ****    0 ROOT
