@<TRIPOS>MOLECULE
BIC
   39    39     1     0     0
SMALL
bcc


@<TRIPOS>ATOM
      1 C1          1.4330   -1.5400   -2.8240 c3        1 BIC     -0.045000
      2 C2          2.7530   -1.5830   -2.8210 c3        1 BIC     -0.171000
      3 C3          3.2230   -1.6370   -1.2640 c3        1 BIC     -0.113000
      4 C4          2.3050   -0.4920    0.7570 c3        1 BIC     -0.118000
      5 C5          1.5490    0.8340    0.9720 c3        1 BIC     -0.153000
      6 C6          0.2140    0.8300    0.3040 c3        1 BIC      0.032000
      7 C7          0.3760    0.3860   -1.2120 c2        1 BIC      0.257000
      8 N1          2.4260   -0.8390   -0.5930 n3        1 BIC     -0.090000
      9 N2          1.1150   -0.8240   -1.3700 n         1 BIC     -0.262000
     10 O1         -0.4720    0.6920   -2.0300 o         1 BIC     -0.362000
     11 C8          0.7640   -2.8990   -3.0130 c2        1 BIC      0.161000
     12 O2          0.0420   -3.0930   -3.9730 o         1 BIC     -0.283000
     13 N3         -0.4630    2.0920    0.4320 n3        1 BIC     -0.323000
     14 C9         -0.7530   -0.0920    1.0370 c3        1 BIC     -0.112000
     15 C10        -1.9690    0.7130    1.5050 c2        1 BIC     -0.085000
     16 C11        -3.1150    0.7580    0.7140 c2        1 BIC     -0.113000
     17 C12        -4.2800    1.3470    1.2070 c1        1 BIC     -0.127000
     18 C13        -4.2970    1.8900    2.4870 c1        1 BIC     -0.128500
     19 C14        -3.1500    1.8450    3.2790 c1        1 BIC     -0.128500
     20 C15        -1.9870    1.2580    2.7880 c1        1 BIC     -0.118000
     21 H1          1.0730   -1.0240   -3.5880 h1        1 BIC      0.140000
     22 H21         3.0710   -2.4010   -3.3030 hc        1 BIC      0.115000
     23 H22         3.1140   -0.7780   -3.2520 hc        1 BIC      0.115000
     24 H31         4.1540   -1.3290   -1.1840 h1        1 BIC      0.098000
     25 H32         3.1420   -2.5720   -0.9150 h1        1 BIC      0.098000
     26 H41         3.2120   -0.4090    1.1480 h1        1 BIC      0.091000
     27 H42         1.8320   -1.1960    1.2180 h1        1 BIC      0.091000
     28 H51         1.3620    0.8810    1.9440 hc        1 BIC      0.107500
     29 H52         2.0800    1.5240    0.5040 hc        1 BIC      0.107500
     30 H8          0.9360   -3.6170   -2.3810 h4        1 BIC      0.133000
     31 HN31        0.1270    2.7280    0.7170 hn        1 BIC      0.165000
     32 HN32       -0.8050    2.3360   -0.3720 hn        1 BIC      0.165000
     33 H91        -1.0500   -0.8150    0.4240 hc        1 BIC      0.095500
     34 H92        -0.2950   -0.4920    1.8270 hc        1 BIC      0.095500
     35 H11        -3.1030    0.3670   -0.2070 ha        1 BIC      0.126000
     36 H12        -5.0970    1.3780    0.6420 ha        1 BIC      0.134000
     37 H13        -5.1300    2.3110    2.8390 ha        1 BIC      0.132000
     38 H14        -3.1630    2.2380    4.2060 ha        1 BIC      0.132000
     39 H15        -1.1740    1.2260    3.3500 ha        1 BIC      0.142000
@<TRIPOS>BOND
     1    1    2 1   
     2    1    9 1   
     3    1   11 1   
     4    1   21 1   
     5    2    3 1   
     6    2   22 1   
     7    2   23 1   
     8    3    8 1   
     9    3   24 1   
    10    3   25 1   
    11    4    5 1   
    12    4    8 1   
    13    4   26 1   
    14    4   27 1   
    15    5    6 1   
    16    5   28 1   
    17    5   29 1   
    18    6    7 1   
    19    6   13 1   
    20    6   14 1   
    21    7    9 1   
    22    7   10 1   
    23    8    9 1   
    24   11   12 1   
    25   11   30 1   
    26   13   31 1   
    27   13   32 1   
    28   14   15 1   
    29   14   33 1   
    30   14   34 1   
    31   15   16 1   
    32   15   20 1   
    33   16   17 1   
    34   16   35 1   
    35   17   36 1   
    36   18   19 1   
    37   18   37 1   
    38   19   38 1   
    39   20   39 1   
@<TRIPOS>SUBSTRUCTURE
     1 BIC         1 TEMP              0 ****  ****    0 ROOT
