@<TRIPOS>MOLECULE
BIC
   40    42     1     0     0
SMALL
bcc


@<TRIPOS>ATOM
      1 C1          0.3970   -0.1590   -0.1440 c3        1 BIC     -0.010300
      2 C2          1.3370    1.0350    0.1210 c3        1 BIC     -0.097400
      3 C3          1.1690    1.3550    1.6180 c3        1 BIC      0.134800
      4 C4          0.4360   -0.1210    3.4670 c3        1 BIC      0.127800
      5 C5         -0.3280   -1.4070    3.7990 c3        1 BIC     -0.101400
      6 C6         -1.5580   -1.6210    2.8930 c3        1 BIC      0.077200
      7 C7         -1.1090   -1.4650    1.4070 c         1 BIC      0.692500
      8 N1          0.1010    0.4730    2.1590 n3        1 BIC     -0.449600
      9 N2         -0.1930   -0.4770    1.1730 n         1 BIC     -0.320200
     10 O1         -1.5320   -2.2490    0.5310 o         1 BIC     -0.654500
     11 C8          1.0970   -1.3650   -0.7670 c         1 BIC      0.548900
     12 O2          2.2970   -1.3670   -1.0160 o         1 BIC     -0.476100
     13 N3         -2.0920   -3.0290    3.0670 n4        1 BIC     -0.833600
     14 C9         -2.6680   -0.5950    3.2190 c3        1 BIC     -0.043100
     15 C10        -4.0500   -1.1230    3.0550 ca        1 BIC     -0.172300
     16 C11        -4.9210   -1.1490    4.1510 ca        1 BIC     -0.136500
     17 C12        -6.2380   -1.5800    3.9900 ca        1 BIC     -0.115500
     18 C13        -6.6930   -1.9870    2.7360 ca        1 BIC     -0.099000
     19 C14        -5.8280   -1.9620    1.6390 ca        1 BIC     -0.115500
     20 C15        -4.5130   -1.5310    1.7960 ca        1 BIC     -0.136500
     21 H1         -0.4370    0.1360   -0.8480 h1        1 BIC      0.101700
     22 H21         2.3970    0.7670   -0.1160 hc        1 BIC      0.094700
     23 H22         1.0410    1.9090   -0.5070 hc        1 BIC      0.094700
     24 H31         0.7970    2.4040    1.7700 h1        1 BIC      0.081200
     25 H32         2.1450    1.2320    2.1610 h1        1 BIC      0.081200
     26 H41         1.5370   -0.3370    3.5860 h1        1 BIC      0.081700
     27 H42         0.1590    0.6860    4.2040 h1        1 BIC      0.081700
     28 H51         0.3790   -2.2730    3.6850 hc        1 BIC      0.074700
     29 H52        -0.6490   -1.3650    4.8730 hc        1 BIC      0.074700
     30 H8          0.4220   -2.2180   -1.0020 h4        1 BIC      0.040200
     31 HN31       -1.3240   -3.7010    3.0980 hn        1 BIC      0.469133
     32 HN32       -2.6480   -3.0760    3.9250 hn        1 BIC      0.469133
     33 H91        -2.5380    0.2990    2.5460 hc        1 BIC      0.101200
     34 H92        -2.5170   -0.2340    4.2730 hc        1 BIC      0.101200
     35 H11        -4.5790   -0.8040    5.1400 ha        1 BIC      0.146000
     36 H12        -6.9210   -1.5870    4.8540 ha        1 BIC      0.157000
     37 H13        -7.7360   -2.3180    2.6070 ha        1 BIC      0.159000
     38 H14        -6.1890   -2.2700    0.6450 ha        1 BIC      0.157000
     39 H15        -3.8410   -1.4860    0.9220 ha        1 BIC      0.146000
     40 H33        -2.6990   -3.2370    2.2550 hn        1 BIC      0.469133
@<TRIPOS>BOND
     1    1    2 1   
     2    1    9 1   
     3    1   11 1   
     4    1   21 1   
     5    2    3 1   
     6    2   22 1   
     7    2   23 1   
     8    3    8 1   
     9    3   24 1   
    10    3   25 1   
    11    4    5 1   
    12    4    8 1   
    13    4   26 1   
    14    4   27 1   
    15    5    6 1   
    16    5   28 1   
    17    5   29 1   
    18    6    7 1   
    19    6   13 1   
    20    6   14 1   
    21    7    9 1   
    22    7   10 2   
    23    8    9 1   
    24   11   12 2   
    25   11   30 1   
    26   13   31 1   
    27   13   32 1   
    28   13   40 1   
    29   14   15 1   
    30   14   33 1   
    31   14   34 1   
    32   15   16 ar  
    33   15   20 ar  
    34   16   17 ar  
    35   16   35 1   
    36   17   18 ar  
    37   17   36 1   
    38   18   19 ar  
    39   18   37 1   
    40   19   20 ar  
    41   19   38 1   
    42   20   39 1   
@<TRIPOS>SUBSTRUCTURE
     1 BIC         1 TEMP              0 ****  ****    0 ROOT
