@<TRIPOS>MOLECULE
BIC
   40    42     1     0     0
SMALL
bcc


@<TRIPOS>ATOM
      1 C1          0.3680   -0.1350   -0.1620 c3        1 BIC     -0.010300
      2 C2          1.3030    1.0640    0.0990 c3        1 BIC     -0.097400
      3 C3          1.1510    1.3740    1.5990 c3        1 BIC      0.134800
      4 C4          0.4460   -0.1160    3.4480 c3        1 BIC      0.128800
      5 C5         -0.3070   -1.4080    3.7810 c3        1 BIC     -0.101400
      6 C6         -1.5450   -1.6250    2.8880 c3        1 BIC      0.077200
      7 C7         -1.1120   -1.4580    1.3970 c         1 BIC      0.692500
      8 N1          0.0930    0.4830    2.1470 n3        1 BIC     -0.449600
      9 N2         -0.2050   -0.4640    1.1590 n         1 BIC     -0.320200
     10 O1         -1.5410   -2.2390    0.5220 o         1 BIC     -0.654500
     11 C8          1.0700   -1.3320   -0.8010 c         1 BIC      0.548900
     12 O2          2.2660   -1.3210   -1.0690 o         1 BIC     -0.476100
     13 N3         -2.0700   -3.0360    3.0600 nz        1 BIC     -0.833600
     14 C9         -2.6570   -0.6060    3.2300 c3        1 BIC     -0.043100
     15 C10        -4.0380   -1.1420    3.0780 ca        1 BIC     -0.172300
     16 C11        -4.8970   -1.1780    4.1830 ca        1 BIC     -0.136500
     17 C12        -6.2130   -1.6160    4.0340 ca        1 BIC     -0.115500
     18 C13        -6.6790   -2.0190    2.7830 ca        1 BIC     -0.099000
     19 C14        -5.8260   -1.9840    1.6770 ca        1 BIC     -0.115500
     20 C15        -4.5120   -1.5460    1.8220 ca        1 BIC     -0.136500
     21 H1         -0.4750    0.1590   -0.8560 h1        1 BIC      0.101700
     22 H21         2.3630    0.8050   -0.1520 hc        1 BIC      0.094700
     23 H22         0.9940    1.9400   -0.5210 hc        1 BIC      0.094700
     24 H31         0.7740    2.4200    1.7620 h1        1 BIC      0.081200
     25 H32         2.1330    1.2540    2.1310 h1        1 BIC      0.081200
     26 H41         1.5500   -0.3250    3.5540 h1        1 BIC      0.081700
     27 H42         0.1720    0.6860    4.1920 h1        1 BIC      0.081700
     28 H51         0.4040   -2.2700    3.6550 hc        1 BIC      0.074700
     29 H52        -0.6170   -1.3740    4.8590 hc        1 BIC      0.074700
     30 H8          0.4000   -2.1910   -1.0270 h4        1 BIC      0.040200
     31 HN31       -1.2970   -3.7040    3.0790 hn        1 BIC      0.469133
     32 HN32       -2.6830   -3.2430    2.2520 hn        1 BIC      0.469133
     33 H91        -2.4970   -0.2490    4.2840 hc        1 BIC      0.101200
     34 H92        -2.5390    0.2910    2.5600 hc        1 BIC      0.101200
     35 H11        -4.5460   -0.8360    5.1700 ha        1 BIC      0.146000
     36 H12        -6.8880   -1.6300    4.9050 ha        1 BIC      0.157000
     37 H13        -7.7220   -2.3550    2.6640 ha        1 BIC      0.159000
     38 H14        -6.1960   -2.2890    0.6850 ha        1 BIC      0.157000
     39 H15        -3.8500   -1.4930    0.9410 ha        1 BIC      0.146000
     40 H33        -2.6160   -3.0910    3.9230 hn        1 BIC      0.469133
@<TRIPOS>BOND
     1    1    2 1   
     2    1    9 1   
     3    1   11 1   
     4    1   21 1   
     5    2    3 1   
     6    2   22 1   
     7    2   23 1   
     8    3    8 1   
     9    3   24 1   
    10    3   25 1   
    11    4    5 1   
    12    4    8 1   
    13    4   26 1   
    14    4   27 1   
    15    5    6 1   
    16    5   28 1   
    17    5   29 1   
    18    6    7 1   
    19    6   13 1   
    20    6   14 1   
    21    7    9 1   
    22    7   10 2   
    23    8    9 1   
    24   11   12 2   
    25   11   30 1   
    26   13   31 1   
    27   13   32 1   
    28   13   40 1   
    29   14   15 1   
    30   14   33 1   
    31   14   34 1   
    32   15   16 ar  
    33   15   20 ar  
    34   16   17 ar  
    35   16   35 1   
    36   17   18 ar  
    37   17   36 1   
    38   18   19 ar  
    39   18   37 1   
    40   19   20 ar  
    41   19   38 1   
    42   20   39 1   
@<TRIPOS>SUBSTRUCTURE
     1 BIC         1 TEMP              0 ****  ****    0 ROOT
