@<TRIPOS>MOLECULE
BIC
   40    42     1     0     0
SMALL
bcc


@<TRIPOS>ATOM
      1 C1          0.4190   -0.2250   -0.1460 c3        1 BIC     -0.010300
      2 C2          1.3730    0.9610    0.1060 c3        1 BIC     -0.097400
      3 C3          1.2020    1.3060    1.5960 c3        1 BIC      0.134800
      4 C4          0.4390   -0.1320    3.4640 c3        1 BIC      0.128800
      5 C5         -0.3440   -1.4020    3.8110 c3        1 BIC     -0.101400
      6 C6         -1.5710   -1.6140    2.9020 c3        1 BIC      0.077200
      7 C7         -1.1110   -1.4880    1.4160 c         1 BIC      0.692500
      8 N1          0.1190    0.4470    2.1450 n3        1 BIC     -0.449600
      9 N2         -0.1820   -0.5150    1.1720 n         1 BIC     -0.320200
     10 O1         -1.5400   -2.2790    0.5500 o         1 BIC     -0.654500
     11 C8          1.1080   -1.4490   -0.7480 c         1 BIC      0.548900
     12 O2          2.3080   -1.4670   -0.9940 o         1 BIC     -0.476100
     13 N3         -2.1250   -3.0120    3.0950 n4        1 BIC     -0.833600
     14 C9         -2.6700   -0.5680    3.2050 c3        1 BIC     -0.043100
     15 C10        -4.0580   -1.0810    3.0420 ca        1 BIC     -0.172300
     16 C11        -4.9340   -1.0780    4.1330 ca        1 BIC     -0.136500
     17 C12        -6.2560   -1.4950    3.9710 ca        1 BIC     -0.115500
     18 C13        -6.7090   -1.9160    2.7200 ca        1 BIC     -0.099000
     19 C14        -5.8380   -1.9190    1.6290 ca        1 BIC     -0.115500
     20 C15        -4.5190   -1.5030    1.7860 ca        1 BIC     -0.136500
     21 H1         -0.4070    0.0700   -0.8590 h1        1 BIC      0.101700
     22 H21         1.0910    1.8290   -0.5380 hc        1 BIC      0.094700
     23 H22         2.4310    0.6770   -0.1220 hc        1 BIC      0.094700
     24 H31         2.1720    1.1790    2.1470 h1        1 BIC      0.081200
     25 H32         0.8420    2.3620    1.7310 h1        1 BIC      0.081200
     26 H41         0.1680    0.6910    4.1870 h1        1 BIC      0.081700
     27 H42         1.5360   -0.3590    3.5930 h1        1 BIC      0.081700
     28 H51        -0.6710   -1.3390    4.8820 hc        1 BIC      0.074700
     29 H52         0.3520   -2.2790    3.7150 hc        1 BIC      0.074700
     30 H8          0.4240   -2.2980   -0.9690 h4        1 BIC      0.040200
     31 HN31       -2.7290   -3.2250    2.2820 hn        1 BIC      0.469133
     32 HN32       -2.6860   -3.0380    3.9500 hn        1 BIC      0.469133
     33 H91        -2.5240    0.3130    2.5190 hc        1 BIC      0.101200
     34 H92        -2.5190   -0.1920    4.2540 hc        1 BIC      0.101200
     35 H11        -4.5940   -0.7220    5.1180 ha        1 BIC      0.146000
     36 H12        -6.9440   -1.4780    4.8300 ha        1 BIC      0.157000
     37 H13        -7.7560   -2.2350    2.5910 ha        1 BIC      0.159000
     38 H14        -6.1980   -2.2380    0.6370 ha        1 BIC      0.157000
     39 H15        -3.8410   -1.4810    0.9160 ha        1 BIC      0.146000
     40 H33        -1.3660   -3.6930    3.1400 hn        1 BIC      0.469133
@<TRIPOS>BOND
     1    1    2 1   
     2    1    9 1   
     3    1   11 1   
     4    1   21 1   
     5    2    3 1   
     6    2   22 1   
     7    2   23 1   
     8    3    8 1   
     9    3   24 1   
    10    3   25 1   
    11    4    5 1   
    12    4    8 1   
    13    4   26 1   
    14    4   27 1   
    15    5    6 1   
    16    5   28 1   
    17    5   29 1   
    18    6    7 1   
    19    6   13 1   
    20    6   14 1   
    21    7    9 1   
    22    7   10 2   
    23    8    9 1   
    24   11   12 2   
    25   11   30 1   
    26   13   31 1   
    27   13   32 1   
    28   13   40 1   
    29   14   15 1   
    30   14   33 1   
    31   14   34 1   
    32   15   16 ar  
    33   15   20 ar  
    34   16   17 ar  
    35   16   35 1   
    36   17   18 ar  
    37   17   36 1   
    38   18   19 ar  
    39   18   37 1   
    40   19   20 ar  
    41   19   38 1   
    42   20   39 1   
@<TRIPOS>SUBSTRUCTURE
     1 BIC         1 TEMP              0 ****  ****    0 ROOT
