@<TRIPOS>MOLECULE
BIC
   39    41     1     0     0
SMALL
bcc


@<TRIPOS>ATOM
      1 C1          1.5030    0.3110   -2.3950 c3        1 BIC     -0.019300
      2 C2          1.2040   -0.5620   -3.6310 c3        1 BIC     -0.095400
      3 C3         -0.2290   -1.0730   -3.4090 c3        1 BIC      0.129800
      4 C4         -2.0130   -0.0450   -2.0580 c3        1 BIC      0.115800
      5 C5         -2.2980    0.9670   -0.9540 c3        1 BIC     -0.081400
      6 C6         -1.3110    0.9100    0.2380 c3        1 BIC      0.145200
      7 C7          0.1140    0.9390   -0.3840 c         1 BIC      0.664500
      8 N1         -0.6660   -0.6530   -2.0510 n3        1 BIC     -0.437600
      9 N2          0.3430    0.1380   -1.5020 n         1 BIC     -0.343200
     10 O1          1.0280    1.6510    0.0720 o         1 BIC     -0.648500
     11 C8          1.8170    1.7540   -2.7640 c         1 BIC      0.546900
     12 O2          2.1920    2.0700   -3.8930 o         1 BIC     -0.523100
     13 N3         -1.5340    2.0520    1.1190 n3        1 BIC     -0.889800
     14 C9         -1.5300   -0.4180    1.0020 c3        1 BIC     -0.028100
     15 C10        -0.6840   -0.5690    2.2170 ca        1 BIC     -0.094300
     16 C11        -1.1310   -0.0890    3.4550 ca        1 BIC     -0.120000
     17 C12        -0.3540   -0.2630    4.5990 ca        1 BIC     -0.131000
     18 C13         0.8740   -0.9190    4.5190 ca        1 BIC     -0.126000
     19 C14         1.3230   -1.4030    3.2900 ca        1 BIC     -0.131000
     20 C15         0.5480   -1.2310    2.1450 ca        1 BIC     -0.120000
     21 H1          2.4100   -0.0710   -1.8400 h1        1 BIC      0.097700
     22 H21         1.9240   -1.4130   -3.6890 hc        1 BIC      0.075200
     23 H22         1.2840    0.0340   -4.5730 hc        1 BIC      0.075200
     24 H31        -0.2620   -2.1950   -3.4040 h1        1 BIC      0.061700
     25 H32        -0.9110   -0.7000   -4.2190 h1        1 BIC      0.061700
     26 H41        -2.6970   -0.9340   -1.9410 h1        1 BIC      0.052200
     27 H42        -2.2610    0.4460   -3.0440 h1        1 BIC      0.052200
     28 H51        -3.3370    0.7960   -0.5680 hc        1 BIC      0.062200
     29 H52        -2.2730    1.9980   -1.3980 hc        1 BIC      0.062200
     30 H8          1.7340    2.4930   -1.9370 h4        1 BIC      0.040200
     31 HN31       -0.9890    1.9480    1.9540 hn        1 BIC      0.366300
     32 HN32       -1.2630    2.8990    0.6580 hn        1 BIC      0.366300
     33 H91        -2.6140   -0.4600    1.3010 hc        1 BIC      0.070700
     34 H92        -1.3430   -1.2780    0.3080 hc        1 BIC      0.070700
     35 H11        -2.1020    0.4250    3.5230 ha        1 BIC      0.138500
     36 H12        -0.7120    0.1190    5.5670 ha        1 BIC      0.131500
     37 H13         1.4860   -1.0550    5.4220 ha        1 BIC      0.131000
     38 H14         2.2910   -1.9210    3.2230 ha        1 BIC      0.131500
     39 H15         0.9060   -1.6110    1.1760 ha        1 BIC      0.138500
@<TRIPOS>BOND
     1    1    2 1   
     2    1    9 1   
     3    1   11 1   
     4    1   21 1   
     5    2    3 1   
     6    2   22 1   
     7    2   23 1   
     8    3    8 1   
     9    3   24 1   
    10    3   25 1   
    11    4    5 1   
    12    4    8 1   
    13    4   26 1   
    14    4   27 1   
    15    5    6 1   
    16    5   28 1   
    17    5   29 1   
    18    6    7 1   
    19    6   13 1   
    20    6   14 1   
    21    7    9 1   
    22    7   10 2   
    23    8    9 1   
    24   11   12 2   
    25   11   30 1   
    26   13   31 1   
    27   13   32 1   
    28   14   15 1   
    29   14   33 1   
    30   14   34 1   
    31   15   16 ar  
    32   15   20 ar  
    33   16   17 ar  
    34   16   35 1   
    35   17   18 ar  
    36   17   36 1   
    37   18   19 ar  
    38   18   37 1   
    39   19   20 ar  
    40   19   38 1   
    41   20   39 1   
@<TRIPOS>SUBSTRUCTURE
     1 BIC         1 TEMP              0 ****  ****    0 ROOT
