@<TRIPOS>MOLECULE
BIE
   28    29     1     0     0
SMALL
bcc


@<TRIPOS>ATOM
      1 O5         -0.0190    0.3570    0.0190 o         1 BIE     -0.493100
      2 C7          1.1980    0.1500   -0.0170 c         1 BIE      0.591300
      3 C4          1.9780    0.0190    1.2490 ca        1 BIE     -0.100600
      4 C5          2.1340    1.1570    2.0420 ca        1 BIE     -0.105000
      5 C6          2.8380    1.1030    3.2440 ca        1 BIE     -0.144000
      6 C3          2.5270   -1.2080    1.6710 ca        1 BIE     -0.149200
      7 N1          2.3610   -2.4380    0.8410 no        1 BIE      0.324200
      8 O4          3.3360   -3.0720    0.5520 o         1 BIE     -0.185000
      9 O3          1.2570   -2.7510    0.4910 o         1 BIE     -0.185000
     10 C2          3.2310   -1.2830    2.8900 ca        1 BIE      0.165100
     11 O2          3.7240   -2.4930    3.2910 oh        1 BIE     -0.465100
     12 C1          3.3820   -0.1070    3.6670 ca        1 BIE      0.047100
     13 O1          4.0930   -0.2640    4.8370 oh        1 BIE     -0.509100
     14 C8          1.9540    0.0690   -1.2810 ca        1 BIE     -0.182600
     15 C9          1.2560   -0.1920   -2.4700 ca        1 BIE     -0.073500
     16 C13         3.3400    0.2650   -1.3210 ca        1 BIE     -0.073500
     17 C12         4.0190    0.1990   -2.5350 ca        1 BIE     -0.141500
     18 C11         3.3220   -0.0680   -3.7150 ca        1 BIE     -0.094000
     19 C10         1.9420   -0.2640   -3.6810 ca        1 BIE     -0.141500
     20 H5          1.6840    2.1070    1.7140 ha        1 BIE      0.161000
     21 H6          2.9560    2.0090    3.8580 ha        1 BIE      0.150000
     22 H2          4.1980   -2.3700    4.1310 ho        1 BIE      0.453000
     23 H1          4.0890    0.5830    5.3060 ho        1 BIE      0.440000
     24 H9          0.1640   -0.3420   -2.4320 ha        1 BIE      0.147000
     25 H13         3.8950    0.4710   -0.3930 ha        1 BIE      0.147000
     26 H12         5.1090    0.3510   -2.5620 ha        1 BIE      0.140000
     27 H11         3.8640   -0.1270   -4.6710 ha        1 BIE      0.137000
     28 H10         1.3910   -0.4770   -4.6090 ha        1 BIE      0.140000
@<TRIPOS>BOND
     1    1    2 2   
     2    2    3 1   
     3    2   14 1   
     4    3    4 ar  
     5    3    6 ar  
     6    4    5 ar  
     7    4   20 1   
     8    5   12 ar  
     9    5   21 1   
    10    6    7 1   
    11    6   10 ar  
    12    7    8 1   
    13    7    9 1   
    14   10   11 1   
    15   10   12 ar  
    16   11   22 1   
    17   12   13 1   
    18   13   23 1   
    19   14   15 ar  
    20   14   16 ar  
    21   15   19 ar  
    22   15   24 1   
    23   16   17 ar  
    24   16   25 1   
    25   17   18 ar  
    26   17   26 1   
    27   18   19 ar  
    28   18   27 1   
    29   19   28 1   
@<TRIPOS>SUBSTRUCTURE
     1 BIE         1 TEMP              0 ****  ****    0 ROOT
