@<TRIPOS>MOLECULE
BIE
   28    29     1     0     0
SMALL
bcc


@<TRIPOS>ATOM
      1 O5         -0.0290    0.3210    0.0290 o         1 BIE     -0.493100
      2 C7          1.1900    0.1310   -0.0120 c         1 BIE      0.591300
      3 C4          1.9770    0.0110    1.2510 ca        1 BIE     -0.100600
      4 C5          2.1220    1.1510    2.0420 ca        1 BIE     -0.105000
      5 C6          2.8320    1.1080    3.2420 ca        1 BIE     -0.144000
      6 C3          2.5440   -1.2080    1.6730 ca        1 BIE     -0.149200
      7 N1          2.3910   -2.4410    0.8450 no        1 BIE      0.324200
      8 O4          3.3730   -3.0630    0.5530 o         1 BIE     -0.185000
      9 O3          1.2890   -2.7680    0.4990 o         1 BIE     -0.185000
     10 C2          3.2540   -1.2730    2.8890 ca        1 BIE      0.165100
     11 O2          3.7640   -2.4760    3.2890 oh        1 BIE     -0.465100
     12 C1          3.3920   -0.0950    3.6640 ca        1 BIE      0.047100
     13 O1          4.1100   -0.2410    4.8320 oh        1 BIE     -0.509100
     14 C8          1.9420    0.0580   -1.2790 ca        1 BIE     -0.182600
     15 C9          1.2430   -0.2140   -2.4640 ca        1 BIE     -0.073500
     16 C13         3.3250    0.2720   -1.3240 ca        1 BIE     -0.073500
     17 C12         4.0010    0.2130   -2.5410 ca        1 BIE     -0.141500
     18 C11         3.3030   -0.0640   -3.7170 ca        1 BIE     -0.094000
     19 C10         1.9250   -0.2780   -3.6780 ca        1 BIE     -0.141500
     20 H5          1.6580    2.0960    1.7150 ha        1 BIE      0.161000
     21 H6          2.9400    2.0160    3.8540 ha        1 BIE      0.150000
     22 H2          4.2390   -2.3460    4.1280 ho        1 BIE      0.453000
     23 H1          4.0970    0.6070    5.3000 ho        1 BIE      0.440000
     24 H9          0.1540   -0.3780   -2.4210 ha        1 BIE      0.147000
     25 H13         3.8810    0.4870   -0.3990 ha        1 BIE      0.147000
     26 H12         5.0880    0.3810   -2.5720 ha        1 BIE      0.140000
     27 H11         3.8410   -0.1170   -4.6760 ha        1 BIE      0.137000
     28 H10         1.3740   -0.4990   -4.6040 ha        1 BIE      0.140000
@<TRIPOS>BOND
     1    1    2 2   
     2    2    3 1   
     3    2   14 1   
     4    3    4 ar  
     5    3    6 ar  
     6    4    5 ar  
     7    4   20 1   
     8    5   12 ar  
     9    5   21 1   
    10    6    7 1   
    11    6   10 ar  
    12    7    8 1   
    13    7    9 1   
    14   10   11 1   
    15   10   12 ar  
    16   11   22 1   
    17   12   13 1   
    18   13   23 1   
    19   14   15 ar  
    20   14   16 ar  
    21   15   19 ar  
    22   15   24 1   
    23   16   17 ar  
    24   16   25 1   
    25   17   18 ar  
    26   17   26 1   
    27   18   19 ar  
    28   18   27 1   
    29   19   28 1   
@<TRIPOS>SUBSTRUCTURE
     1 BIE         1 TEMP              0 ****  ****    0 ROOT
