@<TRIPOS>MOLECULE
BIE
   28    24     1     0     0
SMALL
bcc


@<TRIPOS>ATOM
      1 O5         -2.4070   -0.4340   -0.5940 o         1 BIE     -0.264000
      2 C7         -1.1990   -0.3050   -0.5590 c1        1 BIE      0.317000
      3 C4         -0.4670   -0.3910    0.7630 c1        1 BIE     -0.083000
      4 C5          0.6300   -1.2270    0.8940 c1        1 BIE     -0.106000
      5 C6          1.3230   -1.2790    2.0930 c1        1 BIE     -0.162000
      6 C3         -0.8720    0.3940    1.8320 c2        1 BIE     -0.156000
      7 N1         -2.0250    1.2100    1.7150 no        1 BIE      0.579000
      8 O4         -2.8880    0.9350    0.8940 o         1 BIE     -0.352000
      9 O3         -2.1910    2.2810    2.5460 o         1 BIE     -0.352000
     10 C2         -0.1790    0.3420    3.0310 c1        1 BIE      0.138000
     11 O2         -0.6190    1.1020    4.1310 o         1 BIE     -0.225000
     12 C1          0.9190   -0.4940    3.1620 c2        1 BIE      0.058000
     13 O1          1.6560   -0.5050    4.3600 oh        1 BIE     -0.215000
     14 C8         -0.4230   -0.0970   -1.8410 c2        1 BIE     -0.147000
     15 C9         -0.1500   -1.1750   -2.6680 c2        1 BIE     -0.067000
     16 C13        -0.0180    1.1770   -2.2080 c1        1 BIE     -0.085000
     17 C12         0.6590    1.3730   -3.4010 c1        1 BIE     -0.120500
     18 C11         0.9310    0.2940   -4.2280 c1        1 BIE     -0.120500
     19 C10         0.5270   -0.9800   -3.8610 c1        1 BIE     -0.144000
     20 H5          0.9150   -1.7800    0.1420 ha        1 BIE      0.159000
     21 H6          2.0960   -1.8680    2.1850 ha        1 BIE      0.151000
     22 H2         -0.2600    1.9150    4.0920 ho        1 BIE      0.263000
     23 H1          1.6170   -1.3150    4.7250 ho        1 BIE      0.223000
     24 H9         -0.4350   -2.0730   -2.4090 ha        1 BIE      0.157000
     25 H13        -0.2100    1.9370   -1.6250 ha        1 BIE      0.138000
     26 H12         0.9440    2.2700   -3.6600 ha        1 BIE      0.137000
     27 H11         1.4080    0.4320   -5.0690 ha        1 BIE      0.137000
     28 H10         0.7190   -1.7390   -4.4440 ha        1 BIE      0.140000
@<TRIPOS>BOND
     1    1    2 1   
     2    2   14 1   
     3    3    4 1   
     4    3    6 1   
     5    4   20 1   
     6    5   12 1   
     7    5   21 1   
     8    6    7 1   
     9    6   10 1   
    10    7    8 1   
    11    7    9 1   
    12   10   12 1   
    13   11   22 1   
    14   12   13 1   
    15   13   23 1   
    16   14   15 1   
    17   14   16 1   
    18   15   19 1   
    19   15   24 1   
    20   16   25 1   
    21   17   18 1   
    22   17   26 1   
    23   18   27 1   
    24   19   28 1   
@<TRIPOS>SUBSTRUCTURE
     1 BIE         1 TEMP              0 ****  ****    0 ROOT
