@<TRIPOS>MOLECULE
BIE
   28    29     1     0     0
SMALL
bcc


@<TRIPOS>ATOM
      1 O5         -1.0230   -0.2850    2.1650 o         1 BIE     -0.503100
      2 C7         -0.9240    0.0900    0.9910 c         1 BIE      0.596300
      3 C4          0.4210    0.3420    0.3980 ca        1 BIE     -0.108600
      4 C5          0.7470    1.6360   -0.0060 ca        1 BIE     -0.105000
      5 C6          2.0160    1.9460   -0.4890 ca        1 BIE     -0.109000
      6 C3          1.3900   -0.6810    0.3060 ca        1 BIE     -0.174200
      7 N1          1.0420   -2.0700    0.7020 no        1 BIE      0.323200
      8 O4          1.9350   -2.8070    1.0430 o         1 BIE     -0.200500
      9 O3         -0.0970   -2.4330    0.6540 o         1 BIE     -0.200500
     10 C2          2.6840   -0.3830   -0.1610 ca        1 BIE      0.108100
     11 O2          3.7050   -1.2790   -0.3440 oh        1 BIE     -0.516100
     12 C1          2.9860    0.9440   -0.5660 ca        1 BIE      0.116100
     13 O1          4.2190    1.2920   -1.0520 oh        1 BIE     -0.483100
     14 C8         -2.0990    0.3520    0.1380 ca        1 BIE     -0.168600
     15 C9         -3.3710    0.3620    0.7300 ca        1 BIE     -0.076000
     16 C13        -1.9780    0.5640   -1.2410 ca        1 BIE     -0.076000
     17 C12        -3.1140    0.7920   -2.0150 ca        1 BIE     -0.144500
     18 C11        -4.3760    0.8100   -1.4210 ca        1 BIE     -0.096000
     19 C10        -4.5030    0.5950   -0.0490 ca        1 BIE     -0.144500
     20 H5         -0.0160    2.4290    0.0640 ha        1 BIE      0.160000
     21 H6          2.2710    2.9700   -0.8030 ha        1 BIE      0.169000
     22 H2          3.6450   -1.9990    0.3090 ho        1 BIE      0.474000
     23 H1          4.7990    0.5130   -1.0110 ho        1 BIE      0.448000
     24 H9         -3.4620    0.1770    1.8130 ha        1 BIE      0.147500
     25 H13        -0.9850    0.5450   -1.7170 ha        1 BIE      0.147500
     26 H12        -3.0130    0.9550   -3.0990 ha        1 BIE      0.139000
     27 H11        -5.2710    0.9900   -2.0350 ha        1 BIE      0.137000
     28 H10        -5.4980    0.6030    0.4210 ha        1 BIE      0.139000
@<TRIPOS>BOND
     1    1    2 2   
     2    2    3 1   
     3    2   14 1   
     4    3    4 ar  
     5    3    6 ar  
     6    4    5 ar  
     7    4   20 1   
     8    5   12 ar  
     9    5   21 1   
    10    6    7 1   
    11    6   10 ar  
    12    7    8 1   
    13    7    9 1   
    14   10   11 1   
    15   10   12 ar  
    16   11   22 1   
    17   12   13 1   
    18   13   23 1   
    19   14   15 ar  
    20   14   16 ar  
    21   15   19 ar  
    22   15   24 1   
    23   16   17 ar  
    24   16   25 1   
    25   17   18 ar  
    26   17   26 1   
    27   18   19 ar  
    28   18   27 1   
    29   19   28 1   
@<TRIPOS>SUBSTRUCTURE
     1 BIE         1 TEMP              0 ****  ****    0 ROOT
