@<TRIPOS>MOLECULE
BIF
   32    33     1     0     0
SMALL
bcc


@<TRIPOS>ATOM
      1 N          -0.0860   -2.7190    1.2060 n3        1 BIF     -0.888800
      2 CA          0.7110   -2.2500    2.3340 c3        1 BIF      0.022500
      3 C          -0.1330   -1.9790    3.6240 c         1 BIF      0.885600
      4 OXT         0.4670   -2.0110    4.7360 o         1 BIF     -0.841300
      5 CB          1.5030   -0.9750    1.9890 c3        1 BIF     -0.023100
      6 CG          2.9430   -1.0840    2.3470 ca        1 BIF     -0.039300
      7 CD2         3.3210   -1.4550    3.6470 ca        1 BIF     -0.137000
      8 CE2         4.6650   -1.5320    3.9920 ca        1 BIF     -0.126000
      9 CZ          5.6650   -1.2410    3.0500 cp        1 BIF     -0.082000
     10 CE1         5.2860   -0.8720    1.7530 ca        1 BIF     -0.126000
     11 CD1         3.9390   -0.7970    1.4060 ca        1 BIF     -0.137000
     12 C8          9.3440   -0.4670    3.2770 ca        1 BIF     -0.135000
     13 C9          9.7910   -1.4860    4.1170 ca        1 BIF     -0.148000
     14 C10         8.8820   -2.4240    4.6080 ca        1 BIF     -0.135000
     15 C11         7.5360   -2.3450    4.2610 ca        1 BIF     -0.127500
     16 C12         7.0770   -1.3240    3.4150 cp        1 BIF     -0.002000
     17 C13         7.9980   -0.3850    2.9270 ca        1 BIF     -0.127500
     18 O          -1.3690   -1.7560    3.4870 o         1 BIF     -0.841300
     19 H          -0.5900   -3.5320    1.5130 hn        1 BIF      0.331800
     20 H2         -0.7800   -2.0190    1.0040 hn        1 BIF      0.331800
     21 HA          1.4410   -3.0740    2.5830 h1        1 BIF      0.048700
     22 HB2         1.4080   -0.7250    0.8980 hc        1 BIF      0.047200
     23 HB3         1.0600   -0.1160    2.5650 hc        1 BIF      0.047200
     24 HD2         2.5200   -1.6890    4.3830 ha        1 BIF      0.167500
     25 HE2         4.9470   -1.8170    5.0160 ha        1 BIF      0.119000
     26 HE1         6.0570   -0.6520    1.0000 ha        1 BIF      0.119000
     27 HD1         3.6570   -0.5160    0.3810 ha        1 BIF      0.167500
     28 H10         9.2290   -3.2300    5.2710 ha        1 BIF      0.120500
     29 H11         6.8220   -3.0900    4.6470 ha        1 BIF      0.136500
     30 H13         7.6490    0.4250    2.2700 ha        1 BIF      0.136500
     31 H8         10.0560    0.2760    2.8900 ha        1 BIF      0.120500
     32 H9         10.8520   -1.5500    4.3920 ha        1 BIF      0.118000
@<TRIPOS>BOND
     1    1    2 1   
     2    1   19 1   
     3    1   20 1   
     4    2    3 1   
     5    2    5 1   
     6    2   21 1   
     7    3    4 1   
     8    3   18 1   
     9    5    6 1   
    10    5   22 1   
    11    5   23 1   
    12    6    7 ar  
    13    6   11 ar  
    14    7    8 ar  
    15    7   24 1   
    16    8    9 ar  
    17    8   25 1   
    18    9   10 ar  
    19    9   16 1   
    20   10   11 ar  
    21   10   26 1   
    22   11   27 1   
    23   12   13 ar  
    24   12   17 ar  
    25   12   31 1   
    26   13   14 ar  
    27   13   32 1   
    28   14   15 ar  
    29   14   28 1   
    30   15   16 ar  
    31   15   29 1   
    32   16   17 ar  
    33   17   30 1   
@<TRIPOS>SUBSTRUCTURE
     1 BIF         1 TEMP              0 ****  ****    0 ROOT
