@<TRIPOS>MOLECULE
BIG
   48    43     1     0     0
SMALL
bcc


@<TRIPOS>ATOM
      1 C2         -6.7460   -0.4880    1.3340 c1        1 BIG     -0.026000
      2 C5         -4.7780   -1.9700    2.4980 c1        1 BIG     -0.149000
      3 C4         -4.4780   -1.1460    1.4590 c1        1 BIG      0.014000
      4 C8         -2.5630   -1.9870    2.2450 c1        1 BIG     -0.041000
      5 O3'        -0.9470    2.3940   -2.1500 oh        1 BIG     -0.320000
      6 C3'        -0.2520    1.8800   -0.9850 c3        1 BIG      0.011000
      7 C4'         0.4670    0.8370   -1.3090 c3        1 BIG     -0.103000
      8 C5'         1.7280    0.7560   -0.4040 c3        1 BIG     -0.267000
      9 S5'         3.0860    1.6350   -1.1900 ss        1 BIG      0.062000
     10 C20         4.6250    0.7540   -0.8930 c3        1 BIG     -0.272000
     11 C21         5.6670    1.1800   -1.9360 c3        1 BIG     -0.150000
     12 C22         7.0470    0.7020   -1.5000 c3        1 BIG     -0.157000
     13 C23         8.0520    0.9530   -2.6240 c3        1 BIG     -0.211000
     14 C1'        -0.4930   -0.4760   -1.0610 c3        1 BIG     -0.073000
     15 N1'        -1.2110   -0.2180    0.0440 n3        1 BIG     -0.252000
     16 C2'        -1.3110    1.3330    0.1030 c3        1 BIG     -0.113000
     17 C10        -2.5400   -0.7830   -0.1010 c3        1 BIG     -0.006000
     18 N7         -3.5880   -2.4950    2.9890 n1        1 BIG     -0.191000
     19 C6         -6.0830   -2.0530    2.9610 c1        1 BIG      0.128000
     20 N6         -6.7610   -2.4850    4.1420 n2        1 BIG     -0.314000
     21 N3         -5.4590   -0.4040    0.8750 n1        1 BIG     -0.151000
     22 C9         -3.1000   -1.1510    1.2940 c1        1 BIG     -0.146000
     23 N1         -7.0490   -1.3190    2.3820 n2        1 BIG     -0.224000
     24 H2         -7.4510    0.0460    0.9130 ha        1 BIG      0.188000
     25 H8         -1.6160   -2.2000    2.3520 DU        1 BIG      0.216500
     26 HO3'       -1.0680    3.2690   -2.0600 ho        1 BIG      0.201000
     27 H3'         0.3120    2.5730   -0.5910 h1        1 BIG      0.099000
     28 H4'         0.7300    0.8890   -2.2510 hc        1 BIG      0.135000
     29 H5'         1.5340    1.1640    0.4620 h1        1 BIG      0.101500
     30 H5'A        1.9770   -0.1810   -0.2760 h1        1 BIG      0.101500
     31 H20         4.4680   -0.2090   -0.9630 h1        1 BIG      0.096500
     32 H20A        4.9550    0.9670    0.0040 h1        1 BIG      0.096500
     33 H21         5.4430    0.7840   -2.8030 hc        1 BIG      0.095000
     34 H21A        5.6700    2.1490   -2.0140 hc        1 BIG      0.095000
     35 H22         7.0130   -0.2530   -1.3020 hc        1 BIG      0.078500
     36 H22A        7.3230    1.1890   -0.7040 hc        1 BIG      0.078500
     37 H23         7.9820    1.8810   -2.9230 hc        1 BIG      0.074333
     38 H23A        8.9630    0.7830   -2.2940 hc        1 BIG      0.074333
     39 H23B        7.8580    0.3510   -3.3770 hc        1 BIG      0.074333
     40 H1'         0.0580   -1.2730   -0.9250 h1        1 BIG      0.085500
     41 H1'A       -1.0880   -0.6060   -1.8250 h1        1 BIG      0.085500
     42 H2'        -1.0760    1.6500    0.9900 h1        1 BIG      0.091000
     43 H2'A       -2.2130    1.6210   -0.1300 h1        1 BIG      0.091000
     44 H10        -2.4940   -1.5850   -0.6550 h1        1 BIG      0.095000
     45 H10A       -3.1280   -0.1270   -0.5260 h1        1 BIG      0.095000
     46 HN7        -3.5060   -3.0770    3.6870 DU        1 BIG      0.216500
     47 HN6        -6.3120   -2.9690    4.7750 hn        1 BIG      0.193000
     48 HN6A       -7.6460   -2.2840    4.2610 hn        1 BIG      0.193000
@<TRIPOS>BOND
     1    1   23 1   
     2    1   24 1   
     3    2   19 1   
     4    3   21 1   
     5    4   18 1   
     6    4   22 1   
     7    5    6 1   
     8    5   26 1   
     9    6    7 1   
    10    6   16 1   
    11    6   27 1   
    12    7    8 1   
    13    7   14 1   
    14    7   28 1   
    15    8    9 1   
    16    8   29 1   
    17    8   30 1   
    18    9   10 1   
    19   10   11 1   
    20   10   31 1   
    21   10   32 1   
    22   11   12 1   
    23   11   33 1   
    24   11   34 1   
    25   12   13 1   
    26   12   35 1   
    27   12   36 1   
    28   13   37 1   
    29   13   38 1   
    30   13   39 1   
    31   14   15 1   
    32   14   40 1   
    33   14   41 1   
    34   15   16 1   
    35   15   17 1   
    36   16   42 1   
    37   16   43 1   
    38   17   22 1   
    39   17   44 1   
    40   17   45 1   
    41   19   23 1   
    42   20   47 1   
    43   20   48 1   
@<TRIPOS>SUBSTRUCTURE
     1 BIG         1 TEMP              0 ****  ****    0 ROOT
