@<TRIPOS>MOLECULE
BIG
   48    50     1     0     0
SMALL
bcc


@<TRIPOS>ATOM
      1 C2          0.2610   -0.0350   -0.1370 c1        1 BIG      0.191400
      2 C5          2.1360    0.1180    1.8720 ce        1 BIG     -0.255600
      3 C4          2.5310   -0.2460    0.5560 c2        1 BIG      0.003700
      4 C8          4.4060   -0.2140    2.0420 c1        1 BIG     -0.009100
      5 O3'         3.2000    4.4380    0.8030 oh        1 BIG     -0.802000
      6 C3'         6.5070    3.3010    0.4950 cx        1 BIG     -0.126700
      7 C4'         6.2130    3.5340   -0.9740 cx        1 BIG     -0.126700
      8 C5'         7.5380    2.9470   -0.5470 cx        1 BIG     -0.071600
      9 S5'         7.9950    1.3030   -0.8550 ss        1 BIG     -0.221200
     10 C20         9.5790    1.4880   -1.5820 c3        1 BIG     -0.053000
     11 C21        10.7000    1.6140   -5.0540 cx        1 BIG     -0.137400
     12 C22        11.9580    2.1060   -5.7090 cx        1 BIG     -0.137400
     13 C23        11.1050    1.0800   -6.3970 cx        1 BIG     -0.137400
     14 C1'         5.1020    2.5690   -1.3590 c3        1 BIG      0.162300
     15 N1'         4.7410    1.7610   -0.1790 n3        1 BIG     -0.736600
     16 C2'         5.5600    2.2060    0.9650 c3        1 BIG      0.162300
     17 N7          3.2970    0.1160    2.7070 nh        1 BIG     -0.450800
     18 C6          0.7490    0.4090    2.1310 ce        1 BIG      0.585600
     19 N6          0.3290    0.7230    3.4040 nh        1 BIG     -0.500100
     20 N3          1.6020   -0.3170   -0.4280 nh        1 BIG     -0.196600
     21 C9          4.0260   -0.5060    0.5750 c3        1 BIG     -0.147400
     22 N1         -0.1420    0.3140    1.0880 ne        1 BIG     -0.715700
     23 H2          1.8600   -0.5510   -1.3590 hn        1 BIG      0.303700
     24 H8          4.2340   -1.5930    0.3750 hc        1 BIG      0.110700
     25 HO3'        4.0870    4.3830    0.4320 ho        1 BIG      0.399500
     26 H3'         2.8040    3.5970    0.5550 ho        1 BIG      0.399500
     27 H4'         6.7150    4.0990    1.2210 hc        1 BIG      0.102700
     28 H5'         6.1790    4.5230   -1.4520 hc        1 BIG      0.102700
     29 H5'A        8.4080    3.6330   -0.6170 h1        1 BIG      0.096700
     30 H20        10.2910    2.0150   -0.9080 h1        1 BIG      0.066700
     31 H20A        9.5380    2.0330   -2.5520 h1        1 BIG      0.066700
     32 H21         9.9520    0.4530   -1.7660 h1        1 BIG      0.066700
     33 H21A        9.8300    2.2910   -4.9860 hc        1 BIG      0.068533
     34 H22        10.7760    0.9570   -4.1690 hc        1 BIG      0.068533
     35 H22A       11.9880    3.1350   -6.1090 hc        1 BIG      0.068533
     36 H23        12.9340    1.8010   -5.2930 hc        1 BIG      0.068533
     37 H23A       11.4720    0.0410   -6.4730 hc        1 BIG      0.068533
     38 H23B       10.5250    1.3750   -7.2890 hc        1 BIG      0.068533
     39 H1'         5.4200    1.9400   -2.2350 h1        1 BIG      0.069700
     40 H1'A        4.1830    3.1500   -1.6490 h1        1 BIG      0.069700
     41 H2'         6.1300    1.3590    1.4420 h1        1 BIG      0.069700
     42 H2'A        4.8500    2.6320    1.7280 h1        1 BIG      0.069700
     43 H10         5.8870   -0.0440   -0.4160 h1        1 BIG      0.052700
     44 H10A        4.3910    0.1250   -1.4500 h1        1 BIG      0.052700
     45 HN7         3.2440    0.3260    3.6710 hn        1 BIG      0.457800
     46 HN6         0.9980    1.0610    4.0490 hn        1 BIG      0.277200
     47 HN6A       -0.6140    1.0090    3.5350 hn        1 BIG      0.277200
     48 C10         4.8170    0.3290   -0.4260 c3        1 BIG      0.195800
@<TRIPOS>BOND
     1    1   20 2   
     2    1   22 2   
     3    2    3 2   
     4    2   17 1   
     5    2   18 1   
     6    3   20 1   
     7    3   21 1   
     8    4   17 3   
     9    4   21 1   
    10    5   25 1   
    11    5   26 1   
    12    6    7 1   
    13    6    8 1   
    14    6   16 1   
    15    6   27 1   
    16    7    8 1   
    17    7   14 1   
    18    7   28 1   
    19    8    9 1   
    20    8   29 1   
    21    9   10 1   
    22   10   30 1   
    23   10   31 1   
    24   10   32 1   
    25   11   12 1   
    26   11   13 1   
    27   11   33 1   
    28   11   34 1   
    29   12   13 1   
    30   12   35 1   
    31   12   36 1   
    32   13   37 1   
    33   13   38 1   
    34   14   15 1   
    35   14   39 1   
    36   14   40 1   
    37   15   16 1   
    38   15   48 1   
    39   16   41 1   
    40   16   42 1   
    41   17   45 1   
    42   18   19 2   
    43   18   22 1   
    44   19   46 1   
    45   19   47 1   
    46   20   23 1   
    47   21   24 1   
    48   21   48 1   
    49   43   48 1   
    50   44   48 1   
@<TRIPOS>SUBSTRUCTURE
     1 BIG         1 TEMP              0 ****  ****    0 ROOT
