@<TRIPOS>MOLECULE
BIG
   48    50     1     0     0
SMALL
bcc


@<TRIPOS>ATOM
      1 C2          3.4080   -2.1620   -2.1880 ca        1 BIG      0.638900
      2 C5          4.3310   -0.5560   -0.2510 ca        1 BIG     -0.325800
      3 C4          2.9060   -0.7620   -0.4690 ca        1 BIG      0.453100
      4 C8          3.2270    0.6940    1.2680 cc        1 BIG     -0.064100
      5 O3'        -1.0000    4.3260   -0.4980 oh        1 BIG     -0.589800
      6 C3'        -0.9080    2.9210   -0.5940 c3        1 BIG      0.126100
      7 C4'        -1.9590    2.2090    0.2860 c3        1 BIG     -0.112700
      8 C5'        -2.7880    1.2520   -0.5310 c3        1 BIG     -0.003300
      9 S5'        -4.0810    0.6080    0.4960 ss        1 BIG     -0.315200
     10 C20        -4.9790   -0.3880   -0.6600 c3        1 BIG     -0.006300
     11 C21        -6.1360   -1.0100    0.0800 c3        1 BIG     -0.071400
     12 C22        -6.9620   -1.8850   -0.8420 c3        1 BIG     -0.078400
     13 C23        -8.1210   -2.5110   -0.1090 c3        1 BIG     -0.093100
     14 C1'        -1.1380    1.4910    1.3790 c3        1 BIG      0.147800
     15 N1'         0.2800    1.4700    1.0090 n3        1 BIG     -0.719600
     16 C2'         0.4660    2.4000   -0.1050 c3        1 BIG      0.115800
     17 N7          4.4960    0.3070    0.8330 na        1 BIG     -0.166400
     18 C6          5.2560   -1.2460   -1.0960 ca        1 BIG      0.652200
     19 N6          6.6350   -1.0090   -0.9560 nh        1 BIG     -0.916500
     20 N3          2.4420   -1.5780   -1.4500 nb        1 BIG     -0.682000
     21 C9          2.2320    0.0500    0.5290 cd        1 BIG     -0.264000
     22 N1          4.7660   -2.0610   -2.0720 nb        1 BIG     -0.750000
     23 H2          3.0630   -2.8320   -3.0050 h5        1 BIG      0.051100
     24 H8          3.1090    1.3960    2.0980 h4        1 BIG      0.182000
     25 HO3'       -0.8570    4.5660    0.4260 ho        1 BIG      0.402000
     26 H3'        -1.0600    2.7110   -1.6870 h1        1 BIG      0.085700
     27 H4'        -2.6340    2.9730    0.7590 hc        1 BIG      0.082700
     28 H5'        -3.2330    1.7830   -1.4090 h1        1 BIG      0.064200
     29 H5'A       -2.1560    0.4170   -0.9210 h1        1 BIG      0.064200
     30 H20        -5.3460    0.2410   -1.5070 h1        1 BIG      0.059700
     31 H20A       -4.3140   -1.1770   -1.0870 h1        1 BIG      0.059700
     32 H21        -5.7510   -1.6270    0.9360 hc        1 BIG      0.055700
     33 H21A       -6.7860   -0.2050    0.5140 hc        1 BIG      0.055700
     34 H22        -7.3450   -1.2690   -1.6980 hc        1 BIG      0.039700
     35 H22A       -6.3120   -2.6890   -1.2770 hc        1 BIG      0.039700
     36 H23        -8.7170   -3.1510   -0.8030 hc        1 BIG      0.034700
     37 H23A       -7.7570   -3.1480    0.7340 hc        1 BIG      0.034700
     38 H23B       -8.7930   -1.7240    0.3120 hc        1 BIG      0.034700
     39 H1'        -1.2090    2.0740    2.3400 h1        1 BIG      0.062200
     40 H1'A       -1.5510    0.4630    1.5680 h1        1 BIG      0.062200
     41 H2'         1.0230    1.9290   -0.9590 h1        1 BIG      0.060200
     42 H2'A        1.0800    3.2630    0.2750 h1        1 BIG      0.060200
     43 H10         0.5140   -0.5090    1.6440 h1        1 BIG      0.052200
     44 H10A        0.2530   -0.3470   -0.1520 h1        1 BIG      0.052200
     45 HN7         5.3360    0.7790    1.0420 hn        1 BIG      0.301700
     46 HN6         6.9340   -1.0220   -0.0050 hn        1 BIG      0.399300
     47 HN6A        7.2170   -1.5630   -1.5500 hn        1 BIG      0.399300
     48 C10         0.7690    0.1190    0.7400 c3        1 BIG      0.231000
@<TRIPOS>BOND
     1    1   20 ar  
     2    1   22 ar  
     3    1   23 1   
     4    2    3 ar  
     5    2   17 1   
     6    2   18 ar  
     7    3   20 ar  
     8    3   21 1   
     9    4   17 1   
    10    4   21 2   
    11    4   24 1   
    12    5    6 1   
    13    5   25 1   
    14    6    7 1   
    15    6   16 1   
    16    6   26 1   
    17    7    8 1   
    18    7   14 1   
    19    7   27 1   
    20    8    9 1   
    21    8   28 1   
    22    8   29 1   
    23    9   10 1   
    24   10   11 1   
    25   10   30 1   
    26   10   31 1   
    27   11   12 1   
    28   11   32 1   
    29   11   33 1   
    30   12   13 1   
    31   12   34 1   
    32   12   35 1   
    33   13   36 1   
    34   13   37 1   
    35   13   38 1   
    36   14   15 1   
    37   14   39 1   
    38   14   40 1   
    39   15   16 1   
    40   15   48 1   
    41   16   41 1   
    42   16   42 1   
    43   17   45 1   
    44   18   19 1   
    45   18   22 ar  
    46   19   46 1   
    47   19   47 1   
    48   21   48 1   
    49   43   48 1   
    50   44   48 1   
@<TRIPOS>SUBSTRUCTURE
     1 BIG         1 TEMP              0 ****  ****    0 ROOT
