@<TRIPOS>MOLECULE
BIH
   24    25     1     0     0
SMALL
bcc


@<TRIPOS>ATOM
      1 O31         0.0190    0.0240    0.1560 o         1 BIH     -0.753200
      2 S3          1.4220   -0.0930   -0.0350 s6        1 BIH      1.456100
      3 O32         2.1600   -0.0630    1.1770 o         1 BIH     -0.753200
      4 O3          1.7670   -1.1950   -0.8590 o         1 BIH     -0.753200
      5 C2          1.9020    1.3470   -0.9220 ca        1 BIH     -0.276500
      6 C1          1.0100    1.9140   -1.8660 ca        1 BIH     -0.062000
      7 C           1.3500    3.0280   -2.5920 ca        1 BIH     -0.157000
      8 C8A         2.6160    3.6490   -2.4130 ca        1 BIH     -0.042000
      9 C5          3.0060    4.8040   -3.1470 ca        1 BIH     -0.036000
     10 C4A         3.5160    3.0970   -1.4670 ca        1 BIH     -0.042000
     11 C4          3.1260    1.9420   -0.7330 ca        1 BIH     -0.036000
     12 C9          4.7820    3.7190   -1.2880 ca        1 BIH     -0.157000
     13 C8          5.1220    4.8330   -2.0140 ca        1 BIH     -0.062000
     14 C7          4.2300    5.3990   -2.9580 ca        1 BIH     -0.276500
     15 S6          4.7100    6.8400   -3.8450 s6        1 BIH      1.456100
     16 O6          4.3670    7.9410   -3.0200 o         1 BIH     -0.753200
     17 O61         6.1130    6.7220   -4.0380 o         1 BIH     -0.753200
     18 O1          3.9710    6.8100   -5.0570 o         1 BIH     -0.753200
     19 H1          0.0230    1.4380   -1.9900 ha        1 BIH      0.132000
     20 H           0.6530    3.4620   -3.3230 ha        1 BIH      0.109000
     21 H5          2.3060    5.2200   -3.8920 ha        1 BIH      0.136000
     22 H4          3.8260    1.5260    0.0110 ha        1 BIH      0.136000
     23 H9          5.4790    3.2840   -0.5570 ha        1 BIH      0.109000
     24 H8          6.1090    5.3090   -1.8900 ha        1 BIH      0.132000
@<TRIPOS>BOND
     1    1    2 1   
     2    2    3 1   
     3    2    4 1   
     4    2    5 1   
     5    5    6 ar  
     6    5   11 ar  
     7    6    7 ar  
     8    6   19 1   
     9    7    8 ar  
    10    7   20 1   
    11    8    9 ar  
    12    8   10 ar  
    13    9   14 ar  
    14    9   21 1   
    15   10   11 ar  
    16   10   12 ar  
    17   11   22 1   
    18   12   13 ar  
    19   12   23 1   
    20   13   14 ar  
    21   13   24 1   
    22   14   15 1   
    23   15   16 1   
    24   15   17 1   
    25   15   18 1   
@<TRIPOS>SUBSTRUCTURE
     1 BIH         1 TEMP              0 ****  ****    0 ROOT
