@<TRIPOS>MOLECULE
BIH
   24    25     1     0     0
SMALL
bcc


@<TRIPOS>ATOM
      1 O31         4.8280   -1.0120    0.7520 o         1 BIH     -0.753200
      2 S3          4.2830    0.0800    0.0240 s6        1 BIH      1.456100
      3 O32         4.4870    1.3350    0.6540 o         1 BIH     -0.753200
      4 O3          4.6830    0.0780   -1.3370 o         1 BIH     -0.753200
      5 C2          2.5430   -0.1740    0.0190 ca        1 BIH     -0.276500
      6 C1          2.0310   -1.4950   -0.0180 ca        1 BIH     -0.062000
      7 C           0.6810   -1.7390   -0.0390 ca        1 BIH     -0.157000
      8 C8A        -0.2490   -0.6640   -0.0220 ca        1 BIH     -0.042000
      9 C5         -1.6560   -0.8750   -0.0430 ca        1 BIH     -0.036000
     10 C4A         0.2490    0.6630    0.0220 ca        1 BIH     -0.042000
     11 C4          1.6560    0.8750    0.0440 ca        1 BIH     -0.036000
     12 C9         -0.6810    1.7390    0.0400 ca        1 BIH     -0.157000
     13 C8         -2.0310    1.4950    0.0180 ca        1 BIH     -0.062000
     14 C7         -2.5430    0.1740   -0.0190 ca        1 BIH     -0.276500
     15 S6         -4.2830   -0.0800   -0.0240 s6        1 BIH      1.456100
     16 O6         -4.6830   -0.0780    1.3380 o         1 BIH     -0.753200
     17 O61        -4.8280    1.0120   -0.7510 o         1 BIH     -0.753200
     18 O1         -4.4870   -1.3350   -0.6540 o         1 BIH     -0.753200
     19 H1          2.7560   -2.3260   -0.0150 ha        1 BIH      0.132000
     20 H           0.2910   -2.7670   -0.0680 ha        1 BIH      0.109000
     21 H5         -2.0350   -1.9100   -0.0920 ha        1 BIH      0.136000
     22 H4          2.0350    1.9100    0.0920 ha        1 BIH      0.136000
     23 H9         -0.2910    2.7670    0.0680 ha        1 BIH      0.109000
     24 H8         -2.7560    2.3260    0.0150 ha        1 BIH      0.132000
@<TRIPOS>BOND
     1    1    2 1   
     2    2    3 1   
     3    2    4 1   
     4    2    5 1   
     5    5    6 ar  
     6    5   11 ar  
     7    6    7 ar  
     8    6   19 1   
     9    7    8 ar  
    10    7   20 1   
    11    8    9 ar  
    12    8   10 ar  
    13    9   14 ar  
    14    9   21 1   
    15   10   11 ar  
    16   10   12 ar  
    17   11   22 1   
    18   12   13 ar  
    19   12   23 1   
    20   13   14 ar  
    21   13   24 1   
    22   14   15 1   
    23   15   16 1   
    24   15   17 1   
    25   15   18 1   
@<TRIPOS>SUBSTRUCTURE
     1 BIH         1 TEMP              0 ****  ****    0 ROOT
