@<TRIPOS>MOLECULE
BIH
   24    25     1     0     0
SMALL
bcc


@<TRIPOS>ATOM
      1 O31         0.0200    0.0250    0.1590 o         1 BIH     -0.753200
      2 S3          1.4220   -0.0940   -0.0350 s6        1 BIH      1.456100
      3 O32         2.1630   -0.0660    1.1750 o         1 BIH     -0.753200
      4 O3          1.7640   -1.1950   -0.8620 o         1 BIH     -0.753200
      5 C2          1.9020    1.3470   -0.9220 ca        1 BIH     -0.276500
      6 C1          1.0090    1.9150   -1.8650 ca        1 BIH     -0.062000
      7 C           1.3490    3.0290   -2.5910 ca        1 BIH     -0.157000
      8 C8A         2.6160    3.6500   -2.4130 ca        1 BIH     -0.042000
      9 C5          3.0060    4.8050   -3.1460 ca        1 BIH     -0.036000
     10 C4A         3.5170    3.0960   -1.4680 ca        1 BIH     -0.042000
     11 C4          3.1270    1.9410   -0.7340 ca        1 BIH     -0.036000
     12 C9          4.7830    3.7170   -1.2900 ca        1 BIH     -0.157000
     13 C8          5.1230    4.8310   -2.0160 ca        1 BIH     -0.062000
     14 C7          4.2300    5.3990   -2.9580 ca        1 BIH     -0.276500
     15 S6          4.7110    6.8400   -3.8450 s6        1 BIH      1.456100
     16 O6          4.3690    7.9410   -3.0180 o         1 BIH     -0.753200
     17 O61         6.1120    6.7210   -4.0390 o         1 BIH     -0.753200
     18 O1          3.9690    6.8120   -5.0550 o         1 BIH     -0.753200
     19 H1          0.0220    1.4400   -1.9880 ha        1 BIH      0.132000
     20 H           0.6510    3.4650   -3.3200 ha        1 BIH      0.109000
     21 H5          2.3050    5.2220   -3.8890 ha        1 BIH      0.136000
     22 H4          3.8270    1.5240    0.0090 ha        1 BIH      0.136000
     23 H9          5.4810    3.2820   -0.5600 ha        1 BIH      0.109000
     24 H8          6.1110    5.3060   -1.8930 ha        1 BIH      0.132000
@<TRIPOS>BOND
     1    1    2 1   
     2    2    3 1   
     3    2    4 1   
     4    2    5 1   
     5    5    6 ar  
     6    5   11 ar  
     7    6    7 ar  
     8    6   19 1   
     9    7    8 ar  
    10    7   20 1   
    11    8    9 ar  
    12    8   10 ar  
    13    9   14 ar  
    14    9   21 1   
    15   10   11 ar  
    16   10   12 ar  
    17   11   22 1   
    18   12   13 ar  
    19   12   23 1   
    20   13   14 ar  
    21   13   24 1   
    22   14   15 1   
    23   15   16 1   
    24   15   17 1   
    25   15   18 1   
@<TRIPOS>SUBSTRUCTURE
     1 BIH         1 TEMP              0 ****  ****    0 ROOT
