@<TRIPOS>MOLECULE
BIH
   24    19     1     0     0
SMALL
bcc


@<TRIPOS>ATOM
      1 O31        -2.6730    2.0240    3.6400 o         1 BIH     -1.077500
      2 S3         -1.2740    2.4050    3.2180 ss        1 BIH      2.869000
      3 O32        -0.5540    2.3920    4.5450 o         1 BIH     -1.077500
      4 O3         -1.2450    3.7790    2.5930 os        1 BIH     -1.073000
      5 C2         -0.5900    1.2100    2.1050 c1        1 BIH     -0.721000
      6 C1          0.7990    1.1670    2.0470 c2        1 BIH     -0.062000
      7 C           1.4310    0.4540    1.0380 c1        1 BIH     -0.157000
      8 C8A         0.6660   -0.2250    0.0710 c1        1 BIH     -0.042000
      9 C5          1.3060   -0.9270   -0.9680 c2        1 BIH     -0.036000
     10 C4A        -0.7070   -0.1830    0.1280 c1        1 BIH     -0.042000
     11 C4         -1.3460    0.5400    1.1520 c1        1 BIH     -0.036000
     12 C9         -1.4720   -0.8410   -0.8540 c2        1 BIH     -0.157000
     13 C8         -0.8400   -1.5330   -1.8780 c1        1 BIH     -0.062000
     14 C7          0.5500   -1.5750   -1.9350 c1        1 BIH     -0.721000
     15 S6          1.3310   -1.7960   -3.5120 s4        1 BIH      2.085800
     16 O6          1.2460   -0.5220   -4.3190 os        1 BIH     -1.073000
     17 O61         0.7310   -2.9610   -4.2630 o         1 BIH     -0.685900
     18 O1          2.7610   -2.2520   -3.3570 o         1 BIH     -0.685900
     19 H1          1.3300    1.6560    2.7050 ha        1 BIH      0.132000
     20 H           2.4060    0.4060    1.0100 ha        1 BIH      0.109000
     21 H5          2.2800   -0.9750   -0.9970 ha        1 BIH      0.136000
     22 H4         -2.3210    0.5710    1.1920 ha        1 BIH      0.136000
     23 H9         -2.4470   -0.8280   -0.8020 ha        1 BIH      0.109000
     24 H8         -1.3700   -1.9890   -2.5580 ha        1 BIH      0.132000
@<TRIPOS>BOND
     1    1    2 1   
     2    2    3 1   
     3    5    6 1   
     4    5   11 1   
     5    6    7 1   
     6    6   19 1   
     7    7   20 1   
     8    8    9 1   
     9    8   10 1   
    10    9   14 1   
    11    9   21 1   
    12   10   12 1   
    13   11   22 1   
    14   12   13 1   
    15   12   23 1   
    16   13   24 1   
    17   14   15 1   
    18   15   17 1   
    19   15   18 1   
@<TRIPOS>SUBSTRUCTURE
     1 BIH         1 TEMP              0 ****  ****    0 ROOT
