@<TRIPOS>MOLECULE
BII
   71    74     1     0     0
SMALL
bcc


@<TRIPOS>ATOM
      1 CAI         3.6250   -2.1500    0.5880 c3        1 BII     -0.127600
      2 CAN         2.7590   -2.3090   -0.6550 c3        1 BII      0.125500
      3 CAW         1.3360   -2.6810   -0.2530 c3        1 BII     -0.127600
      4 NAO         2.7800   -1.0770   -1.5120 ny        1 BII     -0.706900
      5 SAP         2.2320   -1.3680   -3.2920 sy        1 BII      1.488200
      6 OAX         2.4480   -2.7200   -3.4880 o         1 BII     -0.579300
      7 OAJ         0.9450   -0.8630   -3.2620 o         1 BII     -0.579300
      8 CAQ         3.3270   -0.4210   -4.0040 ca        1 BII     -0.546500
      9 CAY         4.3020   -1.0220   -4.8350 ca        1 BII      0.009000
     10 CBC         5.2520   -0.2740   -5.5050 ca        1 BII     -0.152000
     11 CAZ         5.2590    1.1190   -5.3660 ca        1 BII      0.012000
     12 CAR         4.3180    1.7530   -4.5600 ca        1 BII     -0.161000
     13 CAK         3.3510    1.0020   -3.8700 ca        1 BII      0.271600
     14 NAE         2.3850    1.5750   -3.0100 nu        1 BII     -0.775300
     15 C4          2.6240    2.8410   -2.4070 ca        1 BII      0.637200
     16 N3          3.8520    3.0750   -1.8530 nb        1 BII     -0.706000
     17 C5          1.5680    3.7950   -2.3100 ca        1 BII     -0.273200
     18 Cl5         0.0470    3.5390   -2.9770 cl        1 BII     -0.012400
     19 C6          1.8530    4.9920   -1.6140 ca        1 BII      0.482200
     20 N1          3.0480    5.2570   -1.0790 nb        1 BII     -0.706000
     21 C2          4.0340    4.2910   -1.2320 ca        1 BII      0.857000
     22 NAH         5.3770    4.5980   -0.8460 ne        1 BII     -0.597700
     23 CAM         5.6710    5.1470    0.2900 cf        1 BII      0.583900
     24 CAT         7.0830    5.5670    0.5710 cf        1 BII      0.068500
     25 CBB         7.3430    6.6070    1.3910 c2        1 BII     -0.320200
     26 OAU         8.0210    4.7910   -0.0600 os        1 BII     -0.290900
     27 CAV         9.3820    5.1920    0.0800 c3        1 BII      0.107700
     28 CAS         4.7690    5.4810    1.4070 cf        1 BII     -0.270600
     29 CBA         5.0230    6.4990    2.2370 c2        1 BII     -0.099200
     30 CBD         6.2380    7.3770    2.0590 c3        1 BII      0.261900
     31 NBE         6.5850    8.0490    3.3080 n3        1 BII     -0.725600
     32 CBG         7.3660    9.2690    3.1570 c3        1 BII      0.162800
     33 CBF         7.1940    7.2230    4.3490 c3        1 BII      0.161800
     34 CBH         8.1380    8.1060    5.1840 c3        1 BII     -0.108400
     35 CBI         8.0690    9.4990    4.5280 c3        1 BII      0.095500
     36 NBJ         9.3790   10.2250    4.4500 ny        1 BII     -0.750000
     37 CBK        10.4080    9.6120    3.5820 c3        1 BII      0.072100
     38 HAI1        3.2300   -1.3490    1.2580 hc        1 BII      0.073367
     39 HAI2        4.6840   -1.9160    0.3220 hc        1 BII      0.073367
     40 HAI3        3.6130   -3.1170    1.1520 hc        1 BII      0.073367
     41 HAN         3.1910   -3.1430   -1.2940 hx        1 BII      0.118700
     42 HAW1        0.6770   -2.8090   -1.1470 hc        1 BII      0.073367
     43 HAW2        1.3710   -3.6570    0.2940 hc        1 BII      0.073367
     44 HAW3        0.8900   -1.9130    0.4250 hc        1 BII      0.073367
     45 HAO         3.7210   -0.6830   -1.4850 hn        1 BII      0.453300
     46 HAY         4.2920   -2.1240   -4.9550 ha        1 BII      0.177000
     47 HBC         5.9960   -0.7700   -6.1510 ha        1 BII      0.178000
     48 HAZ         6.0100    1.7220   -5.9080 ha        1 BII      0.172000
     49 HAR         4.3410    2.8530   -4.4740 ha        1 BII      0.176000
     50 HAE         1.4380    1.4760   -3.3500 hn        1 BII      0.464800
     51 H6          1.0750    5.7740   -1.4920 h4        1 BII      0.065100
     52 HAS         3.8600    4.8680    1.5150 ha        1 BII      0.159000
     53 HBB         8.3710    6.9440    1.5770 ha        1 BII      0.132000
     54 HBD         5.9210    8.2060    1.3420 h1        1 BII      0.093700
     55 HAV1        9.7000    5.1280    1.1490 h1        1 BII      0.053033
     56 HAV2        9.9330    4.4430   -0.5440 h1        1 BII      0.053033
     57 HAV3        9.5310    6.2250   -0.3170 h1        1 BII      0.053033
     58 HBA         4.3320    6.7620    3.0540 ha        1 BII      0.163000
     59 HBG1        8.1110    9.2130    2.3140 h1        1 BII      0.065200
     60 HBG2        6.6540   10.1140    2.9430 h1        1 BII      0.065200
     61 HBF1        6.3590    6.8230    4.9890 h1        1 BII      0.074700
     62 HBF2        7.7610    6.3460    3.9290 h1        1 BII      0.074700
     63 HBI         7.4030   10.1660    5.1580 hx        1 BII      0.121700
     64 HBH1        7.7860    8.1660    6.2440 hc        1 BII      0.080700
     65 HBH2        9.1690    7.6740    5.1910 hc        1 BII      0.080700
     66 HBJ         9.1920   11.1790    4.1150 hn        1 BII      0.460300
     67 HBK1       10.5250    8.5240    3.8310 hx        1 BII      0.110367
     68 HBK2       11.3870   10.1400    3.7500 hx        1 BII      0.110367
     69 HBK3       10.1150    9.7180    2.5030 hx        1 BII      0.110367
     70 HAO2        2.1590   -0.3870   -1.0850 hn        1 BII      0.453300
     71 HBJ2        9.7510   10.2860    5.4070 hn        1 BII      0.460300
@<TRIPOS>BOND
     1    1    2 1   
     2    1   38 1   
     3    1   39 1   
     4    1   40 1   
     5    2    3 1   
     6    2    4 1   
     7    2   41 1   
     8    3   42 1   
     9    3   43 1   
    10    3   44 1   
    11    4    5 1   
    12    4   45 1   
    13    4   70 1   
    14    5    6 2   
    15    5    7 2   
    16    5    8 1   
    17    8    9 ar  
    18    8   13 ar  
    19    9   10 ar  
    20    9   46 1   
    21   10   11 ar  
    22   10   47 1   
    23   11   12 ar  
    24   11   48 1   
    25   12   13 ar  
    26   12   49 1   
    27   13   14 1   
    28   14   15 1   
    29   14   50 1   
    30   15   16 ar  
    31   15   17 ar  
    32   16   21 ar  
    33   17   18 1   
    34   17   19 ar  
    35   19   20 ar  
    36   19   51 1   
    37   20   21 ar  
    38   21   22 1   
    39   22   23 2   
    40   23   24 1   
    41   23   28 1   
    42   24   25 2   
    43   24   26 1   
    44   25   30 1   
    45   25   53 1   
    46   26   27 1   
    47   27   55 1   
    48   27   56 1   
    49   27   57 1   
    50   28   29 2   
    51   28   52 1   
    52   29   30 1   
    53   29   58 1   
    54   30   31 1   
    55   30   54 1   
    56   31   32 1   
    57   31   33 1   
    58   32   35 1   
    59   32   59 1   
    60   32   60 1   
    61   33   34 1   
    62   33   61 1   
    63   33   62 1   
    64   34   35 1   
    65   34   64 1   
    66   34   65 1   
    67   35   36 1   
    68   35   63 1   
    69   36   37 1   
    70   36   66 1   
    71   36   71 1   
    72   37   67 1   
    73   37   68 1   
    74   37   69 1   
@<TRIPOS>SUBSTRUCTURE
     1 BII         1 TEMP              0 ****  ****    0 ROOT
