@<TRIPOS>MOLECULE
BII
   69    64     1     0     0
SMALL
bcc


@<TRIPOS>ATOM
      1 CAI         2.0880   -3.9460    4.7870 c3        1 BII     -0.227000
      2 CAN         1.8540   -5.4880    4.7840 c3        1 BII      0.037000
      3 CAW         1.9360   -6.0110    6.1860 c3        1 BII     -0.227000
      4 NAO         0.5970   -5.7700    4.2490 n3        1 BII     -0.889000
      5 SAP         0.4220   -5.9890    2.5950 s4        1 BII      2.077800
      6 OAX         1.2770   -5.0790    1.8490 o         1 BII     -0.549900
      7 OAJ         0.9320   -7.2360    2.1850 o         1 BII     -0.549900
      8 CAQ        -1.2880   -5.8050    2.1320 c1        1 BII     -0.843000
      9 CAY        -2.2590   -6.7550    2.6040 c2        1 BII     -0.007000
     10 CBC        -3.5580   -6.7110    2.1290 c1        1 BII     -0.178000
     11 CAZ        -3.9270   -5.7350    1.1830 c1        1 BII     -0.119500
     12 CAR        -2.9650   -4.7950    0.7170 c1        1 BII     -0.119500
     13 CAK        -1.6600   -4.8370    1.1930 c1        1 BII      0.167000
     14 NAE        -0.7270   -3.9120    0.7410 n3        1 BII     -0.263000
     15 C4         -1.0480   -2.5220    0.7430 c2        1 BII      0.142000
     16 N3         -0.0710   -1.5970    0.5060 n2        1 BII     -0.213000
     17 C5         -2.3040   -2.1260    0.9720 c1        1 BII     -0.205000
     18 CL5        -3.4710   -3.2600    1.4440 cl        1 BII      0.032000
     19 C6         -2.6210   -0.7440    0.9680 c2        1 BII     -0.010000
     20 N1         -1.6680    0.1580    0.7370 n1        1 BII     -0.160000
     21 C2         -0.3780   -0.2520    0.5020 c1        1 BII      0.113000
     22 NAH         0.6750    0.7140    0.3830 n2        1 BII     -0.105000
     23 CAM         0.7890    1.4640   -0.7340 c1        1 BII      0.106000
     24 CAT         1.8510    2.4210   -0.8450 c1        1 BII      0.036000
     25 CBB         1.8170    3.4930   -1.9540 c1        1 BII     -0.138000
     26 OAU         2.9920    2.2840   -0.0510 os        1 BII     -0.213000
     27 CAV         3.0260    3.2030    1.1160 c3        1 BII     -0.074000
     28 CAS        -0.1470    1.2970   -1.8140 c2        1 BII     -0.193000
     29 CBA        -0.2870    2.3510   -2.8460 c1        1 BII     -0.093000
     30 CBD         0.8340    3.3850   -3.0600 c1        1 BII      0.032000
     31 NBE         0.1780    4.5360   -2.9770 n3        1 BII     -0.241000
     32 CBG        -0.2200    5.0600   -4.4600 c3        1 BII     -0.080000
     33 CBF         0.9460    5.4490   -2.4690 c3        1 BII     -0.078000
     34 CBH         0.5020    6.8210   -3.1930 c3        1 BII     -0.207000
     35 CBI        -0.3850    6.4080   -4.3500 c3        1 BII     -0.032000
     36 NBJ         0.0600    7.1030   -5.6270 n3        1 BII     -0.298000
     37 CBK        -0.9720    8.0630   -6.0510 c3        1 BII     -0.124000
     38 HAI1        3.0370   -3.7500    5.0700 hc        1 BII      0.081833
     39 HAI2        1.9460   -3.6100    3.9340 hc        1 BII      0.081833
     40 HAI3        1.4740   -3.5250    5.4060 hc        1 BII      0.081833
     41 HAN         2.5540   -5.9290    4.2280 h1        1 BII      0.115000
     42 HAW1        1.9690   -6.9470    6.1680 hc        1 BII      0.081833
     43 HAW2        2.7550   -5.6610    6.6220 hc        1 BII      0.081833
     44 HAW3        1.1790   -5.7320    6.6710 hc        1 BII      0.081833
     45 HAO        -0.1760   -5.7940    4.8230 hn        1 BII      0.251000
     46 HAY        -1.9910   -7.4600    3.2890 ha        1 BII      0.164000
     47 HBC        -4.2210   -7.3610    2.4530 ha        1 BII      0.143000
     48 HAZ        -4.9240   -5.6990    0.8180 ha        1 BII      0.140500
     49 HAR        -3.1950   -4.1900    0.1300 ha        1 BII      0.140500
     50 HAE         0.0130   -4.1860    0.3780 hn        1 BII      0.263000
     51 H6         -3.6170   -0.4270    1.1440 h4        1 BII      0.182000
     52 HAS        -0.5660    0.5020   -1.9280 ha        1 BII      0.143000
     53 HBB         2.5200    4.1110   -2.0190 ha        1 BII      0.155000
     54 HBD         1.2330    3.4140   -4.0130 ha        1 BII      0.096000
     55 HAV1        2.2470    3.0190    1.7130 h1        1 BII      0.085000
     56 HAV2        3.8400    3.0710    1.6080 h1        1 BII      0.085000
     57 HAV3        2.9830    4.1330    0.7980 h1        1 BII      0.085000
     58 HBA        -1.1500    2.3810   -3.4460 ha        1 BII      0.143000
     59 HBG1       -1.0720    4.6340   -4.7640 h1        1 BII      0.091000
     60 HBG2        0.5280    4.8520   -5.1190 h1        1 BII      0.091000
     61 HBF1        0.8150    5.5110   -1.5550 h1        1 BII      0.084500
     62 HBF2        1.8180    5.2650   -2.6500 h1        1 BII      0.084500
     63 HBI        -1.3540    6.6320   -4.1430 h1        1 BII      0.109000
     64 HBH1       -0.0600    7.4550   -2.4940 hc        1 BII      0.091500
     65 HBH2        1.2640    7.2830   -3.5170 hc        1 BII      0.091500
     66 HBJ         0.8750    7.5640   -5.4690 hn        1 BII      0.154000
     67 HBK1       -0.6060    8.6590   -6.6540 h1        1 BII      0.071667
     68 HBK2       -1.6520    7.6200   -6.4390 h1        1 BII      0.071667
     69 HBK3       -1.2880    8.5240   -5.3150 h1        1 BII      0.071667
@<TRIPOS>BOND
     1    1    2 1   
     2    1   38 1   
     3    1   39 1   
     4    1   40 1   
     5    2    3 1   
     6    2    4 1   
     7    2   41 1   
     8    3   42 1   
     9    3   43 1   
    10    3   44 1   
    11    4    5 1   
    12    4   45 1   
    13    5    6 1   
    14    5    7 1   
    15    8    9 1   
    16    8   13 1   
    17    9   10 1   
    18    9   46 1   
    19   10   47 1   
    20   11   12 1   
    21   11   48 1   
    22   12   49 1   
    23   13   14 1   
    24   14   15 1   
    25   14   50 1   
    26   15   16 1   
    27   15   17 1   
    28   16   21 1   
    29   17   19 1   
    30   19   20 1   
    31   19   51 1   
    32   21   22 1   
    33   22   23 1   
    34   23   28 1   
    35   24   25 1   
    36   24   26 1   
    37   25   53 1   
    38   26   27 1   
    39   27   55 1   
    40   27   56 1   
    41   27   57 1   
    42   28   29 1   
    43   28   52 1   
    44   29   58 1   
    45   30   31 1   
    46   30   54 1   
    47   31   32 1   
    48   31   33 1   
    49   32   35 1   
    50   32   59 1   
    51   32   60 1   
    52   33   34 1   
    53   33   61 1   
    54   33   62 1   
    55   34   35 1   
    56   34   64 1   
    57   34   65 1   
    58   35   36 1   
    59   35   63 1   
    60   36   37 1   
    61   36   66 1   
    62   37   67 1   
    63   37   68 1   
    64   37   69 1   
@<TRIPOS>SUBSTRUCTURE
     1 BII         1 TEMP              0 ****  ****    0 ROOT
