@<TRIPOS>MOLECULE
BII
   69    72     1     0     0
SMALL
bcc


@<TRIPOS>ATOM
      1 CAI        11.7400    2.5690   22.7190 c3        1 BII     -0.229000
      2 CAN        11.0160    2.9460   24.0150 c3        1 BII      0.041000
      3 CAW        10.4380    1.6730   24.6370 c3        1 BII     -0.229000
      4 NAO        11.8580    3.6850   24.9270 n3        1 BII     -0.888000
      5 SAP        11.6510    5.2270   25.3550 s6        1 BII      2.862000
      6 OAX        12.9290    5.8250   25.4860 o         1 BII     -0.945000
      7 OAJ        10.7550    5.8720   24.4680 o         1 BII     -0.945000
      8 CAQ        10.9540    5.1300   26.8850 ca        1 BII     -0.896000
      9 CAY        11.8080    5.3380   27.9850 ca        1 BII     -0.017000
     10 CBC        11.3610    5.2630   29.2900 ca        1 BII     -0.200000
     11 CAZ        10.0110    4.9800   29.5340 ca        1 BII     -0.055000
     12 CAR         9.1320    4.7850   28.4870 ca        1 BII     -0.178000
     13 CAK         9.5830    4.8540   27.1400 ca        1 BII      0.241000
     14 NAE         8.7120    4.6890   26.0680 nh        1 BII     -0.305000
     15 C4          7.5140    3.9470   26.1020 c2        1 BII      0.200000
     16 N3          7.4040    2.8860   26.9420 n2        1 BII     -0.330000
     17 C5          6.4670    4.2850   25.1930 c2        1 BII     -0.322000
     18 CL5         6.5580    5.5940   24.1280 cl        1 BII     -0.011000
     19 C6          5.3220    3.4560   25.2140 c2        1 BII      0.018000
     20 N1          5.1640    2.4140   26.0170 n2        1 BII     -0.201000
     21 C2          6.2240    2.1360   26.9090 c2        1 BII      0.183000
     22 NAH         5.9870    1.1130   27.7890 n2        1 BII     -0.307000
     23 CAM         6.9450    0.5330   28.5590 c2        1 BII      0.099000
     24 CAT         6.4680   -0.1950   29.7670 c2        1 BII      0.291000
     25 CBB         7.3210   -0.9490   30.5790 c2        1 BII     -0.407000
     26 OAU         5.1550   -0.0700   30.0420 os        1 BII     -0.118000
     27 CAV         4.6130   -0.7520   31.1750 c3        1 BII     -0.096000
     28 CAS         8.3000    0.4130   28.3240 c2        1 BII     -0.304000
     29 CBA         9.2690   -0.3180   29.1420 c3        1 BII     -0.112000
     30 CBD         8.6990   -1.0470   30.3210 c2        1 BII      0.219000
     31 NBE         9.5290   -1.7680   31.1080 n3        1 BII     -0.225000
     32 CBG        10.9570   -1.8810   30.8770 c3        1 BII     -0.088000
     33 CBF         9.1100   -2.4930   32.2970 c3        1 BII     -0.042000
     34 CBH        10.3660   -3.0850   32.9460 c3        1 BII     -0.170000
     35 CBI        11.5400   -2.8410   31.9680 c3        1 BII     -0.014000
     36 NBJ        12.1690   -4.0470   31.4880 n3        1 BII     -0.304000
     37 CBK        11.3670   -4.9410   30.6980 c3        1 BII     -0.127000
     38 HAI1       12.1330    3.4760   22.2020 hc        1 BII      0.081667
     39 HAI2       12.5910    1.8770   22.9240 hc        1 BII      0.081667
     40 HAI3       11.0190    2.0560   22.0390 hc        1 BII      0.081667
     41 HAN        10.1480    3.6250   23.7390 h1        1 BII      0.116000
     42 HAW1       11.2510    0.9570   24.9060 hc        1 BII      0.081667
     43 HAW2        9.8450    1.9070   25.5540 hc        1 BII      0.081667
     44 HAW3        9.7630    1.1820   23.8950 hc        1 BII      0.081667
     45 HAO        12.6210    3.1530   25.2690 hn        1 BII      0.236000
     46 HAY        12.8690    5.5820   27.7860 ha        1 BII      0.156000
     47 HBC        12.0510    5.4340   30.1280 ha        1 BII      0.133000
     48 HAZ         9.6430    4.9310   30.5710 ha        1 BII      0.129000
     49 HAR         8.0700    4.5860   28.7040 ha        1 BII      0.163000
     50 HAE         8.8420    5.2760   25.2630 hn        1 BII      0.281000
     51 H6          4.4820    3.6640   24.5220 h4        1 BII      0.160000
     52 HAS         8.7490    0.9030   27.4450 ha        1 BII      0.173000
     53 HBB         6.9010   -1.4780   31.4480 ha        1 BII      0.146000
     54 HBD         9.8110   -1.0610   28.4820 hc        1 BII      0.131000
     55 HAV1        4.7390   -1.8560   31.0660 h1        1 BII      0.100000
     56 HAV2        5.0840   -0.3820   32.1170 h1        1 BII      0.100000
     57 HAV3        3.5290   -0.4700   31.1340 h1        1 BII      0.100000
     58 HBA        10.0520    0.4100   29.5170 hc        1 BII      0.131000
     59 HBG1       11.1440   -2.2650   29.8350 h1        1 BII      0.105500
     60 HBG2       11.4340   -0.8650   30.9650 h1        1 BII      0.105500
     61 HBF1        8.5840   -1.7920   33.0040 h1        1 BII      0.104000
     62 HBF2        8.3880   -3.3050   32.0030 h1        1 BII      0.104000
     63 HBI        12.3460   -2.2700   32.5190 h1        1 BII      0.117000
     64 HBH1       10.5820   -2.5660   33.9130 hc        1 BII      0.114500
     65 HBH2       10.2150   -4.1700   33.1690 hc        1 BII      0.114500
     66 HBJ        13.0270   -3.8260   31.0170 hn        1 BII      0.172000
     67 HBK1       11.0540   -4.5140   29.7050 h1        1 BII      0.076000
     68 HBK2       11.9660   -5.8720   30.5100 h1        1 BII      0.076000
     69 HBK3       10.4400   -5.2200   31.2640 h1        1 BII      0.076000
@<TRIPOS>BOND
     1    1    2 1   
     2    1   38 1   
     3    1   39 1   
     4    1   40 1   
     5    2    3 1   
     6    2    4 1   
     7    2   41 1   
     8    3   42 1   
     9    3   43 1   
    10    3   44 1   
    11    4    5 1   
    12    4   45 1   
    13    5    6 1   
    14    5    7 1   
    15    5    8 1   
    16    8    9 1   
    17    8   13 1   
    18    9   10 1   
    19    9   46 1   
    20   10   11 1   
    21   10   47 1   
    22   11   12 1   
    23   11   48 1   
    24   12   13 1   
    25   12   49 1   
    26   13   14 1   
    27   14   15 1   
    28   14   50 1   
    29   15   16 1   
    30   15   17 1   
    31   16   21 1   
    32   17   18 1   
    33   17   19 1   
    34   19   20 1   
    35   19   51 1   
    36   20   21 1   
    37   21   22 1   
    38   22   23 1   
    39   23   24 1   
    40   23   28 1   
    41   24   25 1   
    42   24   26 1   
    43   25   30 1   
    44   25   53 1   
    45   26   27 1   
    46   27   55 1   
    47   27   56 1   
    48   27   57 1   
    49   28   29 1   
    50   28   52 1   
    51   29   30 1   
    52   29   54 1   
    53   29   58 1   
    54   30   31 1   
    55   31   32 1   
    56   31   33 1   
    57   32   35 1   
    58   32   59 1   
    59   32   60 1   
    60   33   34 1   
    61   33   61 1   
    62   33   62 1   
    63   34   35 1   
    64   34   64 1   
    65   34   65 1   
    66   35   36 1   
    67   35   63 1   
    68   36   37 1   
    69   36   66 1   
    70   37   67 1   
    71   37   68 1   
    72   37   69 1   
@<TRIPOS>SUBSTRUCTURE
     1 BII         1 TEMP              0 ****  ****    0 ROOT
