@<TRIPOS>MOLECULE
BII
   72    75     1     0     0
SMALL
bcc


@<TRIPOS>ATOM
      1 CAI         6.2810   -0.2580   -1.1000 c3        1 BII     -0.136100
      2 CAN         4.8110   -0.5550   -0.8360 c3        1 BII      0.140500
      3 CAW         4.5920   -0.8340    0.6450 c3        1 BII     -0.136100
      4 NAO         3.9260    0.5770   -1.3170 n4        1 BII     -0.728900
      5 SAP         2.2610    0.0640   -1.8740 sy        1 BII      1.454200
      6 OAX         2.2160   -1.2920   -1.6280 o         1 BII     -0.562800
      7 OAJ         1.3780    0.9430   -1.2610 o         1 BII     -0.562800
      8 CAQ         2.3620    0.3960   -3.5000 ca        1 BII     -0.439500
      9 CAY         2.9530   -0.6170   -4.2820 ca        1 BII      0.002000
     10 CBC         3.0250   -0.5500   -5.6730 ca        1 BII     -0.093000
     11 CAZ         2.4930    0.5500   -6.3360 ca        1 BII      0.004000
     12 CAR         1.8890    1.5820   -5.6020 ca        1 BII     -0.115000
     13 CAK         1.8200    1.5040   -4.2080 ca        1 BII      0.106600
     14 NAE         1.1320    2.6060   -3.5060 n4        1 BII     -0.653100
     15 C4          2.0810    3.6490   -3.0330 ca        1 BII      0.529200
     16 N3          2.9820    3.2510   -2.0960 nb        1 BII     -0.770000
     17 C5          2.0060    4.9630   -3.5310 ca        1 BII     -0.220200
     18 CL5         0.9010    5.4610   -4.6840 cl        1 BII      0.043600
     19 C6          2.9500    5.8830   -2.9670 ca        1 BII      0.511200
     20 N1          3.8280    5.5400   -2.0330 nb        1 BII     -0.668000
     21 C2          3.8340    4.2140   -1.5950 ca        1 BII      0.915000
     22 NAH         4.7950    3.7170   -0.6840 ne        1 BII     -0.718700
     23 CAM         5.3060    4.4000    0.3070 cf        1 BII      0.673900
     24 CAT         6.3740    3.7810    1.1480 cf        1 BII      0.009500
     25 CBB         7.2000    4.5280    1.9100 c2        1 BII     -0.195200
     26 OAU         6.4250    2.4040    1.0600 os        1 BII     -0.340900
     27 CAV         7.3330    1.7470    1.9470 c3        1 BII      0.101700
     28 CAS         4.9540    5.7530    0.7530 cf        1 BII     -0.291600
     29 CBA         5.7540    6.4940    1.5340 c2        1 BII     -0.063200
     30 CBD         7.1050    6.0260    2.0010 c3        1 BII      0.246900
     31 NBE         7.4250    6.5070    3.3520 n3        1 BII     -0.716600
     32 CBG         7.3350    7.9530    3.5320 c3        1 BII      0.152800
     33 CBF         8.7150    6.0500    3.8760 c3        1 BII      0.155800
     34 CBH         9.3360    7.1690    4.7270 c3        1 BII     -0.115400
     35 CBI         8.3190    8.3250    4.6830 c3        1 BII      0.099500
     36 NBJ         8.9640    9.6680    4.5190 n4        1 BII     -0.754000
     37 CBK         8.0270   10.7860    4.7780 c3        1 BII      0.077100
     38 HAI1        6.6210    0.6410   -0.5260 hc        1 BII      0.082200
     39 HAI2        6.4810   -0.0960   -2.1870 hc        1 BII      0.082200
     40 HAI3        6.8830   -1.1410   -0.7640 hc        1 BII      0.082200
     41 HAN         4.5100   -1.4710   -1.4330 hx        1 BII      0.107700
     42 HAW1        3.5260   -1.0880    0.8650 hc        1 BII      0.082200
     43 HAW2        5.2170   -1.7190    0.9300 hc        1 BII      0.082200
     44 HAW3        4.9090    0.0370    1.2720 hc        1 BII      0.082200
     45 HAO         3.8450    1.2460   -0.5380 hn        1 BII      0.476800
     46 HAY         3.3490   -1.5260   -3.7800 ha        1 BII      0.189000
     47 HBC         3.4920   -1.3770   -6.2430 ha        1 BII      0.207000
     48 HAZ         2.5330    0.6180   -7.4420 ha        1 BII      0.206000
     49 HAR         1.4650    2.4390   -6.1600 ha        1 BII      0.185000
     50 HAE         0.6000    2.2430   -2.6880 hn        1 BII      0.499800
     51 H6          2.9640    6.9430   -3.3090 h4        1 BII      0.095100
     52 HAS         3.9790    6.1580    0.4290 ha        1 BII      0.169000
     53 HBB         8.0020    4.0510    2.4980 ha        1 BII      0.168000
     54 HBD         7.8580    6.4400    1.2450 h1        1 BII      0.071700
     55 HAV1        7.1140    2.0160    3.0090 h1        1 BII      0.064033
     56 HAV2        8.3880    1.9960    1.6770 h1        1 BII      0.064033
     57 HAV3        7.1250    0.6610    1.7650 h1        1 BII      0.064033
     58 HBA         5.4410    7.5090    1.8350 ha        1 BII      0.155000
     59 HBG1        7.5690    8.5300    2.5920 h1        1 BII      0.065700
     60 HBG2        6.2820    8.1970    3.8460 h1        1 BII      0.065700
     61 HBF1        8.5100    5.1460    4.5150 h1        1 BII      0.075700
     62 HBF2        9.4340    5.7520    3.0620 h1        1 BII      0.075700
     63 HBI         7.7440    8.3630    5.6570 hx        1 BII      0.132700
     64 HBH1       10.3380    7.4530    4.3170 hc        1 BII      0.091700
     65 HBH2        9.4840    6.8240    5.7820 hc        1 BII      0.091700
     66 HBJ         9.7520    9.7260    5.1800 hn        1 BII      0.459800
     67 HBK1        7.1410   10.6970    4.0940 hx        1 BII      0.115700
     68 HBK2        8.5560   11.7620    4.5910 hx        1 BII      0.115700
     69 HBK3        7.6800   10.7510    5.8470 hx        1 BII      0.115700
     70 HAO2        4.4410    1.0750   -2.0480 hn        1 BII      0.476800
     71 HAE2        0.4620    3.0530   -4.1580 hn        1 BII      0.499800
     72 HBJ2        9.3440    9.7510    3.5680 hn        1 BII      0.459800
@<TRIPOS>BOND
     1    1    2 1   
     2    1   38 1   
     3    1   39 1   
     4    1   40 1   
     5    2    3 1   
     6    2    4 1   
     7    2   41 1   
     8    3   42 1   
     9    3   43 1   
    10    3   44 1   
    11    4    5 1   
    12    4   45 1   
    13    4   70 1   
    14    5    6 2   
    15    5    7 2   
    16    5    8 1   
    17    8    9 ar  
    18    8   13 ar  
    19    9   10 ar  
    20    9   46 1   
    21   10   11 ar  
    22   10   47 1   
    23   11   12 ar  
    24   11   48 1   
    25   12   13 ar  
    26   12   49 1   
    27   13   14 1   
    28   14   15 1   
    29   14   50 1   
    30   14   71 1   
    31   15   16 ar  
    32   15   17 ar  
    33   16   21 ar  
    34   17   18 1   
    35   17   19 ar  
    36   19   20 ar  
    37   19   51 1   
    38   20   21 ar  
    39   21   22 1   
    40   22   23 2   
    41   23   24 1   
    42   23   28 1   
    43   24   25 2   
    44   24   26 1   
    45   25   30 1   
    46   25   53 1   
    47   26   27 1   
    48   27   55 1   
    49   27   56 1   
    50   27   57 1   
    51   28   29 2   
    52   28   52 1   
    53   29   30 1   
    54   29   58 1   
    55   30   31 1   
    56   30   54 1   
    57   31   32 1   
    58   31   33 1   
    59   32   35 1   
    60   32   59 1   
    61   32   60 1   
    62   33   34 1   
    63   33   61 1   
    64   33   62 1   
    65   34   35 1   
    66   34   64 1   
    67   34   65 1   
    68   35   36 1   
    69   35   63 1   
    70   36   37 1   
    71   36   66 1   
    72   36   72 1   
    73   37   67 1   
    74   37   68 1   
    75   37   69 1   
@<TRIPOS>SUBSTRUCTURE
     1 BII         1 TEMP              0 ****  ****    0 ROOT
