@<TRIPOS>MOLECULE
BII
   71    74     1     0     0
SMALL
bcc


@<TRIPOS>ATOM
      1 CAI         3.8650   -2.1750    0.3860 c3        1 BII     -0.127600
      2 CAN         2.7940   -2.2480   -0.6940 c3        1 BII      0.127500
      3 CAW         1.4640   -2.6710   -0.0800 c3        1 BII     -0.127600
      4 NAO         2.6640   -0.9520   -1.4390 n4        1 BII     -0.706900
      5 SAP         1.8000   -1.1010   -3.1070 sy        1 BII      1.488200
      6 OAX         1.9060   -2.4430   -3.4190 o         1 BII     -0.579300
      7 OAJ         0.5660   -0.5460   -2.8210 o         1 BII     -0.579300
      8 CAQ         2.8040   -0.1540   -3.9450 ca        1 BII     -0.542500
      9 CAY         3.5870   -0.7350   -4.9700 ca        1 BII      0.010000
     10 CBC         4.4520    0.0170   -5.7430 ca        1 BII     -0.151000
     11 CAZ         4.5660    1.3930   -5.5150 ca        1 BII      0.012000
     12 CAR         3.8110    2.0070   -4.5190 ca        1 BII     -0.161000
     13 CAK         2.9300    1.2520   -3.7270 ca        1 BII      0.266600
     14 NAE         2.1530    1.8060   -2.6810 nh        1 BII     -0.775300
     15 C4          2.5830    2.9970   -2.0340 ca        1 BII      0.639200
     16 N3          3.8910    3.0840   -1.6480 nb        1 BII     -0.704000
     17 C5          1.6450    4.0250   -1.7220 ca        1 BII     -0.272200
     18 CL5         0.0290    3.9490   -2.1780 cl        1 BII     -0.012400
     19 C6          2.1350    5.1360   -0.9980 ca        1 BII      0.480200
     20 N1          3.4110    5.2570   -0.6220 nb        1 BII     -0.714000
     21 C2          4.2700    4.2260   -0.9770 ca        1 BII      0.858000
     22 NAH         5.6760    4.3720   -0.7630 ne        1 BII     -0.593700
     23 CAM         6.1840    4.7940    0.3520 cf        1 BII      0.582900
     24 CAT         7.6620    5.0000    0.4710 cf        1 BII      0.057500
     25 CBB         8.1750    5.9040    1.3320 c2        1 BII     -0.275200
     26 OAU         8.3950    4.1850   -0.3550 os        1 BII     -0.293900
     27 CAV         9.8140    4.3140   -0.2870 c3        1 BII      0.104700
     28 CAS         5.4840    5.1450    1.6020 cf        1 BII     -0.250600
     29 CBA         5.9870    6.0320    2.4680 c2        1 BII     -0.120200
     30 CBD         7.2930    6.7440    2.2120 c3        1 BII      0.270900
     31 NBE         7.9500    7.1340    3.4680 n3        1 BII     -0.717600
     32 CBG         7.1650    8.0330    4.3060 c3        1 BII      0.151800
     33 CBF         9.3000    7.6750    3.3250 c3        1 BII      0.157800
     34 CBH         9.5030    8.7720    4.3810 c3        1 BII     -0.113400
     35 CBI         8.0900    9.1670    4.8400 c3        1 BII      0.095500
     36 NBJ         7.6730   10.5460    4.4050 n4        1 BII     -0.757000
     37 CBK         7.6810   10.7640    2.9420 c3        1 BII      0.073100
     38 HAI1        3.5930   -1.4380    1.1790 hc        1 BII      0.073533
     39 HAI2        4.8610   -1.9010   -0.0420 hc        1 BII      0.073533
     40 HAI3        3.9570   -3.1840    0.8610 hc        1 BII      0.073533
     41 HAN         3.1060   -3.0220   -1.4640 hx        1 BII      0.118700
     42 HAW1        0.6630   -2.7530   -0.8550 hc        1 BII      0.073533
     43 HAW2        1.5990   -3.6800    0.3850 hc        1 BII      0.073533
     44 HAW3        1.1360   -1.9590    0.7150 hc        1 BII      0.073533
     45 HAO         3.5960   -0.5520   -1.5520 hn        1 BII      0.453300
     46 HAY         3.4930   -1.8240   -5.1590 ha        1 BII      0.178000
     47 HBC         5.0460   -0.4640   -6.5400 ha        1 BII      0.179000
     48 HAZ         5.2510    2.0000   -6.1340 ha        1 BII      0.173000
     49 HAR         3.9140    3.0940   -4.3620 ha        1 BII      0.175000
     50 HAE         1.1610    1.7990   -2.8740 hn        1 BII      0.464800
     51 H6          1.4570    5.9680   -0.7160 h4        1 BII      0.061100
     52 HAS         4.5170    4.6500    1.7900 ha        1 BII      0.158000
     53 HBB         9.2610    6.0510    1.4110 ha        1 BII      0.154000
     54 HBD         7.0320    7.6820    1.6120 h1        1 BII      0.033700
     55 HAV1       10.1820    4.0700    0.7390 h1        1 BII      0.057033
     56 HAV2       10.1720    3.5540   -1.0290 h1        1 BII      0.057033
     57 HAV3       10.1300    5.3410   -0.5900 h1        1 BII      0.057033
     58 HBA         5.4490    6.2770    3.3970 ha        1 BII      0.142000
     59 HBG1        6.8140    7.4310    5.1930 h1        1 BII      0.075700
     60 HBG2        6.2530    8.4400    3.7860 h1        1 BII      0.075700
     61 HBF1        9.4890    8.0990    2.2980 h1        1 BII      0.071200
     62 HBF2       10.0240    6.8300    3.4950 h1        1 BII      0.071200
     63 HBI         8.0370    9.1900    5.9700 hx        1 BII      0.118700
     64 HBH1       10.0610    8.3600    5.2630 hc        1 BII      0.092200
     65 HBH2       10.1030    9.6200    3.9710 hc        1 BII      0.092200
     66 HBJ         6.7250   10.7200    4.7620 hn        1 BII      0.457300
     67 HBK1        7.3590   11.8190    2.7240 hx        1 BII      0.110033
     68 HBK2        8.7170   10.5970    2.5390 hx        1 BII      0.110033
     69 HBK3        6.9750   10.0450    2.4460 hx        1 BII      0.110033
     70 HAO2        2.1350   -0.3030   -0.8540 hn        1 BII      0.453300
     71 HBJ2        8.3120   11.2220    4.8440 hn        1 BII      0.457300
@<TRIPOS>BOND
     1    1    2 1   
     2    1   38 1   
     3    1   39 1   
     4    1   40 1   
     5    2    3 1   
     6    2    4 1   
     7    2   41 1   
     8    3   42 1   
     9    3   43 1   
    10    3   44 1   
    11    4    5 1   
    12    4   45 1   
    13    4   70 1   
    14    5    6 2   
    15    5    7 2   
    16    5    8 1   
    17    8    9 ar  
    18    8   13 ar  
    19    9   10 ar  
    20    9   46 1   
    21   10   11 ar  
    22   10   47 1   
    23   11   12 ar  
    24   11   48 1   
    25   12   13 ar  
    26   12   49 1   
    27   13   14 1   
    28   14   15 1   
    29   14   50 1   
    30   15   16 ar  
    31   15   17 ar  
    32   16   21 ar  
    33   17   18 1   
    34   17   19 ar  
    35   19   20 ar  
    36   19   51 1   
    37   20   21 ar  
    38   21   22 1   
    39   22   23 2   
    40   23   24 1   
    41   23   28 1   
    42   24   25 2   
    43   24   26 1   
    44   25   30 1   
    45   25   53 1   
    46   26   27 1   
    47   27   55 1   
    48   27   56 1   
    49   27   57 1   
    50   28   29 2   
    51   28   52 1   
    52   29   30 1   
    53   29   58 1   
    54   30   31 1   
    55   30   54 1   
    56   31   32 1   
    57   31   33 1   
    58   32   35 1   
    59   32   59 1   
    60   32   60 1   
    61   33   34 1   
    62   33   61 1   
    63   33   62 1   
    64   34   35 1   
    65   34   64 1   
    66   34   65 1   
    67   35   36 1   
    68   35   63 1   
    69   36   37 1   
    70   36   66 1   
    71   36   71 1   
    72   37   67 1   
    73   37   68 1   
    74   37   69 1   
@<TRIPOS>SUBSTRUCTURE
     1 BII         1 TEMP              0 ****  ****    0 ROOT
