@<TRIPOS>MOLECULE
BIJ
   64    68     1     0     0
SMALL
bcc


@<TRIPOS>ATOM
      1 CBD        -0.1710    0.4080    0.3250 c3        1 BIJ      0.202800
      2 CBF         1.1580    0.9920    0.8390 c3        1 BIJ      0.158300
      3 NBH         1.1130    1.3440    2.2470 n3        1 BIJ     -0.727600
      4 CBI         2.3180    1.9980    2.7060 c3        1 BIJ      0.153100
      5 CBG         0.7540    0.1870    3.0490 c3        1 BIJ      0.158300
      6 CBE        -0.5950   -0.4320    2.6350 c3        1 BIJ      0.202800
      7 NBC        -0.8130   -0.5510    1.2050 nh        1 BIJ     -0.630000
      8 CBA        -1.9250   -1.2280    0.7550 ca        1 BIJ      0.298600
      9 CAW        -2.3200   -1.1930   -0.6070 ca        1 BIJ     -0.343000
     10 CAQ        -3.3930   -1.9460   -1.0790 ca        1 BIJ      0.283100
     11 OAR        -3.7720   -1.9340   -2.3900 os        1 BIJ     -0.281900
     12 CAS        -3.0490   -1.0960   -3.2930 c3        1 BIJ      0.103700
     13 CAV        -2.7180   -2.0370    1.6370 ca        1 BIJ     -0.252000
     14 CAP        -3.7690   -2.7810    1.1720 ca        1 BIJ     -0.020000
     15 CAL        -4.1710   -2.8020   -0.1990 ca        1 BIJ     -0.008600
     16 NAH        -5.2100   -3.4820   -0.7490 ne        1 BIJ     -0.367100
     17 C2         -6.0110   -4.3960   -0.2220 cf        1 BIJ      0.649300
     18 N3         -5.8920   -4.9260    1.1010 nf        1 BIJ     -0.591000
     19 N1         -7.0640   -4.8630   -1.0930 nf        1 BIJ     -0.536000
     20 C6         -7.8810   -5.7560   -0.6650 c2        1 BIJ      0.389200
     21 C5         -7.8670   -6.4180    0.6910 c3        1 BIJ     -0.110900
     22 CL5        -9.3960   -6.1660    1.5230 cl        1 BIJ     -0.130400
     23 C4         -6.7240   -5.8410    1.4990 c2        1 BIJ      0.405200
     24 NAE        -6.5970   -6.3720    2.8840 n4        1 BIJ     -0.593400
     25 CAJ        -5.5040   -7.3340    3.0450 ca        1 BIJ      0.033600
     26 CAN        -4.7980   -7.3490    4.2440 ca        1 BIJ     -0.157600
     27 CAM        -4.9460   -6.4830    5.4600 c         1 BIJ      0.712100
     28 OAI        -5.7760   -5.5640    5.5770 o         1 BIJ     -0.647500
     29 NAU        -3.9880   -6.9000    6.3720 n         1 BIJ     -0.456800
     30 CAT        -3.8330   -6.4120    7.7040 c3        1 BIJ      0.085300
     31 CAX        -3.2060   -8.0280    5.8610 c3        1 BIJ      0.128300
     32 CAY        -3.7550   -8.2770    4.4720 ca        1 BIJ     -0.059300
     33 CBB        -3.4060   -9.1920    3.4930 ca        1 BIJ     -0.072000
     34 CAZ        -4.1130   -9.1680    2.2810 ca        1 BIJ     -0.082000
     35 CAO        -5.1460   -8.2600    2.0450 ca        1 BIJ     -0.103000
     36 HBD1       -0.8860    1.2570    0.1200 h1        1 BIJ      0.056700
     37 HBD2        0.0650   -0.1070   -0.6510 h1        1 BIJ      0.056700
     38 HBF1        1.9850    0.2560    0.6160 h1        1 BIJ      0.049950
     39 HBF2        1.3610    1.9290    0.2460 h1        1 BIJ      0.049950
     40 HBI1        3.2320    1.3470    2.6360 h1        1 BIJ      0.043033
     41 HBI2        2.1750    2.3040    3.7750 h1        1 BIJ      0.043033
     42 HBI3        2.4840    2.9180    2.0860 h1        1 BIJ      0.043033
     43 HBG1        0.6540    0.5160    4.1210 h1        1 BIJ      0.049950
     44 HBG2        1.5470   -0.6160    3.0050 h1        1 BIJ      0.049950
     45 HBE1       -0.6220   -1.4640    3.0880 h1        1 BIJ      0.056700
     46 HBE2       -1.4290    0.1810    3.0860 h1        1 BIJ      0.056700
     47 HAW        -1.7800   -0.5510   -1.3180 ha        1 BIJ      0.156000
     48 HAV        -2.5010   -2.0590    2.7150 ha        1 BIJ      0.146000
     49 HAS1       -1.9800   -1.4110   -3.3510 h1        1 BIJ      0.060033
     50 HAS2       -3.5720   -1.2790   -4.2680 h1        1 BIJ      0.060033
     51 HAS3       -3.1380   -0.0240   -2.9920 h1        1 BIJ      0.060033
     52 HAP        -4.3390   -3.3650    1.9130 ha        1 BIJ      0.149000
     53 H6         -8.6910   -6.0860   -1.3470 h4        1 BIJ      0.070800
     54 H5         -7.7610   -7.5300    0.5680 h1        1 BIJ      0.104700
     55 HX2        -2.1150   -7.7560    5.8250 h1        1 BIJ      0.091200
     56 HAE        -7.4850   -6.8390    3.1250 hn        1 BIJ      0.485300
     57 HAO        -5.6660   -8.2690    1.0740 ha        1 BIJ      0.162000
     58 HAT1       -4.5360   -5.5510    7.8670 h1        1 BIJ      0.063033
     59 HAT2       -2.7760   -6.0660    7.8590 h1        1 BIJ      0.063033
     60 HAT3       -4.0630   -7.2260    8.4450 h1        1 BIJ      0.063033
     61 HAX        -3.3400   -8.9310    6.5190 h1        1 BIJ      0.091200
     62 HBB        -2.5960   -9.9220    3.6510 ha        1 BIJ      0.172000
     63 HAZ        -3.8450   -9.8860    1.4870 ha        1 BIJ      0.171000
     64 HAE2       -6.4510   -5.5910    3.5580 hn        1 BIJ      0.485300
@<TRIPOS>BOND
     1    1    2 1   
     2    1    7 1   
     3    1   36 1   
     4    1   37 1   
     5    2    3 1   
     6    2   38 1   
     7    2   39 1   
     8    3    4 1   
     9    3    5 1   
    10    4   40 1   
    11    4   41 1   
    12    4   42 1   
    13    5    6 1   
    14    5   43 1   
    15    5   44 1   
    16    6    7 1   
    17    6   45 1   
    18    6   46 1   
    19    7    8 1   
    20    8    9 ar  
    21    8   13 ar  
    22    9   10 ar  
    23    9   47 1   
    24   10   11 1   
    25   10   15 ar  
    26   11   12 1   
    27   12   49 1   
    28   12   50 1   
    29   12   51 1   
    30   13   14 ar  
    31   13   48 1   
    32   14   15 ar  
    33   14   52 1   
    34   15   16 1   
    35   16   17 2   
    36   17   18 1   
    37   17   19 1   
    38   18   23 2   
    39   19   20 2   
    40   20   21 1   
    41   20   53 1   
    42   21   22 1   
    43   21   23 1   
    44   21   54 1   
    45   23   24 1   
    46   24   25 1   
    47   24   56 1   
    48   24   64 1   
    49   25   26 ar  
    50   25   35 ar  
    51   26   27 1   
    52   26   32 ar  
    53   27   28 2   
    54   27   29 1   
    55   29   30 1   
    56   29   31 1   
    57   30   58 1   
    58   30   59 1   
    59   30   60 1   
    60   31   32 1   
    61   31   55 1   
    62   31   61 1   
    63   32   33 ar  
    64   33   34 ar  
    65   33   62 1   
    66   34   35 ar  
    67   34   63 1   
    68   35   57 1   
@<TRIPOS>SUBSTRUCTURE
     1 BIJ         1 TEMP              0 ****  ****    0 ROOT
