@<TRIPOS>MOLECULE
BIJ
   63    67     1     0     0
SMALL
bcc


@<TRIPOS>ATOM
      1 CBD        29.0250   19.8820   31.3770 c3        1 BIJ      0.186300
      2 CBF        27.9720   19.3700   30.3740 c3        1 BIJ      0.165300
      3 NBH        26.7900   18.8200   31.0210 n3        1 BIJ     -0.732600
      4 CBI        25.8020   18.3610   30.0720 c3        1 BIJ      0.157100
      5 CBG        26.2330   19.7300   32.0100 c3        1 BIJ      0.165300
      6 CBE        27.2820   20.2410   33.0190 c3        1 BIJ      0.186300
      7 NBC        28.4570   20.7910   32.3630 nh        1 BIJ     -0.637000
      8 CBA        29.3950   21.4450   33.2000 ca        1 BIJ      0.170600
      9 CAW        30.4460   22.1880   32.6150 ca        1 BIJ     -0.240000
     10 CAQ        31.3470   22.9020   33.4050 ca        1 BIJ      0.168100
     11 OAR        32.3560   23.6760   32.8670 os        1 BIJ     -0.308900
     12 CAS        32.6020   23.5310   31.4740 c3        1 BIJ      0.112700
     13 CAV        29.2790   21.4610   34.6060 ca        1 BIJ     -0.213000
     14 CAP        30.1680   22.1870   35.3870 ca        1 BIJ     -0.070000
     15 CAL        31.2380   22.9100   34.8280 ca        1 BIJ      0.084400
     16 NAH        32.2420   23.5140   35.6090 ne        1 BIJ     -0.480100
     17 C2         31.9820   24.3550   36.5810 cf        1 BIJ      0.791300
     18 N3         30.6540   24.8040   36.9130 nf        1 BIJ     -0.762000
     19 N1         33.1330   24.8410   37.3220 nf        1 BIJ     -0.594000
     20 C6         32.9370   25.6950   38.2600 c2        1 BIJ      0.421200
     21 C5         31.6210   26.2740   38.6960 c3        1 BIJ     -0.150900
     22 CL5        31.3710   25.9310   40.4000 cl        1 BIJ     -0.124400
     23 C4         30.4750   25.6990   37.8510 c2        1 BIJ      0.651200
     24 NAE        29.2270   26.2620   38.1480 nh        1 BIJ     -0.691600
     25 CAJ        28.0220   25.9200   37.5170 ca        1 BIJ      0.224600
     26 CAN        26.8320   25.9220   38.2580 ca        1 BIJ     -0.222600
     27 CAM        26.6110   26.1820   39.7100 c         1 BIJ      0.716100
     28 OAI        27.4720   26.4350   40.5690 o         1 BIJ     -0.637500
     29 NAU        25.2230   26.1370   39.9380 n         1 BIJ     -0.470800
     30 CAT        24.6370   25.9410   41.2210 c3        1 BIJ      0.086300
     31 CAX        24.5100   25.7350   38.7240 c3        1 BIJ      0.124300
     32 CAY        25.5780   25.6540   37.6560 ca        1 BIJ     -0.057300
     33 CBB        25.4790   25.3830   36.3080 ca        1 BIJ     -0.143000
     34 CAZ        26.6650   25.3910   35.5550 ca        1 BIJ     -0.084000
     35 CAO        27.9020   25.6550   36.1250 ca        1 BIJ     -0.139000
     36 HBD1       29.5100   18.9940   31.8780 h1        1 BIJ      0.045450
     37 HBD2       29.8160   20.4250   30.7910 h1        1 BIJ      0.045450
     38 HBF1       27.7080   20.2090   29.6660 h1        1 BIJ      0.038200
     39 HBF2       28.4490   18.5460   29.7720 h1        1 BIJ      0.038200
     40 HBI1       24.9630   17.8720   30.6330 h1        1 BIJ      0.033033
     41 HBI2       25.3750   19.1860   29.4370 h1        1 BIJ      0.033033
     42 HBI3       26.2770   17.6010   29.3970 h1        1 BIJ      0.033033
     43 HBG1       25.7340   20.6200   31.5260 h1        1 BIJ      0.038200
     44 HBG2       25.4490   19.1680   32.5910 h1        1 BIJ      0.038200
     45 HBE1       26.8020   21.0580   33.6260 h1        1 BIJ      0.045450
     46 HBE2       27.5540   19.3940   33.7150 h1        1 BIJ      0.045450
     47 HAW        30.5440   22.2210   31.5200 ha        1 BIJ      0.143000
     48 HAV        28.4840   20.8970   35.1150 ha        1 BIJ      0.136000
     49 HAS1       31.7470   23.9360   30.8800 h1        1 BIJ      0.043700
     50 HAS2       33.5210   24.1510   31.3110 h1        1 BIJ      0.043700
     51 HAS3       32.7960   22.4640   31.2090 h1        1 BIJ      0.043700
     52 HAP        30.0380   22.1710   36.4820 ha        1 BIJ      0.146000
     53 H6         33.8250   26.0500   38.8220 h4        1 BIJ      0.048800
     54 H5         31.6490   27.3930   38.5960 h1        1 BIJ      0.117700
     55 HX2        23.7380   26.5120   38.4710 h1        1 BIJ      0.065200
     56 HAE        29.1250   26.5660   39.1040 hn        1 BIJ      0.471800
     57 HAO        28.7930   25.6600   35.4780 ha        1 BIJ      0.168000
     58 HAT1       25.3620   26.2750   42.0110 h1        1 BIJ      0.045700
     59 HAT2       23.6980   26.5520   41.2950 h1        1 BIJ      0.045700
     60 HAT3       24.3750   24.8610   41.3970 h1        1 BIJ      0.045700
     61 HAX        23.9990   24.7420   38.8610 h1        1 BIJ      0.065200
     62 HBB        24.5140   25.1700   35.8310 ha        1 BIJ      0.141000
     63 HAZ        26.6110   25.1830   34.4740 ha        1 BIJ      0.142000
@<TRIPOS>BOND
     1    1    2 1   
     2    1    7 1   
     3    1   36 1   
     4    1   37 1   
     5    2    3 1   
     6    2   38 1   
     7    2   39 1   
     8    3    4 1   
     9    3    5 1   
    10    4   40 1   
    11    4   41 1   
    12    4   42 1   
    13    5    6 1   
    14    5   43 1   
    15    5   44 1   
    16    6    7 1   
    17    6   45 1   
    18    6   46 1   
    19    7    8 1   
    20    8    9 ar  
    21    8   13 ar  
    22    9   10 ar  
    23    9   47 1   
    24   10   11 1   
    25   10   15 ar  
    26   11   12 1   
    27   12   49 1   
    28   12   50 1   
    29   12   51 1   
    30   13   14 ar  
    31   13   48 1   
    32   14   15 ar  
    33   14   52 1   
    34   15   16 1   
    35   16   17 2   
    36   17   18 1   
    37   17   19 1   
    38   18   23 2   
    39   19   20 2   
    40   20   21 1   
    41   20   53 1   
    42   21   22 1   
    43   21   23 1   
    44   21   54 1   
    45   23   24 1   
    46   24   25 1   
    47   24   56 1   
    48   25   26 ar  
    49   25   35 ar  
    50   26   27 1   
    51   26   32 ar  
    52   27   28 2   
    53   27   29 1   
    54   29   30 1   
    55   29   31 1   
    56   30   58 1   
    57   30   59 1   
    58   30   60 1   
    59   31   32 1   
    60   31   55 1   
    61   31   61 1   
    62   32   33 ar  
    63   33   34 ar  
    64   33   62 1   
    65   34   35 ar  
    66   34   63 1   
    67   35   57 1   
@<TRIPOS>SUBSTRUCTURE
     1 BIJ         1 TEMP              0 ****  ****    0 ROOT
