@<TRIPOS>MOLECULE
BIJ
   63    67     1     0     0
SMALL
bcc


@<TRIPOS>ATOM
      1 CBD        -0.0350    0.1040    0.2510 c3        1 BIJ      0.186300
      2 CBF         1.4760    0.2970    0.4860 c3        1 BIJ      0.165300
      3 NBH         1.8330    0.3220    1.8970 n3        1 BIJ     -0.732600
      4 CBI         3.2540    0.4830    2.1050 c3        1 BIJ      0.157100
      5 CBG         1.2890   -0.8170    2.6210 c3        1 BIJ      0.165300
      6 CBE        -0.2240   -1.0100    2.3920 c3        1 BIJ      0.186300
      7 NBC        -0.5710   -1.0370    0.9800 nh        1 BIJ     -0.637000
      8 CBA        -1.9080   -1.3870    0.6680 ca        1 BIJ      0.170600
      9 CAW        -2.2610   -1.6440   -0.6760 ca        1 BIJ     -0.240000
     10 CAQ        -3.5490   -2.0590   -1.0140 ca        1 BIJ      0.168100
     11 OAR        -3.9180   -2.3640   -2.3090 os        1 BIJ     -0.308900
     12 CAS        -3.0000   -2.0090   -3.3360 c3        1 BIJ      0.112700
     13 CAV        -2.8950   -1.5770    1.6570 ca        1 BIJ     -0.213000
     14 CAP        -4.1710   -2.0060    1.3190 ca        1 BIJ     -0.070000
     15 CAL        -4.5530   -2.2400   -0.0150 ca        1 BIJ      0.084400
     16 NAH        -5.8820   -2.5140   -0.3920 ne        1 BIJ     -0.480100
     17 C2         -6.5900   -3.4810    0.1400 cf        1 BIJ      0.791300
     18 N3         -6.0720   -4.4070    1.1140 nf        1 BIJ     -0.762000
     19 N1         -7.9630   -3.5890   -0.3250 nf        1 BIJ     -0.594000
     20 C6         -8.6890   -4.5410    0.1360 c2        1 BIJ      0.421200
     21 C5         -8.2780   -5.5950    1.1270 c3        1 BIJ     -0.150900
     22 CL5        -9.3440   -5.5300    2.5200 cl        1 BIJ     -0.124400
     23 C4         -6.8160   -5.3920    1.5500 c2        1 BIJ      0.651200
     24 NAE        -6.3410   -6.3910    2.4090 nh        1 BIJ     -0.691600
     25 CAJ        -5.0420   -6.4470    2.9360 ca        1 BIJ      0.224600
     26 CAN        -4.8460   -6.9510    4.2290 ca        1 BIJ     -0.222600
     27 CAM        -5.8430   -7.4140    5.2360 c         1 BIJ      0.716100
     28 OAI        -7.0800   -7.4230    5.1220 o         1 BIJ     -0.637500
     29 NAU        -5.1260   -7.8970    6.3470 n         1 BIJ     -0.470800
     30 CAT        -5.6890   -8.0530    7.6460 c3        1 BIJ      0.086300
     31 CAX        -3.6910   -7.6610    6.1800 c3        1 BIJ      0.124300
     32 CAY        -3.5500   -7.0950    4.7850 ca        1 BIJ     -0.057300
     33 CBB        -2.4260   -6.7470    4.0670 ca        1 BIJ     -0.143000
     34 CAZ        -2.6120   -6.2530    2.7660 ca        1 BIJ     -0.084000
     35 CAO        -3.8720   -6.1080    2.2030 ca        1 BIJ     -0.140000
     36 HBD1       -0.1890   -0.0610   -0.8510 h1        1 BIJ      0.045450
     37 HBD2       -0.5710    1.0550    0.5390 h1        1 BIJ      0.045450
     38 HBF1        2.0350   -0.5100   -0.0720 h1        1 BIJ      0.038200
     39 HBF2        1.7650    1.2900    0.0410 h1        1 BIJ      0.038200
     40 HBI1        3.8640   -0.3750    1.7110 h1        1 BIJ      0.033033
     41 HBI2        3.4470    0.5830    3.2050 h1        1 BIJ      0.033033
     42 HBI3        3.5880    1.4230    1.5930 h1        1 BIJ      0.033033
     43 HBG1        1.4450   -0.6320    3.7200 h1        1 BIJ      0.038200
     44 HBG2        1.8210   -1.7760    2.3520 h1        1 BIJ      0.038200
     45 HBE1       -0.5130   -2.0000    2.8440 h1        1 BIJ      0.045450
     46 HBE2       -0.7770   -0.1930    2.9390 h1        1 BIJ      0.045450
     47 HAW        -1.5040   -1.5360   -1.4670 ha        1 BIJ      0.143000
     48 HAV        -2.6770   -1.3880    2.7190 ha        1 BIJ      0.136000
     49 HAS1       -3.5660   -2.2400   -4.2750 h1        1 BIJ      0.043700
     50 HAS2       -2.7430   -0.9240   -3.2890 h1        1 BIJ      0.043700
     51 HAS3       -2.0780   -2.6360   -3.2720 h1        1 BIJ      0.043700
     52 HAP        -4.9110   -2.1430    2.1260 ha        1 BIJ      0.146000
     53 H6         -9.7370   -4.6050   -0.2220 h4        1 BIJ      0.048800
     54 H5         -8.4090   -6.6130    0.6710 h1        1 BIJ      0.117700
     55 HX2        -3.3030   -6.9390    6.9500 h1        1 BIJ      0.065200
     56 HAE        -7.0470   -6.8040    2.9980 hn        1 BIJ      0.471800
     57 HAO        -3.9510   -5.7270    1.1730 ha        1 BIJ      0.168000
     58 HAT1       -5.2500   -8.9670    8.1300 h1        1 BIJ      0.045700
     59 HAT2       -6.8010   -8.1790    7.5520 h1        1 BIJ      0.045700
     60 HAT3       -5.4740   -7.1640    8.3010 h1        1 BIJ      0.045700
     61 HAX        -3.1390   -8.6350    6.2830 h1        1 BIJ      0.065200
     62 HBB        -1.4170   -6.8510    4.4880 ha        1 BIJ      0.141000
     63 HAZ        -1.7280   -5.9730    2.1700 ha        1 BIJ      0.142000
@<TRIPOS>BOND
     1    1    2 1   
     2    1    7 1   
     3    1   36 1   
     4    1   37 1   
     5    2    3 1   
     6    2   38 1   
     7    2   39 1   
     8    3    4 1   
     9    3    5 1   
    10    4   40 1   
    11    4   41 1   
    12    4   42 1   
    13    5    6 1   
    14    5   43 1   
    15    5   44 1   
    16    6    7 1   
    17    6   45 1   
    18    6   46 1   
    19    7    8 1   
    20    8    9 ar  
    21    8   13 ar  
    22    9   10 ar  
    23    9   47 1   
    24   10   11 1   
    25   10   15 ar  
    26   11   12 1   
    27   12   49 1   
    28   12   50 1   
    29   12   51 1   
    30   13   14 ar  
    31   13   48 1   
    32   14   15 ar  
    33   14   52 1   
    34   15   16 1   
    35   16   17 2   
    36   17   18 1   
    37   17   19 1   
    38   18   23 2   
    39   19   20 2   
    40   20   21 1   
    41   20   53 1   
    42   21   22 1   
    43   21   23 1   
    44   21   54 1   
    45   23   24 1   
    46   24   25 1   
    47   24   56 1   
    48   25   26 ar  
    49   25   35 ar  
    50   26   27 1   
    51   26   32 ar  
    52   27   28 2   
    53   27   29 1   
    54   29   30 1   
    55   29   31 1   
    56   30   58 1   
    57   30   59 1   
    58   30   60 1   
    59   31   32 1   
    60   31   55 1   
    61   31   61 1   
    62   32   33 ar  
    63   33   34 ar  
    64   33   62 1   
    65   34   35 ar  
    66   34   63 1   
    67   35   57 1   
@<TRIPOS>SUBSTRUCTURE
     1 BIJ         1 TEMP              0 ****  ****    0 ROOT
