@<TRIPOS>MOLECULE
BIJ
   63    67     1     0     0
SMALL
bcc


@<TRIPOS>ATOM
      1 CBD        -0.0220    0.0950    0.1950 c3        1 BIJ      0.186300
      2 CBF         1.4890    0.2890    0.4320 c3        1 BIJ      0.165300
      3 NBH         1.8400    0.3440    1.8430 n3        1 BIJ     -0.732600
      4 CBI         3.2600    0.5080    2.0550 c3        1 BIJ      0.157100
      5 CBG         1.2900   -0.7770    2.5900 c3        1 BIJ      0.165300
      6 CBE        -0.2230   -0.9710    2.3580 c3        1 BIJ      0.186300
      7 NBC        -0.5630   -1.0290    0.9470 nh        1 BIJ     -0.637000
      8 CBA        -1.9000   -1.3830    0.6370 ca        1 BIJ      0.170600
      9 CAW        -2.2480   -1.6670   -0.7030 ca        1 BIJ     -0.240000
     10 CAQ        -3.5360   -2.0870   -1.0370 ca        1 BIJ      0.168100
     11 OAR        -3.9000   -2.4190   -2.3270 os        1 BIJ     -0.308900
     12 CAS        -2.9810   -2.0810   -3.3580 c3        1 BIJ      0.112700
     13 CAV        -2.8920   -1.5490    1.6260 ca        1 BIJ     -0.212000
     14 CAP        -4.1670   -1.9830    1.2920 ca        1 BIJ     -0.070000
     15 CAL        -4.5450   -2.2450   -0.0380 ca        1 BIJ      0.084400
     16 NAH        -5.8720   -2.5240   -0.4140 ne        1 BIJ     -0.480100
     17 C2         -6.5850   -3.4770    0.1370 cf        1 BIJ      0.791300
     18 N3         -6.0720   -4.3820    1.1330 nf        1 BIJ     -0.762000
     19 N1         -7.9560   -3.5920   -0.3310 nf        1 BIJ     -0.594000
     20 C6         -8.6870   -4.5300    0.1530 c2        1 BIJ      0.421200
     21 C5         -8.2840   -5.5580    1.1720 c3        1 BIJ     -0.150900
     22 Cl5        -9.3510   -5.4500    2.5610 cl        1 BIJ     -0.124400
     23 C4         -6.8210   -5.3520    1.5920 c2        1 BIJ      0.651200
     24 NAE        -6.3520   -6.3330    2.4760 nu        1 BIJ     -0.691600
     25 CAJ        -5.0550   -6.3780    3.0090 ca        1 BIJ      0.224600
     26 CAN        -4.8650   -6.8500    4.3160 ca        1 BIJ     -0.221600
     27 CAM        -5.8660   -7.3010    5.3240 c         1 BIJ      0.717100
     28 OAI        -7.0970   -7.3850    5.1800 o         1 BIJ     -0.638500
     29 NAU        -5.1640   -7.5980    6.5080 n         1 BIJ     -0.470800
     30 CAT        -5.6880   -8.4040    7.5590 c3        1 BIJ      0.086300
     31 CAX        -3.7190   -7.5030    6.2920 c3        1 BIJ      0.125300
     32 CAY        -3.5720   -6.9850    4.8790 ca        1 BIJ     -0.057300
     33 CBB        -2.4440   -6.6540    4.1580 ca        1 BIJ     -0.144000
     34 CAZ        -2.6240   -6.1960    2.8420 ca        1 BIJ     -0.084000
     35 CAO        -3.8820   -6.0630    2.2710 ca        1 BIJ     -0.140000
     36 HBD1       -0.1710   -0.0950   -0.9040 h1        1 BIJ      0.045450
     37 HBD2       -0.5560    1.0530    0.4590 h1        1 BIJ      0.045450
     38 HBF1        2.0490   -0.5320   -0.1060 h1        1 BIJ      0.038200
     39 HBF2        1.7830    1.2710   -0.0340 h1        1 BIJ      0.038200
     40 HBI1        3.4490    0.6310    3.1530 h1        1 BIJ      0.033033
     41 HBI2        3.8700   -0.3610    1.6830 h1        1 BIJ      0.033033
     42 HBI3        3.5990    1.4350    1.5230 h1        1 BIJ      0.033033
     43 HBG1        1.8210   -1.7430    2.3450 h1        1 BIJ      0.038200
     44 HBG2        1.4410   -0.5670    3.6860 h1        1 BIJ      0.038200
     45 HBE1       -0.7760   -0.1410    2.8850 h1        1 BIJ      0.045450
     46 HBE2       -0.5160   -1.9500    2.8320 h1        1 BIJ      0.045450
     47 HAW        -1.4880   -1.5780   -1.4930 ha        1 BIJ      0.142000
     48 HAV        -2.6770   -1.3380    2.6840 ha        1 BIJ      0.136000
     49 HAS1       -2.7240   -0.9950   -3.3290 h1        1 BIJ      0.043700
     50 HAS2       -3.5450   -2.3290   -4.2940 h1        1 BIJ      0.043700
     51 HAS3       -2.0580   -2.7060   -3.2820 h1        1 BIJ      0.043700
     52 HAP        -4.9100   -2.1000    2.0990 ha        1 BIJ      0.146000
     53 H6         -9.7340   -4.5990   -0.2070 h4        1 BIJ      0.048800
     54 H5         -8.4190   -6.5880    0.7430 h1        1 BIJ      0.117700
     55 HX2        -3.2230   -8.5050    6.4100 h1        1 BIJ      0.065200
     56 HAE        -7.0620   -6.7280    3.0730 hn        1 BIJ      0.471800
     57 HAO        -3.9560   -5.7080    1.2310 ha        1 BIJ      0.168000
     58 HAT1       -5.3470   -9.4720    7.4720 h1        1 BIJ      0.045367
     59 HAT2       -6.8100   -8.3730    7.5200 h1        1 BIJ      0.045367
     60 HAT3       -5.3380   -7.9970    8.5450 h1        1 BIJ      0.045367
     61 HAX        -3.2770   -6.7860    7.0360 h1        1 BIJ      0.065200
     62 HBB        -1.4370   -6.7460    4.5860 ha        1 BIJ      0.141000
     63 HAZ        -1.7370   -5.9340    2.2430 ha        1 BIJ      0.142000
@<TRIPOS>BOND
     1    1    2 1   
     2    1    7 1   
     3    1   36 1   
     4    1   37 1   
     5    2    3 1   
     6    2   38 1   
     7    2   39 1   
     8    3    4 1   
     9    3    5 1   
    10    4   40 1   
    11    4   41 1   
    12    4   42 1   
    13    5    6 1   
    14    5   43 1   
    15    5   44 1   
    16    6    7 1   
    17    6   45 1   
    18    6   46 1   
    19    7    8 1   
    20    8    9 ar  
    21    8   13 ar  
    22    9   10 ar  
    23    9   47 1   
    24   10   11 1   
    25   10   15 ar  
    26   11   12 1   
    27   12   49 1   
    28   12   50 1   
    29   12   51 1   
    30   13   14 ar  
    31   13   48 1   
    32   14   15 ar  
    33   14   52 1   
    34   15   16 1   
    35   16   17 2   
    36   17   18 1   
    37   17   19 1   
    38   18   23 2   
    39   19   20 2   
    40   20   21 1   
    41   20   53 1   
    42   21   22 1   
    43   21   23 1   
    44   21   54 1   
    45   23   24 1   
    46   24   25 1   
    47   24   56 1   
    48   25   26 ar  
    49   25   35 ar  
    50   26   27 1   
    51   26   32 ar  
    52   27   28 2   
    53   27   29 1   
    54   29   30 1   
    55   29   31 1   
    56   30   58 1   
    57   30   59 1   
    58   30   60 1   
    59   31   32 1   
    60   31   55 1   
    61   31   61 1   
    62   32   33 ar  
    63   33   34 ar  
    64   33   62 1   
    65   34   35 ar  
    66   34   63 1   
    67   35   57 1   
@<TRIPOS>SUBSTRUCTURE
     1 BIJ         1 TEMP              0 ****  ****    0 ROOT
