@<TRIPOS>MOLECULE
BIJ
   63    62     1     0     0
SMALL
bcc


@<TRIPOS>ATOM
      1 CBD         4.4860    1.6020   -0.0320 c3        1 BIJ     -0.067000
      2 CBF         5.9990    1.5020   -0.1130 c3        1 BIJ     -0.069000
      3 NBH         6.6320    2.7780   -0.0810 n3        1 BIJ     -0.259000
      4 CBI         8.0390    2.6060   -0.0280 c3        1 BIJ     -0.118000
      5 CBG         6.2000    3.5820    1.0230 c3        1 BIJ     -0.069000
      6 CBE         4.6720    3.6800    1.1090 c3        1 BIJ     -0.067000
      7 NBC         4.0470    2.4070    1.0780 n3        1 BIJ     -0.221000
      8 CBA         2.5670    2.5700    1.0310 c2        1 BIJ      0.007000
      9 CAW         1.9350    2.8500   -0.1810 c2        1 BIJ     -0.163000
     10 CAQ         0.5490    2.8960   -0.2440 c1        1 BIJ      0.069000
     11 OAR        -0.0980    3.2310   -1.4720 o         1 BIJ     -0.224000
     12 CAS        -0.1750    4.6240   -1.7180 c3        1 BIJ     -0.071000
     13 CAV         1.7990    2.3360    2.1810 c1        1 BIJ     -0.112000
     14 CAP         0.4070    2.3830    2.1110 c1        1 BIJ     -0.124000
     15 CAL        -0.2170    2.6600    0.9100 c2        1 BIJ     -0.005000
     16 NAH        -1.6230    2.7700    0.8550 n2        1 BIJ     -0.094000
     17 C2         -2.3710    1.6740    0.7530 c1        1 BIJ      0.094000
     18 N3         -1.7430    0.3720    0.7010 n1        1 BIJ     -0.269000
     19 N1         -3.8050    1.7840    0.6920 n2        1 BIJ     -0.097000
     20 C6         -4.5460    0.8000    0.0390 c1        1 BIJ     -0.057000
     21 C5         -4.0210   -0.6490   -0.0150 c2        1 BIJ     -0.108000
     22 CL5        -5.0570   -1.7100    1.0110 cl        1 BIJ     -0.069000
     23 C4         -2.5270   -0.8000    0.3520 c2        1 BIJ      0.147000
     24 NAE        -1.9720   -2.1080    0.5300 n3        1 BIJ     -0.246000
     25 CAJ        -2.8300   -3.2770    0.4500 c2        1 BIJ      0.099000
     26 CAN        -3.7170   -3.9930   -0.3940 c2        1 BIJ     -0.126000
     27 CAM        -4.4460   -3.6010   -1.6930 c2        1 BIJ      0.346000
     28 OAI        -4.3690   -2.5370   -2.2550 o         1 BIJ     -0.329000
     29 NAU        -5.1680   -4.7460   -2.1540 n         1 BIJ     -0.331000
     30 CAT        -5.9600   -4.8190   -3.3260 c3        1 BIJ     -0.072000
     31 CAX        -4.9920   -5.7960   -1.1970 c3        1 BIJ     -0.002000
     32 CAY        -4.0280   -5.2960   -0.1110 c2        1 BIJ     -0.066000
     33 CBB        -3.4640   -5.9240    1.0230 c2        1 BIJ     -0.117000
     34 CAZ        -2.5920   -5.2150    1.8500 c1        1 BIJ     -0.092000
     35 CAO        -2.2790   -3.8920    1.5590 c1        1 BIJ     -0.157000
     36 HBD1        4.1510    2.0070   -0.8710 h1        1 BIJ      0.082250
     37 HBD2        4.1020    0.6820    0.0600 h1        1 BIJ      0.082250
     38 HBF1        6.3280    0.9580    0.6680 h1        1 BIJ      0.075750
     39 HBF2        6.2450    1.0440   -0.9450 h1        1 BIJ      0.075750
     40 HBI1        8.3360    2.0150   -0.7980 h1        1 BIJ      0.071000
     41 HBI2        8.2850    2.1800    0.8260 h1        1 BIJ      0.071000
     42 HBI3        8.4730    3.4630   -0.0980 h1        1 BIJ      0.071000
     43 HBG1        6.5720    4.4890    0.9230 h1        1 BIJ      0.075750
     44 HBG2        6.5540    3.1740    1.8860 h1        1 BIJ      0.075750
     45 HBE1        4.3440    4.2140    0.3430 h1        1 BIJ      0.082250
     46 HBE2        4.4260    4.1390    1.9460 h1        1 BIJ      0.082250
     47 HAW         2.4530    2.9180   -0.9890 ha        1 BIJ      0.149000
     48 HAV         2.2440    2.1370    3.0400 ha        1 BIJ      0.144000
     49 HAS1        0.7460    4.9980   -1.7950 h1        1 BIJ      0.082667
     50 HAS2       -0.6750    4.7860   -2.5740 h1        1 BIJ      0.082667
     51 HAS3       -0.6470    5.0650   -0.9730 h1        1 BIJ      0.082667
     52 HAP        -0.1210    2.2220    2.9000 ha        1 BIJ      0.140000
     53 H6         -5.4290    1.0270   -0.3720 ha        1 BIJ      0.178000
     54 H5         -4.1830   -1.0440   -0.9180 h4        1 BIJ      0.183000
     55 HX2        -4.6220   -6.5660   -1.6260 h1        1 BIJ      0.107000
     56 HAE        -1.0980   -2.2050    0.6740 hn        1 BIJ      0.238000
     57 HAO        -1.6670   -3.3950    2.1420 ha        1 BIJ      0.148000
     58 HAT1       -6.4420   -4.0060   -3.4360 h1        1 BIJ      0.086667
     59 HAT2       -6.5750   -5.5450   -3.2470 h1        1 BIJ      0.086667
     60 HAT3       -5.3950   -4.9590   -4.0860 h1        1 BIJ      0.086667
     61 HAX        -5.8490   -6.0220   -0.7980 h1        1 BIJ      0.107000
     62 HBB        -3.6870   -6.8670    1.2310 ha        1 BIJ      0.147000
     63 HAZ        -2.1980   -5.6510    2.6420 ha        1 BIJ      0.144000
@<TRIPOS>BOND
     1    1    2 1   
     2    1    7 1   
     3    1   36 1   
     4    1   37 1   
     5    2    3 1   
     6    2   38 1   
     7    2   39 1   
     8    3    4 1   
     9    3    5 1   
    10    4   40 1   
    11    4   41 1   
    12    4   42 1   
    13    5    6 1   
    14    5   43 1   
    15    5   44 1   
    16    6    7 1   
    17    6   45 1   
    18    6   46 1   
    19    7    8 1   
    20    8    9 1   
    21    8   13 1   
    22    9   10 1   
    23    9   47 1   
    24   10   15 1   
    25   11   12 1   
    26   12   49 1   
    27   12   50 1   
    28   12   51 1   
    29   13   48 1   
    30   14   15 1   
    31   14   52 1   
    32   15   16 1   
    33   16   17 1   
    34   17   19 1   
    35   18   23 1   
    36   19   20 1   
    37   20   53 1   
    38   21   22 1   
    39   21   23 1   
    40   21   54 1   
    41   23   24 1   
    42   24   25 1   
    43   24   56 1   
    44   25   26 1   
    45   25   35 1   
    46   26   27 1   
    47   26   32 1   
    48   27   28 1   
    49   27   29 1   
    50   29   30 1   
    51   29   31 1   
    52   30   58 1   
    53   30   59 1   
    54   30   60 1   
    55   31   32 1   
    56   31   55 1   
    57   31   61 1   
    58   32   33 1   
    59   33   34 1   
    60   33   62 1   
    61   34   63 1   
    62   35   57 1   
@<TRIPOS>SUBSTRUCTURE
     1 BIJ         1 TEMP              0 ****  ****    0 ROOT
