@<TRIPOS>MOLECULE
BIK
   22    23     1     0     0
SMALL
bcc


@<TRIPOS>ATOM
      1 O6         20.8160   15.9290    7.5870 oh        1 BIK     -0.519100
      2 C6         21.9120   16.2800    6.8180 ca        1 BIK      0.076100
      3 C7         23.0140   15.3830    6.8740 ca        1 BIK     -0.152000
      4 C8         24.1390   15.6610    6.1400 ca        1 BIK     -0.108000
      5 C8A        24.2210   16.8260    5.3280 ca        1 BIK     -0.022000
      6 C4A        23.1140   17.7130    5.2810 ca        1 BIK     -0.053000
      7 C5         21.9530   17.4210    6.0420 ca        1 BIK     -0.184000
      8 C4         23.1970   18.8770    4.4690 ca        1 BIK     -0.083000
      9 C1         25.3770   17.1200    4.5680 ca        1 BIK     -0.229000
     10 C2         25.4290   18.2660    3.7830 ca        1 BIK      0.191100
     11 O2         26.5900   18.4570    3.0890 oh        1 BIK     -0.548100
     12 C3         24.3190   19.1670    3.7280 ca        1 BIK     -0.184600
     13 C31        24.3310   20.4320    2.8850 c         1 BIK      0.915200
     14 O32        23.3060   21.1650    2.9000 o         1 BIK     -0.826300
     15 O31        25.3680   20.6970    2.2020 o         1 BIK     -0.826300
     16 HO6        20.1460   16.6140    7.4600 ho        1 BIK      0.407000
     17 H7         22.9360   14.4880    7.5050 ha        1 BIK      0.129000
     18 H8         25.0030   14.9800    6.1690 ha        1 BIK      0.121000
     19 H5         21.1000   18.1130    6.0010 ha        1 BIK      0.127000
     20 H4         22.3420   19.5730    4.4260 ha        1 BIK      0.156000
     21 H1         26.2370   16.4390    4.5990 ha        1 BIK      0.128000
     22 HO2        26.5240   19.2880    2.5700 ho        1 BIK      0.485000
@<TRIPOS>BOND
     1    1    2 1   
     2    1   16 1   
     3    2    3 ar  
     4    2    7 ar  
     5    3    4 ar  
     6    3   17 1   
     7    4    5 ar  
     8    4   18 1   
     9    5    6 ar  
    10    5    9 ar  
    11    6    7 ar  
    12    6    8 ar  
    13    7   19 1   
    14    8   12 ar  
    15    8   20 1   
    16    9   10 ar  
    17    9   21 1   
    18   10   11 1   
    19   10   12 ar  
    20   11   22 1   
    21   12   13 1   
    22   13   14 1   
    23   13   15 1   
@<TRIPOS>SUBSTRUCTURE
     1 BIK         1 TEMP              0 ****  ****    0 ROOT
