@<TRIPOS>MOLECULE
BIK
   22    20     1     0     0
SMALL
bcc


@<TRIPOS>ATOM
      1 O6         -4.0620   -0.0460    1.2150 oh        1 BIK     -0.268000
      2 C6         -2.6670    0.0370    1.0490 c2        1 BIK      0.032000
      3 C7         -1.9200   -0.0240    2.2210 c2        1 BIK     -0.211000
      4 C8         -0.5340   -0.0680    2.1610 c1        1 BIK     -0.096000
      5 C8A         0.1170   -0.0520    0.9130 c1        1 BIK     -0.036000
      6 C4A        -0.6210    0.0080   -0.2460 c1        1 BIK     -0.027000
      7 C5         -2.0260    0.0540   -0.1830 c1        1 BIK     -0.136000
      8 C4          0.0300    0.0250   -1.4940 c2        1 BIK     -0.119000
      9 C1          1.5230   -0.0970    0.8500 c2        1 BIK     -0.260000
     10 C2          2.1640   -0.0810   -0.3820 c1        1 BIK      0.117000
     11 O2          3.5630    0.0530   -0.4570 o         1 BIK     -0.219000
     12 C3          1.4170   -0.0200   -1.5550 c2        1 BIK     -0.068000
     13 C31         2.0930    0.0340   -2.9070 c2        1 BIK      0.374000
     14 O32         2.3330   -1.0310   -3.5340 o         1 BIK     -0.549000
     15 O31         2.4060    1.1450   -3.4110 o         1 BIK     -0.549000
     16 HO6        -4.3900    0.7640    1.3800 ho        1 BIK      0.201000
     17 H7         -2.3710   -0.0240    3.0870 ha        1 BIK      0.112000
     18 H8         -0.0100   -0.1110    2.9830 ha        1 BIK      0.117000
     19 H5         -2.5500    0.1070   -1.0050 ha        1 BIK      0.143000
     20 H4         -0.4920    0.0820   -2.3160 ha        1 BIK      0.141000
     21 H1          2.0480   -0.1230    1.6720 ha        1 BIK      0.112000
     22 HO2         3.9490   -0.6300   -0.0400 ho        1 BIK      0.190000
@<TRIPOS>BOND
     1    1    2 1   
     2    1   16 1   
     3    2    3 1   
     4    2    7 1   
     5    3    4 1   
     6    3   17 1   
     7    4   18 1   
     8    5    6 1   
     9    5    9 1   
    10    6    8 1   
    11    7   19 1   
    12    8   12 1   
    13    8   20 1   
    14    9   10 1   
    15    9   21 1   
    16   10   12 1   
    17   11   22 1   
    18   12   13 1   
    19   13   14 1   
    20   13   15 1   
@<TRIPOS>SUBSTRUCTURE
     1 BIK         1 TEMP              0 ****  ****    0 ROOT
