@<TRIPOS>MOLECULE
BIK
   22    23     1     0     0
SMALL
bcc


@<TRIPOS>ATOM
      1 O6          0.0230   -0.2340    0.0240 oh        1 BIK     -0.519100
      2 C6          1.4040   -0.1470    0.0350 ca        1 BIK      0.076100
      3 C7          2.0060   -0.0840    1.3220 ca        1 BIK     -0.152000
      4 C8          3.3710    0.0030    1.4170 ca        1 BIK     -0.108000
      5 C8A         4.1920    0.0320    0.2550 ca        1 BIK     -0.022000
      6 C4A         3.5790   -0.0320   -1.0240 ca        1 BIK     -0.053000
      7 C5          2.1660   -0.1220   -1.1160 ca        1 BIK     -0.184000
      8 C4          4.3990   -0.0030   -2.1830 ca        1 BIK     -0.083000
      9 C1          5.6000    0.1220    0.3440 ca        1 BIK     -0.229000
     10 C2          6.3770    0.1480   -0.8080 ca        1 BIK      0.191100
     11 O2          7.7260    0.2360   -0.6130 oh        1 BIK     -0.548100
     12 C3          5.7700    0.0840   -2.1020 ca        1 BIK     -0.184600
     13 C31         6.5780    0.1100   -3.3890 c         1 BIK      0.915200
     14 O32         5.9550    0.0490   -4.4830 o         1 BIK     -0.826300
     15 O31         7.8430    0.1910   -3.3110 o         1 BIK     -0.826300
     16 HO6        -0.2550   -0.2700   -0.9010 ho        1 BIK      0.407000
     17 H7          1.3600   -0.1070    2.2090 ha        1 BIK      0.129000
     18 H8          3.8570    0.0530    2.4030 ha        1 BIK      0.121000
     19 H5          1.6990   -0.1710   -2.1090 ha        1 BIK      0.127000
     20 H4          3.9320   -0.0520   -3.1820 ha        1 BIK      0.156000
     21 H1          6.0820    0.1720    1.3290 ha        1 BIK      0.128000
     22 HO2         8.1800    0.2480   -1.4840 ho        1 BIK      0.485000
@<TRIPOS>BOND
     1    1    2 1   
     2    1   16 1   
     3    2    3 ar  
     4    2    7 ar  
     5    3    4 ar  
     6    3   17 1   
     7    4    5 ar  
     8    4   18 1   
     9    5    6 ar  
    10    5    9 ar  
    11    6    7 ar  
    12    6    8 ar  
    13    7   19 1   
    14    8   12 ar  
    15    8   20 1   
    16    9   10 ar  
    17    9   21 1   
    18   10   11 1   
    19   10   12 ar  
    20   11   22 1   
    21   12   13 1   
    22   13   14 1   
    23   13   15 1   
@<TRIPOS>SUBSTRUCTURE
     1 BIK         1 TEMP              0 ****  ****    0 ROOT
