@<TRIPOS>MOLECULE
BIL
   24    22     1     0     0
SMALL
bcc


@<TRIPOS>ATOM
      1 C           1.0090   -1.3700   -2.7530 c1        1 BIL      0.325000
      2 O           2.2680   -1.3700   -2.7530 o         1 BIL     -0.573000
      3 CA          0.2520   -1.3700   -1.4430 c3        1 BIL     -0.260000
      4 CB          0.3000    0.0130   -0.8340 c3        1 BIL     -0.020000
      5 N          -0.6570    0.8470   -1.4750 n3        1 BIL     -0.341000
      6 CG         -0.0170   -0.0760    0.6420 c3        1 BIL     -0.101000
      7 CD2         1.2650   -0.2760    1.4220 c3        1 BIL     -0.205000
      8 CD1        -0.6860    1.2040    1.0920 c3        1 BIL     -0.146000
      9 CE1        -1.5240    0.9300    2.3210 c3        1 BIL     -0.208000
     10 HA          0.6620   -2.0100   -0.8310 hc        1 BIL      0.066000
     11 HAA        -0.6770   -1.6220   -1.6040 hc        1 BIL      0.066000
     12 HB          1.1920    0.3900   -0.9530 h1        1 BIL      0.089000
     13 HN         -0.2260    1.4950   -1.9500 hn        1 BIL      0.148500
     14 HG         -0.6160   -0.8300    0.8010 hc        1 BIL      0.072000
     15 H3D2        1.0520   -0.4420    2.3600 hc        1 BIL      0.065667
     16 H2D2        1.8180    0.5250    1.3500 hc        1 BIL      0.065667
     17 H1D2        1.7510   -1.0410    1.0580 hc        1 BIL      0.065667
     18 H1D1       -0.0050    1.8710    1.3040 hc        1 BIL      0.084000
     19 H2D1       -1.2590    1.5410    0.3760 hc        1 BIL      0.084000
     20 H3E1       -0.9410    0.6820    3.0630 hc        1 BIL      0.058333
     21 H2E1       -2.1440    0.1990    2.1360 hc        1 BIL      0.058333
     22 H1E1       -2.0280    1.7320    2.5570 hc        1 BIL      0.058333
     23 OXT         0.3790   -1.3690   -3.8440 os        1 BIL     -0.599000
     24 HNA        -1.1680    0.3450   -2.0400 hn        1 BIL      0.148500
@<TRIPOS>BOND
     1    1    2 1   
     2    1    3 1   
     3    3    4 1   
     4    3   10 1   
     5    3   11 1   
     6    4    5 1   
     7    4    6 1   
     8    4   12 1   
     9    5   13 1   
    10    5   24 1   
    11    6    7 1   
    12    6    8 1   
    13    6   14 1   
    14    7   15 1   
    15    7   16 1   
    16    7   17 1   
    17    8    9 1   
    18    8   18 1   
    19    8   19 1   
    20    9   20 1   
    21    9   21 1   
    22    9   22 1   
@<TRIPOS>SUBSTRUCTURE
     1 BIL         1 TEMP              0 ****  ****    0 ROOT
