@<TRIPOS>MOLECULE
BIL
   24    23     1     0     0
SMALL
bcc


@<TRIPOS>ATOM
      1 C           2.3500    0.0580    0.1360 c         1 BIL      0.903600
      2 O           3.1350    0.4790   -0.7610 o         1 BIL     -0.851300
      3 CA          0.9500    0.6900    0.2210 c3        1 BIL     -0.231400
      4 CB         -0.1680   -0.3130   -0.0880 c3        1 BIL      0.178500
      5 N          -0.0450   -1.5800    0.6250 n3        1 BIL     -0.906800
      6 CG         -1.5520    0.3400    0.1620 c3        1 BIL     -0.059700
      7 CD2        -1.6250    1.7070   -0.4870 c3        1 BIL     -0.085100
      8 CD1        -2.6710   -0.5490   -0.3670 c3        1 BIL     -0.078400
      9 CE1        -4.0110   -0.2160    0.2400 c3        1 BIL     -0.087100
     10 HA          0.8120    1.1020    1.2520 hc        1 BIL      0.027700
     11 HAA         0.9050    1.5350   -0.5090 hc        1 BIL      0.027700
     12 HB         -0.1120   -0.5600   -1.1910 h1        1 BIL      0.043700
     13 HN          0.8440   -1.9900    0.3800 hn        1 BIL      0.353800
     14 HG         -1.6890    0.4670    1.2720 hc        1 BIL      0.035700
     15 H3D2       -1.2700    1.6590   -1.5450 hc        1 BIL      0.025700
     16 H2D2       -2.6750    2.0890   -0.4830 hc        1 BIL      0.025700
     17 H1D2       -0.9880    2.4390    0.0670 hc        1 BIL      0.025700
     18 H1D1       -2.7270   -0.4420   -1.4830 hc        1 BIL      0.045200
     19 H2D1       -2.4390   -1.6250   -0.1510 hc        1 BIL      0.045200
     20 H3E1       -3.9770   -0.3270    1.3510 hc        1 BIL      0.019367
     21 H2E1       -4.3150    0.8330    0.0040 hc        1 BIL      0.019367
     22 H1E1       -4.7970   -0.9030   -0.1580 hc        1 BIL      0.019367
     23 OXT         2.6620   -0.8380    0.9760 o         1 BIL     -0.851300
     24 HNA        -0.0050   -1.3920    1.6110 hn        1 BIL      0.353800
@<TRIPOS>BOND
     1    1    2 1   
     2    1    3 1   
     3    1   23 1   
     4    3    4 1   
     5    3   10 1   
     6    3   11 1   
     7    4    5 1   
     8    4    6 1   
     9    4   12 1   
    10    5   13 1   
    11    5   24 1   
    12    6    7 1   
    13    6    8 1   
    14    6   14 1   
    15    7   15 1   
    16    7   16 1   
    17    7   17 1   
    18    8    9 1   
    19    8   18 1   
    20    8   19 1   
    21    9   20 1   
    22    9   21 1   
    23    9   22 1   
@<TRIPOS>SUBSTRUCTURE
     1 BIL         1 TEMP              0 ****  ****    0 ROOT
