@<TRIPOS>MOLECULE
BIM
   74    69     1     0     0
SMALL
bcc


@<TRIPOS>ATOM
      1 C1         -4.6530   -1.5660    1.2460 c1        1 BIM      0.341000
      2 C3         -3.2120   -1.5460    1.2600 c1        1 BIM     -0.012000
      3 C4         -3.6700   -1.5860    3.5280 c1        1 BIM      0.341000
      4 C5         -2.6910   -1.5590    2.4670 c1        1 BIM     -0.054000
      5 C6         -1.2620   -0.9250    2.7210 c2        1 BIM     -0.132000
      6 C7         -0.4910   -1.3240    3.8650 c2        1 BIM     -0.058000
      7 C8         -0.9380    0.1640    2.1600 c1        1 BIM     -0.025000
      8 N10         0.1980    0.9010    2.7340 n2        1 BIM     -0.156000
      9 C11        -2.4060   -2.1460    0.0490 c2        1 BIM     -0.137000
     10 C12        -2.0430   -1.3620   -0.9660 c1        1 BIM     -0.018000
     11 C15        -2.2550   -3.5060   -1.7740 c1        1 BIM     -0.007000
     12 C16        -0.4890   -2.4620    4.6950 c1        1 BIM     -0.083000
     13 C17         0.4540   -2.5750    5.7270 c1        1 BIM     -0.135250
     14 C18         1.4720   -0.4710    5.0260 c1        1 BIM     -0.140000
     15 C19         1.4350   -1.5830    5.8960 c1        1 BIM     -0.135250
     16 C21        -3.1940   -5.8120   -0.4160 c1        1 BIM     -0.135250
     17 C23        -2.8900   -5.8410   -1.8260 c1        1 BIM     -0.135250
     18 O25        -5.3630   -1.9250    0.3100 o         1 BIM     -0.302500
     19 C27         0.3220   -1.0810   -2.7620 c3        1 BIM     -0.178000
     20 C30         2.4490    0.6500   -1.8250 c1        1 BIM     -0.179000
     21 C32         3.0780    1.5980   -1.0500 c1        1 BIM     -0.091000
     22 C33         2.7780    3.3070   -2.7350 c1        1 BIM      0.066000
     23 C34         2.9990    2.9400   -1.3960 c2        1 BIM     -0.093000
     24 C35         0.2640    2.3040    2.8980 c3        1 BIM     -0.019000
     25 C36         0.3520    3.0050    1.4880 c3        1 BIM     -0.185000
     26 C37         1.9140    3.6770   -0.4540 c3        1 BIM     -0.114000
     27 C38         1.8150    2.9110    0.9480 c3        1 BIM     -0.155000
     28 C40         4.8990    4.4010   -3.4260 c3        1 BIM     -0.118000
     29 C13        -2.5700   -3.4740   -0.2990 c2        1 BIM     -0.050000
     30 C20        -3.0640   -4.5970    0.3170 c1        1 BIM     -0.075000
     31 C22        -2.4580   -4.6540   -2.4900 c1        1 BIM     -0.143000
     32 N14        -1.9020   -2.0090   -2.1280 n1        1 BIM     -0.155000
     33 C26        -1.1300   -1.5650   -3.2560 c3        1 BIM     -0.023000
     34 C28         0.8830   -0.0180   -3.7590 c3        1 BIM     -0.114000
     35 C29         1.7550    1.0370   -2.9690 c2        1 BIM     -0.004000
     36 N31         1.7860    2.3250   -3.3740 n2        1 BIM     -0.181000
     37 N39         3.4730    4.3630   -3.4360 n2        1 BIM     -0.218000
     38 C41         2.7480    5.2220   -4.3340 c3        1 BIM     -0.118000
     39 O24        -3.4840   -1.2220    4.7000 o         1 BIM     -0.302500
     40 N2         -5.0470   -1.5950    2.7710 n3        1 BIM     -0.412000
     41 C9          0.4840   -0.3180    4.0450 c2        1 BIM     -0.002000
     42 H8         -1.5810    0.6260    1.5610 ha        1 BIM      0.182000
     43 H12        -2.2870   -0.4120   -0.9620 ha        1 BIM      0.181000
     44 H16        -1.1690   -3.1510    4.5790 ha        1 BIM      0.149000
     45 H17         0.4290   -3.3610    6.3440 ha        1 BIM      0.130000
     46 H18         2.1720    0.2370    5.1470 ha        1 BIM      0.131000
     47 H19         2.0900   -1.6620    6.6130 ha        1 BIM      0.130000
     48 H21        -3.4900   -6.6260    0.0360 ha        1 BIM      0.130000
     49 H23        -2.9770   -6.6480   -2.3110 ha        1 BIM      0.130000
     50 H271        0.9210   -1.8410   -2.7290 hc        1 BIM      0.098500
     51 H272        0.2500   -0.6940   -1.8910 hc        1 BIM      0.098500
     52 H30         2.5050   -0.3260   -1.5740 ha        1 BIM      0.145000
     53 H32         3.6520    1.3130   -0.2750 ha        1 BIM      0.140000
     54 H351        1.0620    2.5310    3.4250 h1        1 BIM      0.101000
     55 H352       -0.5240    2.6100    3.3620 h1        1 BIM      0.101000
     56 H361        0.0950    3.9480    1.5770 hc        1 BIM      0.101500
     57 H362       -0.2550    2.5590    0.8620 hc        1 BIM      0.101500
     58 H371        2.1920    4.6040   -0.3010 hc        1 BIM      0.096500
     59 H372        1.0330    3.6670   -0.8990 hc        1 BIM      0.096500
     60 H381        2.0530    1.9910    0.8260 hc        1 BIM      0.083000
     61 H382        2.4360    3.3310    1.5980 hc        1 BIM      0.083000
     62 H401        5.2100    5.0910   -4.0550 h1        1 BIM      0.079167
     63 H402        5.2200    4.6180   -2.5090 h1        1 BIM      0.079167
     64 H403        5.2480    3.5360   -3.6960 h1        1 BIM      0.079167
     65 H20        -3.2640   -4.5800    1.2390 ha        1 BIM      0.154000
     66 H22        -2.2520   -4.6760   -3.4490 ha        1 BIM      0.130000
     67 H261       -1.0270   -2.3100   -3.8980 h1        1 BIM      0.110000
     68 H262       -1.5860   -0.8300   -3.6860 h1        1 BIM      0.110000
     69 H281        1.4250   -0.4510   -4.4150 hc        1 BIM      0.099500
     70 H282        0.1620    0.4250   -4.1860 hc        1 BIM      0.099500
     71 H411        1.8080    5.2730   -4.0570 h1        1 BIM      0.079167
     72 H412        2.8030    4.8590   -5.2520 h1        1 BIM      0.079167
     73 H413        3.1470    6.1290   -4.3160 h1        1 BIM      0.079167
     74 HN2        -5.8500   -1.8650    3.1150 hn        1 BIM      0.259000
@<TRIPOS>BOND
     1    1   18 1   
     2    1   40 1   
     3    2    4 1   
     4    2    9 1   
     5    3   39 1   
     6    3   40 1   
     7    4    5 1   
     8    5    6 1   
     9    5    7 1   
    10    6   12 1   
    11    6   41 1   
    12    7   42 1   
    13    8   24 1   
    14    8   41 1   
    15    9   10 1   
    16    9   29 1   
    17   10   43 1   
    18   11   29 1   
    19   11   31 1   
    20   12   44 1   
    21   13   15 1   
    22   13   45 1   
    23   14   41 1   
    24   14   46 1   
    25   15   47 1   
    26   16   17 1   
    27   16   48 1   
    28   17   49 1   
    29   19   33 1   
    30   19   34 1   
    31   19   50 1   
    32   19   51 1   
    33   20   35 1   
    34   20   52 1   
    35   21   23 1   
    36   21   53 1   
    37   22   23 1   
    38   22   36 1   
    39   23   26 1   
    40   24   25 1   
    41   24   54 1   
    42   24   55 1   
    43   25   27 1   
    44   25   56 1   
    45   25   57 1   
    46   26   27 1   
    47   26   58 1   
    48   26   59 1   
    49   27   60 1   
    50   27   61 1   
    51   28   37 1   
    52   28   62 1   
    53   28   63 1   
    54   28   64 1   
    55   29   30 1   
    56   30   65 1   
    57   31   66 1   
    58   32   33 1   
    59   33   67 1   
    60   33   68 1   
    61   34   35 1   
    62   34   69 1   
    63   34   70 1   
    64   35   36 1   
    65   37   38 1   
    66   38   71 1   
    67   38   72 1   
    68   38   73 1   
    69   40   74 1   
@<TRIPOS>SUBSTRUCTURE
     1 BIM         1 TEMP              0 ****  ****    0 ROOT
