@<TRIPOS>MOLECULE
BIM
   75    81     1     0     0
SMALL
bcc


@<TRIPOS>ATOM
      1 C1          0.0270   -0.4760   -0.0270 c         1 BIM      0.699700
      2 C3          1.5300   -0.2540    0.0600 cc        1 BIM     -0.096200
      3 C4          0.6230   -0.4130    2.2100 c         1 BIM      0.697700
      4 C5          1.8910   -0.2390    1.3770 cd        1 BIM     -0.011200
      5 C6          3.1730   -0.0870    1.9780 cd        1 BIM     -0.105200
      6 C7          3.6740   -0.7020    3.1990 ca        1 BIM     -0.064800
      7 C8          4.2090    0.7120    1.4760 cc        1 BIM     -0.071100
      8 N10         5.3200    0.6570    2.3160 na        1 BIM     -0.079400
      9 C11         2.2810   -0.1270   -1.1510 cc        1 BIM     -0.087200
     10 C12         2.4470   -1.1350   -2.1000 cd        1 BIM     -0.064100
     11 C15         3.4410    0.6990   -2.9850 ca        1 BIM     -0.055200
     12 C16         3.1410   -1.5880    4.1360 ca        1 BIM     -0.069000
     13 C17         3.9260   -1.9910    5.2080 ca        1 BIM     -0.143000
     14 C18         5.8090   -0.6380    4.4620 ca        1 BIM     -0.153000
     15 C19         5.2400   -1.5220    5.3680 ca        1 BIM     -0.102000
     16 C21         3.6510    3.3180   -2.0700 ca        1 BIM     -0.152000
     17 C23         4.1850    2.9490   -3.3140 ca        1 BIM     -0.135000
     18 O25        -0.6750   -0.5950   -1.0320 o         1 BIM     -0.559500
     19 C27         4.4400   -1.6250   -5.1670 c3        1 BIM     -0.090400
     20 C30         6.0820   -3.1040   -2.1450 ca        1 BIM     -0.191300
     21 C32         6.9030   -2.7490   -1.0880 ca        1 BIM     -0.072000
     22 C33         7.5640   -0.8160   -2.3380 ca        1 BIM      0.462200
     23 C34         7.6930   -1.5820   -1.1570 ca        1 BIM     -0.149600
     24 C35         6.5690    1.3090    2.0730 c3        1 BIM      0.049300
     25 C36         7.3750    0.7470    0.8960 c3        1 BIM     -0.109400
     26 C37         8.5960   -1.2640   -0.0190 c3        1 BIM     -0.055100
     27 C38         7.8650   -0.6570    1.1640 c3        1 BIM     -0.089400
     28 C40         9.6240    0.2270   -3.1320 c3        1 BIM      0.090100
     29 C13         2.9020    1.0700   -1.6940 ca        1 BIM     -0.072800
     30 C20         3.0070    2.3910   -1.2600 ca        1 BIM     -0.094000
     31 C22         4.0880    1.6470   -3.7890 ca        1 BIM     -0.156000
     32 N14         3.2020   -0.6750   -3.1950 na        1 BIM     -0.077400
     33 C26         3.1090   -1.2820   -4.4980 c3        1 BIM      0.029300
     34 C28         5.2140   -2.7260   -4.4760 c3        1 BIM     -0.132700
     35 C29         6.0560   -2.2890   -3.3110 ca        1 BIM      0.464600
     36 N31         6.7940   -1.1680   -3.4050 nb        1 BIM     -0.661000
     37 N39         8.3150    0.4670   -2.4680 n4        1 BIM     -0.660100
     38 C41         7.5470    1.5220   -3.1850 c3        1 BIM      0.090100
     39 O24         0.4920   -0.4300    3.4340 o         1 BIM     -0.551500
     40 N2         -0.4470   -0.5500    1.3000 n         1 BIM     -0.624500
     41 C9          5.0280   -0.2280    3.3720 ca        1 BIM     -0.052200
     42 H8          4.2140    1.3370    0.5780 h4        1 BIM      0.175000
     43 H12         2.0820   -2.1660   -2.0710 h4        1 BIM      0.179000
     44 H16         2.1020   -1.9390    4.0370 ha        1 BIM      0.159000
     45 H17         3.5100   -2.6830    5.9560 ha        1 BIM      0.144000
     46 H18         6.8330   -0.2680    4.6040 ha        1 BIM      0.130000
     47 H19         5.8280   -1.8580    6.2370 ha        1 BIM      0.140000
     48 H21         3.7220    4.3670   -1.7460 ha        1 BIM      0.143000
     49 H23         4.6590    3.7190   -3.9420 ha        1 BIM      0.134000
     50 H271        5.0650   -0.7030   -5.2830 hc        1 BIM      0.067700
     51 H272        4.1850   -1.9810   -6.2040 hc        1 BIM      0.067700
     52 H30         5.4540   -4.0080   -2.0940 ha        1 BIM      0.176000
     53 H32         6.9490   -3.3720   -0.1780 ha        1 BIM      0.175000
     54 H351        7.1930    1.2420    3.0100 h1        1 BIM      0.071700
     55 H352        6.3630    2.4000    1.8630 h1        1 BIM      0.071700
     56 H361        6.7410    0.7610   -0.0300 hc        1 BIM      0.035200
     57 H362        8.2480    1.4330    0.7320 hc        1 BIM      0.035200
     58 H371        9.4460   -0.5990   -0.3260 hc        1 BIM      0.061200
     59 H372        9.0720   -2.2280    0.3240 hc        1 BIM      0.061200
     60 H381        8.5620   -0.6440    2.0450 hc        1 BIM      0.075700
     61 H382        6.9990   -1.3190    1.4370 hc        1 BIM      0.075700
     62 H401       10.1890    1.1950   -3.1860 hx        1 BIM      0.106533
     63 H402       10.2080   -0.5270   -2.5400 hx        1 BIM      0.106533
     64 H403        9.4500   -0.1670   -4.1700 hx        1 BIM      0.106533
     65 H20         2.5610    2.6960   -0.3010 ha        1 BIM      0.151000
     66 H22         4.4740    1.3770   -4.7820 ha        1 BIM      0.135000
     67 H261        2.5530   -0.5810   -5.1890 h1        1 BIM      0.069700
     68 H262        2.4990   -2.2270   -4.4020 h1        1 BIM      0.069700
     69 H281        4.5010   -3.5200   -4.1210 hc        1 BIM      0.074200
     70 H282        5.9060   -3.2070   -5.2240 hc        1 BIM      0.074200
     71 H411        7.4950    1.2800   -4.2810 hx        1 BIM      0.106533
     72 H412        6.4970    1.5810   -2.7790 hx        1 BIM      0.106533
     73 H413        8.0760    2.5010   -3.0380 hx        1 BIM      0.106533
     74 HN2        -1.3950   -0.6600    1.5580 hn        1 BIM      0.356500
     75 H391        8.4800    0.7980   -1.5040 hn        1 BIM      0.455800
@<TRIPOS>BOND
     1    1    2 1   
     2    1   18 2   
     3    1   40 1   
     4    2    4 2   
     5    2    9 1   
     6    3    4 1   
     7    3   39 2   
     8    3   40 1   
     9    4    5 1   
    10    5    6 1   
    11    5    7 2   
    12    6   12 ar  
    13    6   41 ar  
    14    7    8 1   
    15    7   42 1   
    16    8   24 1   
    17    8   41 1   
    18    9   10 2   
    19    9   29 1   
    20   10   32 1   
    21   10   43 1   
    22   11   29 ar  
    23   11   31 ar  
    24   11   32 1   
    25   12   13 ar  
    26   12   44 1   
    27   13   15 ar  
    28   13   45 1   
    29   14   15 ar  
    30   14   41 ar  
    31   14   46 1   
    32   15   47 1   
    33   16   17 ar  
    34   16   30 ar  
    35   16   48 1   
    36   17   31 ar  
    37   17   49 1   
    38   19   33 1   
    39   19   34 1   
    40   19   50 1   
    41   19   51 1   
    42   20   21 ar  
    43   20   35 ar  
    44   20   52 1   
    45   21   23 ar  
    46   21   53 1   
    47   22   23 ar  
    48   22   36 ar  
    49   22   37 1   
    50   23   26 1   
    51   24   25 1   
    52   24   54 1   
    53   24   55 1   
    54   25   27 1   
    55   25   56 1   
    56   25   57 1   
    57   26   27 1   
    58   26   58 1   
    59   26   59 1   
    60   27   60 1   
    61   27   61 1   
    62   28   37 1   
    63   28   62 1   
    64   28   63 1   
    65   28   64 1   
    66   29   30 ar  
    67   30   65 1   
    68   31   66 1   
    69   32   33 1   
    70   33   67 1   
    71   33   68 1   
    72   34   35 1   
    73   34   69 1   
    74   34   70 1   
    75   35   36 ar  
    76   37   38 1   
    77   37   75 1   
    78   38   71 1   
    79   38   72 1   
    80   38   73 1   
    81   40   74 1   
@<TRIPOS>SUBSTRUCTURE
     1 BIM         1 TEMP              0 ****  ****    0 ROOT
