@<TRIPOS>MOLECULE
BIM
   74    80     1     0     0
SMALL
bcc


@<TRIPOS>ATOM
      1 C1          5.3510   -0.3480   -4.0950 c         1 BIM      0.699700
      2 C3          5.5820   -0.5460   -2.6070 cc        1 BIM     -0.087200
      3 C4          3.9270    1.0720   -2.9440 c         1 BIM      0.698700
      4 C5          4.7210    0.2670   -1.9200 cd        1 BIM     -0.006200
      5 C6          4.5270    0.4210   -0.5200 cd        1 BIM     -0.130200
      6 C7          3.3090    0.7680    0.1950 ca        1 BIM     -0.059800
      7 C8          5.5270    0.2450    0.4540 cc        1 BIM     -0.045100
      8 N10         5.0210    0.4970    1.7230 na        1 BIM     -0.063400
      9 C11         6.5780   -1.4760   -2.1780 cc        1 BIM     -0.110200
     10 C12         6.5250   -2.8620   -2.3670 cd        1 BIM     -0.051100
     11 C15         8.5420   -2.4510   -1.4200 ca        1 BIM     -0.045200
     12 C16         1.9920    1.0350   -0.1820 ca        1 BIM     -0.076000
     13 C17         1.0500    1.3170    0.7970 ca        1 BIM     -0.152000
     14 C18         2.6890    1.0790    2.5800 ca        1 BIM     -0.144000
     15 C19         1.3940    1.3400    2.1590 ca        1 BIM     -0.116000
     16 C21         9.8000   -0.0900   -0.6680 ca        1 BIM     -0.153000
     17 C23        10.4430   -1.3290   -0.5030 ca        1 BIM     -0.120000
     18 O25         5.8790   -0.9180   -5.0510 o         1 BIM     -0.572500
     19 C27         8.2040   -5.7300   -0.9210 c3        1 BIM     -0.092400
     20 C30         5.1360   -4.8090    0.8000 ca        1 BIM     -0.242300
     21 C32         4.7020   -4.1030    1.9150 ca        1 BIM     -0.092000
     22 C33         6.7700   -4.6840    3.0260 ca        1 BIM      0.581200
     23 C34         5.5170   -4.0050    3.0530 ca        1 BIM     -0.162600
     24 C35         5.7570    0.3800    2.9510 c3        1 BIM      0.041300
     25 C36         6.0290   -1.0490    3.4220 c3        1 BIM     -0.103400
     26 C37         5.0380   -3.2160    4.2190 c3        1 BIM     -0.032100
     27 C38         4.7720   -1.7620    3.8680 c3        1 BIM     -0.078400
     28 C40         8.0340   -5.9570    4.6530 c3        1 BIM      0.156100
     29 C13         7.8660   -1.1810   -1.5780 ca        1 BIM     -0.074800
     30 C20         8.5220   -0.0070   -1.2020 ca        1 BIM     -0.101000
     31 C22         9.8340   -2.5180   -0.8740 ca        1 BIM     -0.134000
     32 N14         7.6920   -3.4650   -1.8920 na        1 BIM     -0.066400
     33 C26         8.0800   -4.8230   -2.1470 c3        1 BIM      0.041300
     34 C28         6.8720   -6.1940   -0.3660 c3        1 BIM     -0.123700
     35 C29         6.4060   -5.4250    0.8390 ca        1 BIM      0.420600
     36 N31         7.1980   -5.3750    1.9290 nb        1 BIM     -0.701000
     37 N39         7.6080   -4.6460    4.2070 nh        1 BIM     -0.722300
     38 C41         8.7100   -3.7130    4.0640 c3        1 BIM      0.156100
     39 O24         3.0820    1.9530   -2.7720 o         1 BIM     -0.570500
     40 N2          4.3520    0.6440   -4.2210 n         1 BIM     -0.634500
     41 C9          3.6510    0.7900    1.6010 ca        1 BIM     -0.054200
     42 H8          6.5760   -0.0360    0.3080 h4        1 BIM      0.188000
     43 H12         5.7260   -3.4610   -2.8090 h4        1 BIM      0.172000
     44 H16         1.7110    1.0380   -1.2460 ha        1 BIM      0.153000
     45 H17         0.0120    1.5330    0.5050 ha        1 BIM      0.132000
     46 H18         2.9520    1.0940    3.6460 ha        1 BIM      0.131000
     47 H19         0.6190    1.5700    2.9050 ha        1 BIM      0.130000
     48 H21        10.3280    0.8290   -0.3730 ha        1 BIM      0.131000
     49 H23        11.4570   -1.3520   -0.0760 ha        1 BIM      0.131000
     50 H271        8.8170   -5.2240   -0.1310 hc        1 BIM      0.064200
     51 H272        8.7820   -6.6330   -1.2570 hc        1 BIM      0.064200
     52 H30         4.5070   -4.8820   -0.0970 ha        1 BIM      0.143000
     53 H32         3.7170   -3.6100    1.9090 ha        1 BIM      0.145000
     54 H351        5.1840    0.9290    3.7520 h1        1 BIM      0.061200
     55 H352        6.7490    0.8980    2.8060 h1        1 BIM      0.061200
     56 H361        6.7520   -0.9880    4.2790 hc        1 BIM      0.058200
     57 H362        6.5260   -1.6350    2.6040 hc        1 BIM      0.058200
     58 H371        4.0790   -3.6750    4.5870 hc        1 BIM      0.062700
     59 H372        5.7670   -3.2560    5.0700 hc        1 BIM      0.062700
     60 H381        3.9960   -1.7060    3.0590 hc        1 BIM      0.046700
     61 H382        4.3480   -1.2460    4.7700 hc        1 BIM      0.046700
     62 H401        8.8230   -6.4220    4.0020 h1        1 BIM      0.038700
     63 H402        7.1480   -6.6420    4.6870 h1        1 BIM      0.038700
     64 H403        8.4480   -5.8430    5.6910 h1        1 BIM      0.038700
     65 H20         8.0320    0.9670   -1.3430 ha        1 BIM      0.139000
     66 H22        10.3420   -3.4830   -0.7490 ha        1 BIM      0.136000
     67 H261        9.0880   -4.8040   -2.6600 h1        1 BIM      0.058200
     68 H262        7.3330   -5.2710   -2.8640 h1        1 BIM      0.058200
     69 H281        6.9600   -7.2770   -0.0730 hc        1 BIM      0.054200
     70 H282        6.0820   -6.1310   -1.1610 hc        1 BIM      0.054200
     71 H411        8.3010   -2.7140    3.7600 h1        1 BIM      0.038700
     72 H412        9.4750   -4.0360    3.3080 h1        1 BIM      0.038700
     73 H413        9.2110   -3.6140    5.0630 h1        1 BIM      0.038700
     74 HN2         4.0120    1.0020   -5.0760 hn        1 BIM      0.345500
@<TRIPOS>BOND
     1    1    2 1   
     2    1   18 2   
     3    1   40 1   
     4    2    4 2   
     5    2    9 1   
     6    3    4 1   
     7    3   39 2   
     8    3   40 1   
     9    4    5 1   
    10    5    6 1   
    11    5    7 2   
    12    6   12 ar  
    13    6   41 ar  
    14    7    8 1   
    15    7   42 1   
    16    8   24 1   
    17    8   41 1   
    18    9   10 2   
    19    9   29 1   
    20   10   32 1   
    21   10   43 1   
    22   11   29 ar  
    23   11   31 ar  
    24   11   32 1   
    25   12   13 ar  
    26   12   44 1   
    27   13   15 ar  
    28   13   45 1   
    29   14   15 ar  
    30   14   41 ar  
    31   14   46 1   
    32   15   47 1   
    33   16   17 ar  
    34   16   30 ar  
    35   16   48 1   
    36   17   31 ar  
    37   17   49 1   
    38   19   33 1   
    39   19   34 1   
    40   19   50 1   
    41   19   51 1   
    42   20   21 ar  
    43   20   35 ar  
    44   20   52 1   
    45   21   23 ar  
    46   21   53 1   
    47   22   23 ar  
    48   22   36 ar  
    49   22   37 1   
    50   23   26 1   
    51   24   25 1   
    52   24   54 1   
    53   24   55 1   
    54   25   27 1   
    55   25   56 1   
    56   25   57 1   
    57   26   27 1   
    58   26   58 1   
    59   26   59 1   
    60   27   60 1   
    61   27   61 1   
    62   28   37 1   
    63   28   62 1   
    64   28   63 1   
    65   28   64 1   
    66   29   30 ar  
    67   30   65 1   
    68   31   66 1   
    69   32   33 1   
    70   33   67 1   
    71   33   68 1   
    72   34   35 1   
    73   34   69 1   
    74   34   70 1   
    75   35   36 ar  
    76   37   38 1   
    77   38   71 1   
    78   38   72 1   
    79   38   73 1   
    80   40   74 1   
@<TRIPOS>SUBSTRUCTURE
     1 BIM         1 TEMP              0 ****  ****    0 ROOT
