@<TRIPOS>MOLECULE
BIM
   74    80     1     0     0
SMALL
bcc


@<TRIPOS>ATOM
      1 C1         -0.1100   -0.7540   -0.0060 c         1 BIM      0.699700
      2 C3          1.3680   -0.4090    0.0470 cc        1 BIM     -0.087200
      3 C4          0.5460   -0.7090    2.2160 c         1 BIM      0.698700
      4 C5          1.7710   -0.4130    1.3560 cd        1 BIM     -0.006200
      5 C6          3.0560   -0.1860    1.9190 cd        1 BIM     -0.130200
      6 C7          3.6260   -0.7440    3.1360 ca        1 BIM     -0.059800
      7 C8          4.0410    0.6500    1.3630 cc        1 BIM     -0.045100
      8 N10         5.1710    0.6780    2.1710 na        1 BIM     -0.063400
      9 C11         2.0660   -0.1570   -1.1740 cc        1 BIM     -0.110200
     10 C12         2.3090   -1.1030   -2.1770 cd        1 BIM     -0.051100
     11 C15         3.0930    0.8620   -2.9880 ca        1 BIM     -0.045200
     12 C16         3.1790   -1.6440    4.1050 ca        1 BIM     -0.076000
     13 C17         4.0210   -1.9820    5.1550 ca        1 BIM     -0.152000
     14 C18         5.7980   -0.5440    4.3220 ca        1 BIM     -0.144000
     15 C19         5.3120   -1.4400    5.2620 ca        1 BIM     -0.116000
     16 C21         3.0930    3.4380   -1.9470 ca        1 BIM     -0.153000
     17 C23         3.6310    3.1790   -3.2190 ca        1 BIM     -0.120000
     18 O25        -0.8440   -0.9020   -0.9850 o         1 BIM     -0.572500
     19 C27         4.5680   -1.3480   -5.0000 c3        1 BIM     -0.092400
     20 C30         5.9140   -2.7450   -1.9240 ca        1 BIM     -0.242300
     21 C32         6.7580   -2.4090   -0.8740 ca        1 BIM     -0.092000
     22 C33         8.0000   -0.9920   -2.3890 ca        1 BIM      0.581200
     23 C34         7.8140   -1.5080   -1.0730 ca        1 BIM     -0.161600
     24 C35         6.3790    1.4010    1.8900 c3        1 BIM      0.041300
     25 C36         7.2650    0.8040    0.7970 c3        1 BIM     -0.103400
     26 C37         8.6810   -1.1440    0.0790 c3        1 BIM     -0.032100
     27 C38         7.9010   -0.5030    1.2140 c3        1 BIM     -0.078400
     28 C40         9.9450   -0.5140   -3.7520 c3        1 BIM      0.156100
     29 C13         2.5530    1.1170   -1.6700 ca        1 BIM     -0.074800
     30 C20         2.5540    2.4210   -1.1720 ca        1 BIM     -0.101000
     31 C22         3.6390    1.9010   -3.7570 ca        1 BIM     -0.134000
     32 N14         2.9500   -0.5070   -3.2660 na        1 BIM     -0.066400
     33 C26         3.1230   -1.1170   -4.5540 c3        1 BIM      0.041300
     34 C28         5.2330   -2.5330   -4.3300 c3        1 BIM     -0.123700
     35 C29         6.1440   -2.1640   -3.1910 ca        1 BIM      0.420600
     36 N31         7.1690   -1.3190   -3.4210 nb        1 BIM     -0.701000
     37 N39         9.1160   -0.1010   -2.6360 nh        1 BIM     -0.722300
     38 C41         8.6980    1.2840   -2.7270 c3        1 BIM      0.156100
     39 O24         0.4370   -0.7600    3.4430 o         1 BIM     -0.570500
     40 N2         -0.5370   -0.9100    1.3330 ns        1 BIM     -0.634500
     41 C9          4.9580   -0.1950    3.2540 ca        1 BIM     -0.054200
     42 H8          3.9930    1.2350    0.4380 h4        1 BIM      0.188000
     43 H12         2.0670   -2.1680   -2.1840 h4        1 BIM      0.172000
     44 H16         2.1630   -2.0640    4.0440 ha        1 BIM      0.153000
     45 H17         3.6720   -2.6870    5.9250 ha        1 BIM      0.132000
     46 H18         6.8100   -0.1270    4.4080 ha        1 BIM      0.131000
     47 H19         5.9490   -1.7320    6.1110 ha        1 BIM      0.130000
     48 H21         3.0960    4.4700   -1.5660 ha        1 BIM      0.131000
     49 H23         4.0490    4.0130   -3.8030 ha        1 BIM      0.131000
     50 H271        5.1680   -0.4130   -4.8580 hc        1 BIM      0.064200
     51 H272        4.5250   -1.5450   -6.1070 hc        1 BIM      0.064200
     52 H30         5.0790   -3.4420   -1.7730 ha        1 BIM      0.143000
     53 H32         6.5980   -2.8450    0.1250 ha        1 BIM      0.145000
     54 H351        6.0870    2.4450    1.5760 h1        1 BIM      0.061200
     55 H352        6.9710    1.4720    2.8470 h1        1 BIM      0.061200
     56 H361        6.6670    0.6490   -0.1410 hc        1 BIM      0.058200
     57 H362        8.0650    1.5560    0.5640 hc        1 BIM      0.058200
     58 H371        9.5070   -0.4510   -0.2300 hc        1 BIM      0.062700
     59 H372        9.1680   -2.0820    0.4660 hc        1 BIM      0.062700
     60 H381        8.6000   -0.3210    2.0740 hc        1 BIM      0.046700
     61 H382        7.1100   -1.2120    1.5760 hc        1 BIM      0.046700
     62 H401       10.1840   -1.6040   -3.6510 h1        1 BIM      0.038700
     63 H402       10.8990    0.0760   -3.7000 h1        1 BIM      0.038700
     64 H403        9.4710   -0.3400   -4.7550 h1        1 BIM      0.038700
     65 H20         2.1210    2.6350   -0.1840 ha        1 BIM      0.139000
     66 H22         4.0550    1.7050   -4.7540 ha        1 BIM      0.136000
     67 H261        2.5750   -2.1020   -4.5510 h1        1 BIM      0.058200
     68 H262        2.6320   -0.4470   -5.3210 h1        1 BIM      0.058200
     69 H281        4.4550   -3.2480   -3.9520 hc        1 BIM      0.054200
     70 H282        5.8440   -3.0860   -5.0960 hc        1 BIM      0.054200
     71 H411        9.6200    1.9230   -2.7520 h1        1 BIM      0.038700
     72 H412        8.1000    1.5420   -1.8130 h1        1 BIM      0.038700
     73 H413        8.0810    1.5080   -3.6380 h1        1 BIM      0.038700
     74 HN2        -1.4620   -1.1100    1.6130 hn        1 BIM      0.345500
@<TRIPOS>BOND
     1    1    2 1   
     2    1   18 2   
     3    1   40 1   
     4    2    4 2   
     5    2    9 1   
     6    3    4 1   
     7    3   39 2   
     8    3   40 1   
     9    4    5 1   
    10    5    6 1   
    11    5    7 2   
    12    6   12 ar  
    13    6   41 ar  
    14    7    8 1   
    15    7   42 1   
    16    8   24 1   
    17    8   41 1   
    18    9   10 2   
    19    9   29 1   
    20   10   32 1   
    21   10   43 1   
    22   11   29 ar  
    23   11   31 ar  
    24   11   32 1   
    25   12   13 ar  
    26   12   44 1   
    27   13   15 ar  
    28   13   45 1   
    29   14   15 ar  
    30   14   41 ar  
    31   14   46 1   
    32   15   47 1   
    33   16   17 ar  
    34   16   30 ar  
    35   16   48 1   
    36   17   31 ar  
    37   17   49 1   
    38   19   33 1   
    39   19   34 1   
    40   19   50 1   
    41   19   51 1   
    42   20   21 ar  
    43   20   35 ar  
    44   20   52 1   
    45   21   23 ar  
    46   21   53 1   
    47   22   23 ar  
    48   22   36 ar  
    49   22   37 1   
    50   23   26 1   
    51   24   25 1   
    52   24   54 1   
    53   24   55 1   
    54   25   27 1   
    55   25   56 1   
    56   25   57 1   
    57   26   27 1   
    58   26   58 1   
    59   26   59 1   
    60   27   60 1   
    61   27   61 1   
    62   28   37 1   
    63   28   62 1   
    64   28   63 1   
    65   28   64 1   
    66   29   30 ar  
    67   30   65 1   
    68   31   66 1   
    69   32   33 1   
    70   33   67 1   
    71   33   68 1   
    72   34   35 1   
    73   34   69 1   
    74   34   70 1   
    75   35   36 ar  
    76   37   38 1   
    77   38   71 1   
    78   38   72 1   
    79   38   73 1   
    80   40   74 1   
@<TRIPOS>SUBSTRUCTURE
     1 BIM         1 TEMP              0 ****  ****    0 ROOT
