@<TRIPOS>MOLECULE
BIN
   47    48     1     0     0
SMALL
bcc


@<TRIPOS>ATOM
      1 C1         28.0660    2.6880   53.4160 cp        1 BIN     -0.046000
      2 C2         27.3440    3.7830   52.9150 ca        1 BIN      0.045400
      3 C3         27.0340    4.8690   53.7410 ca        1 BIN     -0.148000
      4 C4         27.4550    4.8730   55.0680 ca        1 BIN     -0.117000
      5 C5         28.2030    3.8080   55.5660 ca        1 BIN     -0.136000
      6 C6         28.5190    2.7280   54.7450 ca        1 BIN     -0.050000
      7 C7         28.4030    1.5220   52.5910 cp        1 BIN      0.068000
      8 C8         27.3890    0.6140   52.1850 ca        1 BIN     -0.137600
      9 C9         30.0140    0.1730   51.3690 ca        1 BIN      0.013100
     10 C11        27.7000   -0.4680   51.3560 ca        1 BIN     -0.018600
     11 C12        29.7260    1.2650   52.2280 ca        1 BIN     -0.115600
     12 C13        30.8590    2.1420   52.8270 c         1 BIN      0.940200
     13 C14        31.4770   -0.1940   50.8650 c         1 BIN      0.949200
     14 C15        26.6400   -1.4390   50.9420 c3        1 BIN     -0.063800
     15 C16        29.7900   -3.0040   50.6770 c3        1 BIN     -0.125100
     16 C18        26.0050    0.7610   52.6850 c         1 BIN      0.662700
     17 C19        23.7160    1.2060   52.0840 c3        1 BIN      0.148100
     18 C20        23.5080    2.6050   52.6270 c3        1 BIN     -0.109100
     19 C21        22.9140    0.9640   50.8190 c3        1 BIN     -0.109100
     20 N10        29.0040   -0.6390   50.9240 na        1 BIN      0.019900
     21 O3A        31.1850    1.8430   54.0040 o         1 BIN     -0.776300
     22 O3B        31.2890    3.0840   52.1280 o         1 BIN     -0.776300
     23 O4A        31.7580    0.2330   49.7270 o         1 BIN     -0.749300
     24 O4B        32.1000   -0.9710   51.6140 o         1 BIN     -0.749300
     25 O8A        25.5900    0.6300   53.8380 o         1 BIN     -0.530000
     26 O8         25.0950    1.0300   51.6960 os        1 BIN     -0.435900
     27 CL2        26.8490    3.8470   51.2860 cl        1 BIN     -0.102400
     28 H3         26.4740    5.7250   53.3370 ha        1 BIN      0.132000
     29 H4         27.2120    5.7280   55.7150 ha        1 BIN      0.121000
     30 H5         28.5690    3.8250   56.6030 ha        1 BIN      0.133000
     31 H6         29.1800    1.9180   55.1070 ha        1 BIN      0.191000
     32 H151       26.3500   -1.2550   49.8770 hc        1 BIN      0.060033
     33 H152       26.9920   -2.4960   51.0490 hc        1 BIN      0.060033
     34 H153       25.7270   -1.3150   51.5750 hc        1 BIN      0.060033
     35 H161       30.0250   -3.7570   49.8870 hc        1 BIN      0.060367
     36 H162       30.7200   -2.8020   51.2730 hc        1 BIN      0.060367
     37 H163       29.0080   -3.4220   51.3530 hc        1 BIN      0.060367
     38 H171       30.1440   -1.3560   49.3080 h1        1 BIN      0.087200
     39 H172       28.4180   -1.9370   49.3580 h1        1 BIN      0.087200
     40 H19        23.4590    0.4420   52.8700 h1        1 BIN      0.059700
     41 H201       24.0790    2.7260   53.5810 hc        1 BIN      0.046533
     42 H202       23.8730    3.3650   51.8950 hc        1 BIN      0.046533
     43 H203       22.4240    2.7750   52.8250 hc        1 BIN      0.046533
     44 H211       23.1040   -0.0650   50.4310 hc        1 BIN      0.046533
     45 H212       21.8280    1.0770   51.0470 hc        1 BIN      0.046533
     46 H213       23.2020    1.6990   50.0300 hc        1 BIN      0.046533
     47 C17        29.3220   -1.7300   49.9950 c3        1 BIN     -0.007700
@<TRIPOS>BOND
     1    1    2 ar  
     2    1    6 ar  
     3    1    7 1   
     4    2    3 ar  
     5    2   27 1   
     6    3    4 ar  
     7    3   28 1   
     8    4    5 ar  
     9    4   29 1   
    10    5    6 ar  
    11    5   30 1   
    12    6   31 1   
    13    7    8 ar  
    14    7   11 ar  
    15    8   10 ar  
    16    8   16 1   
    17    9   11 ar  
    18    9   13 1   
    19    9   20 2   
    20   10   14 1   
    21   10   20 1   
    22   11   12 1   
    23   12   21 1   
    24   12   22 1   
    25   13   23 1   
    26   13   24 1   
    27   14   32 1   
    28   14   33 1   
    29   14   34 1   
    30   15   35 1   
    31   15   36 1   
    32   15   37 1   
    33   15   47 1   
    34   16   25 2   
    35   16   26 1   
    36   17   18 1   
    37   17   19 1   
    38   17   26 1   
    39   17   40 1   
    40   18   41 1   
    41   18   42 1   
    42   18   43 1   
    43   19   44 1   
    44   19   45 1   
    45   19   46 1   
    46   20   47 1   
    47   38   47 1   
    48   39   47 1   
@<TRIPOS>SUBSTRUCTURE
     1 BIN         1 TEMP              0 ****  ****    0 ROOT
