@<TRIPOS>MOLECULE
BIN
   47    49     1     0     0
SMALL
bcc


@<TRIPOS>ATOM
      1 C1          0.0940   -0.1530   -0.2080 ce        1 BIN     -0.137200
      2 C2          0.9150   -1.2930    0.2270 c3        1 BIN      0.364400
      3 C3          1.8830   -0.8200    1.3250 c3        1 BIN     -0.050200
      4 C4          2.3020    0.6060    1.1730 c2        1 BIN     -0.150200
      5 C5          1.6180    1.5560    0.4960 cf        1 BIN     -0.112000
      6 C6          0.3880    1.1760   -0.1460 cf        1 BIN     -0.054200
      7 C7         -1.2810   -0.3510   -0.5940 ce        1 BIN      0.044000
      8 C8         -1.8860    0.8700   -0.9090 ce        1 BIN     -0.295300
      9 C9         -3.3170   -1.5590   -0.7820 cf        1 BIN      0.042900
     10 C11        -3.2630    0.8600   -1.2370 c1        1 BIN     -0.047900
     11 C12        -1.9440   -1.5720   -0.4540 cf        1 BIN     -0.229200
     12 C13        -1.1470   -2.6590    0.1140 c         1 BIN      0.771800
     13 C14        -4.2140   -2.8370   -0.6900 c         1 BIN      0.907600
     14 C15        -2.3920    3.6390   -0.0070 c3        1 BIN      0.118700
     15 C16        -6.2530   -0.3120   -0.3580 c3        1 BIN     -0.122100
     16 C18        -0.8370    1.9670   -0.7040 c3        1 BIN      0.471000
     17 C19         2.3160    4.6750   -3.2180 c2        1 BIN     -0.182200
     18 C20         2.7710    3.8280   -2.0970 c3        1 BIN     -0.073900
     19 C21         1.2760    4.3870   -3.9970 c2        1 BIN     -0.220000
     20 N10        -3.8890   -0.3630   -1.1840 nh        1 BIN     -0.031600
     21 O3A        -1.3910   -3.8460    0.2800 o         1 BIN     -0.523500
     22 O3B         0.1240   -2.3740    0.6890 os        1 BIN     -0.445900
     23 O4A        -4.3890   -3.4510   -1.7660 o         1 BIN     -0.771800
     24 O4B        -4.7050   -3.0710    0.4370 o         1 BIN     -0.771800
     25 O8A        -1.1490    2.9870    0.2250 os        1 BIN     -0.450600
     26 O8         -0.5440    2.6330   -1.9060 oh        1 BIN     -0.594800
     27 CL2         1.8910   -1.8660   -1.1910 cl        1 BIN     -0.231400
     28 H3          1.3660   -0.9390    2.3180 hc        1 BIN      0.080700
     29 H4          2.7870   -1.4850    1.3360 hc        1 BIN      0.080700
     30 H5          3.2310    0.8620    1.7060 ha        1 BIN      0.122000
     31 H6          1.9500    2.6020    0.4400 ha        1 BIN      0.137000
     32 H151       -2.3440    4.2100   -0.9670 h1        1 BIN      0.045367
     33 H152       -2.4990    4.3320    0.8640 h1        1 BIN      0.045367
     34 H153       -3.2310    2.9000   -0.0450 h1        1 BIN      0.045367
     35 H161       -5.4850    0.5260   -2.2100 h1        1 BIN      0.077200
     36 H162       -6.0950   -1.1980    0.3100 hc        1 BIN      0.050367
     37 H163       -6.1010    0.6220    0.2340 hc        1 BIN      0.050367
     38 H171       -7.3020   -0.3290   -0.7400 hc        1 BIN      0.050367
     39 H172       -5.5110   -1.3100   -2.1390 h1        1 BIN      0.077200
     40 H19         0.0810    3.3410   -1.6930 ho        1 BIN      0.408000
     41 H201        2.9080    5.5920   -3.3760 ha        1 BIN      0.106000
     42 H202        3.8500    3.5650   -2.2260 hc        1 BIN      0.043033
     43 H203        2.6600    4.3790   -1.1290 hc        1 BIN      0.043033
     44 H211        2.1850    2.8760   -2.0270 hc        1 BIN      0.043033
     45 H212        0.9650    5.0420   -4.8220 ha        1 BIN      0.121000
     46 H213        0.6610    3.4830   -3.8670 ha        1 BIN      0.121000
     47 C17        -5.3090   -0.3680   -1.5480 c3        1 BIN      0.027300
@<TRIPOS>BOND
     1    1    2 1   
     2    1    6 2   
     3    1    7 1   
     4    2    3 1   
     5    2   22 1   
     6    2   27 1   
     7    3    4 1   
     8    3   28 1   
     9    3   29 1   
    10    4    5 2   
    11    4   30 1   
    12    5    6 1   
    13    5   31 1   
    14    6   16 1   
    15    7    8 1   
    16    7   11 2   
    17    8   10 2   
    18    8   16 1   
    19    9   11 1   
    20    9   13 2   
    21    9   20 1   
    22   10   20 2   
    23   11   12 1   
    24   12   21 2   
    25   12   22 1   
    26   13   23 1   
    27   13   24 1   
    28   14   25 1   
    29   14   32 1   
    30   14   33 1   
    31   14   34 1   
    32   15   36 1   
    33   15   37 1   
    34   15   38 1   
    35   15   47 1   
    36   16   25 1   
    37   16   26 1   
    38   17   18 1   
    39   17   19 2   
    40   17   41 1   
    41   18   42 1   
    42   18   43 1   
    43   18   44 1   
    44   19   45 1   
    45   19   46 1   
    46   20   47 1   
    47   26   40 1   
    48   35   47 1   
    49   39   47 1   
@<TRIPOS>SUBSTRUCTURE
     1 BIN         1 TEMP              0 ****  ****    0 ROOT
