@<TRIPOS>MOLECULE
BIN
   47    41     1     0     0
SMALL
bcc


@<TRIPOS>ATOM
      1 C1          0.6750   -1.0040    1.7500 c1        1 BIN     -0.047000
      2 C2          2.0430   -1.2770    1.8130 c1        1 BIN     -0.031000
      3 C3          2.6820   -1.3630    3.0520 c1        1 BIN     -0.148000
      4 C4          1.9470   -1.1730    4.2350 c1        1 BIN     -0.126500
      5 C5          0.5830   -0.9000    4.1700 c1        1 BIN     -0.126500
      6 C6         -0.0550   -0.8140    2.9280 c1        1 BIN     -0.051000
      7 C7          0.0120   -1.0350    0.5150 c1        1 BIN      0.066000
      8 C8         -0.4400    0.1250   -0.0410 c1        1 BIN     -0.115000
      9 C9         -1.0800   -2.2810   -1.2070 c1        1 BIN      0.058000
     10 C11        -1.2210    0.0860   -1.1940 c1        1 BIN      0.012000
     11 C12        -0.3040   -2.2440   -0.0620 c1        1 BIN     -0.094000
     12 C13         0.2920   -3.5440    0.5030 c2        1 BIN      0.389000
     13 C14        -1.3580   -3.5910   -1.8740 c2        1 BIN      0.398000
     14 C15        -1.8190    1.3560   -1.7400 c2        1 BIN     -0.194000
     15 C16        -2.7830   -1.2460   -3.8520 c3        1 BIN     -0.242000
     16 C17        -2.8540   -1.2960   -2.3160 c3        1 BIN     -0.064000
     17 C18         0.0060    1.4740    0.5380 c2        1 BIN      0.363000
     18 C19         1.3350    3.4670    0.2360 c3        1 BIN      0.037000
     19 C20         2.2470    3.8950    1.3800 c3        1 BIN     -0.226500
     20 C21         1.8930    4.0300   -1.1130 c3        1 BIN     -0.226500
     21 N10        -1.5340   -1.1160   -1.7670 n3        1 BIN     -0.048000
     22 O3A        -0.4050   -4.2830    1.2560 o         1 BIN     -0.511000
     23 O3B         1.4500   -3.9190    0.1430 o         1 BIN     -0.511000
     24 O4A        -0.7860   -3.8790   -2.9510 o         1 BIN     -0.483500
     25 O4B        -2.1330   -4.4160   -1.3350 o         1 BIN     -0.483500
     26 O8A        -0.6620    2.0140    1.3950 o         1 BIN     -0.342000
     27 O8          1.2790    2.0210    0.1740 os        1 BIN     -0.272000
     28 CL2         2.9410   -1.5920    0.3360 cl        1 BIN     -0.021000
     29 H3          3.6030   -1.6320    3.0980 ha        1 BIN      0.133000
     30 H4          2.3980   -1.2320    5.1130 ha        1 BIN      0.126500
     31 H5          0.0690   -0.7670    4.9970 ha        1 BIN      0.126500
     32 H6         -0.9880   -0.5260    2.8810 ha        1 BIN      0.189000
     33 H151       -2.3950    1.7600   -1.0670 ha        1 BIN      0.101000
     34 H152       -2.3470    1.1490   -2.5400 ha        1 BIN      0.101000
     35 H153       -1.1050    1.9780   -1.9740 ha        1 BIN      0.101000
     36 H161       -2.3400   -0.4140   -4.1350 hc        1 BIN      0.099667
     37 H162       -3.6920   -1.2750   -4.2220 hc        1 BIN      0.099667
     38 H163       -2.2730   -2.0160   -4.1800 hc        1 BIN      0.099667
     39 H171       -3.4470   -0.5770   -1.9900 h1        1 BIN      0.125000
     40 H172       -3.2120   -2.1730   -2.0310 h1        1 BIN      0.125000
     41 H19         0.4190    3.8270    0.3910 h1        1 BIN      0.100000
     42 H201        2.3240    4.8650    1.3880 hc        1 BIN      0.086000
     43 H202        3.1290    3.5000    1.2580 hc        1 BIN      0.086000
     44 H203        1.8700    3.5920    2.2290 hc        1 BIN      0.086000
     45 H211        2.8140    3.6920   -1.2580 hc        1 BIN      0.086000
     46 H212        1.3160    3.7370   -1.8540 hc        1 BIN      0.086000
     47 H213        1.9070    5.0180   -1.0760 hc        1 BIN      0.086000
@<TRIPOS>BOND
     1    1    6 1   
     2    2    3 1   
     3    2   28 1   
     4    3   29 1   
     5    4    5 1   
     6    4   30 1   
     7    5   31 1   
     8    6   32 1   
     9    7   11 1   
    10    8   10 1   
    11    8   17 1   
    12    9   13 1   
    13    9   21 1   
    14   10   21 1   
    15   11   12 1   
    16   12   22 1   
    17   12   23 1   
    18   13   24 1   
    19   13   25 1   
    20   14   33 1   
    21   14   34 1   
    22   14   35 1   
    23   15   16 1   
    24   15   36 1   
    25   15   37 1   
    26   15   38 1   
    27   16   21 1   
    28   16   39 1   
    29   16   40 1   
    30   17   26 1   
    31   17   27 1   
    32   18   19 1   
    33   18   20 1   
    34   18   27 1   
    35   18   41 1   
    36   19   42 1   
    37   19   43 1   
    38   19   44 1   
    39   20   45 1   
    40   20   46 1   
    41   20   47 1   
@<TRIPOS>SUBSTRUCTURE
     1 BIN         1 TEMP              0 ****  ****    0 ROOT
