@<TRIPOS>MOLECULE
BIN
   47    49     1     0     0
SMALL
bcc


@<TRIPOS>ATOM
      1 C1          0.0930   -0.3340   -0.6690 ce        1 BIN     -0.137200
      2 C2          0.9640   -1.3980   -0.1490 c3        1 BIN      0.364400
      3 C3          2.0790   -0.7620    0.6980 c3        1 BIN     -0.050200
      4 C4          2.4720    0.6030    0.2370 c2        1 BIN     -0.149200
      5 C5          1.7020    1.4350   -0.5010 cf        1 BIN     -0.115000
      6 C6          0.3950    0.9750   -0.8930 cf        1 BIN     -0.055200
      7 C7         -1.3230   -0.5600   -0.8180 ce        1 BIN      0.045000
      8 C8         -1.9640    0.6000   -1.2660 ce        1 BIN     -0.295300
      9 C9         -3.3690   -1.7220   -0.4930 cf        1 BIN      0.042900
     10 C11        -3.3730    0.5710   -1.3910 c1        1 BIN     -0.047900
     11 C12        -1.9640   -1.7150   -0.3640 cf        1 BIN     -0.229200
     12 C13        -1.0970   -2.7020    0.2790 c         1 BIN      0.771800
     13 C14        -4.2480   -2.9340   -0.0400 c         1 BIN      0.907600
     14 C15        -2.3330    3.4990   -0.8390 c3        1 BIN      0.118700
     15 C16        -6.2110   -0.3320    0.0980 c3        1 BIN     -0.122100
     16 C18        -0.8930    1.6840   -1.4170 c3        1 BIN      0.469000
     17 C19         2.5550    5.0790   -2.1030 c2        1 BIN     -0.168200
     18 C20         1.4740    5.1490   -1.0990 c3        1 BIN     -0.079900
     19 C21         2.7020    4.0910   -2.9830 c2        1 BIN     -0.230000
     20 N10        -3.9900   -0.6040   -1.0260 nh        1 BIN     -0.031600
     21 O3A        -1.3190   -3.8320    0.6940 o         1 BIN     -0.523500
     22 O3B         0.2430   -2.3530    0.6110 os        1 BIN     -0.445900
     23 O4A        -4.5770   -3.7300   -0.9480 o         1 BIN     -0.771800
     24 O4B        -4.5730   -2.9420    1.1690 o         1 BIN     -0.771800
     25 O8A        -1.0670    2.8710   -0.6670 os        1 BIN     -0.454600
     26 O8         -0.7730    2.1060   -2.7530 oh        1 BIN     -0.586800
     27 Cl2         1.7280   -2.2490   -1.5570 cl        1 BIN     -0.230400
     28 H3          1.7100   -0.6890    1.7600 hc        1 BIN      0.080700
     29 H4          2.9750   -1.4360    0.7010 hc        1 BIN      0.080700
     30 H5          3.4650    0.9290    0.5840 ha        1 BIN      0.123000
     31 H6          2.0200    2.4490   -0.7840 ha        1 BIN      0.142000
     32 H151       -2.4270    3.8720   -1.8890 h1        1 BIN      0.045700
     33 H152       -2.3120    4.3500   -0.1130 h1        1 BIN      0.045700
     34 H153       -3.1670    2.7890   -0.6100 h1        1 BIN      0.045700
     35 H161       -5.7130    0.1290   -1.9660 h1        1 BIN      0.077200
     36 H162       -5.9620   -1.0850    0.8900 hc        1 BIN      0.050367
     37 H163       -5.9730    0.6890    0.4790 hc        1 BIN      0.050367
     38 H171       -7.3040   -0.3880   -0.1230 hc        1 BIN      0.050367
     39 H172       -5.7330   -1.6610   -1.5530 h1        1 BIN      0.077200
     40 H19        -0.0950    2.7950   -2.7680 ho        1 BIN      0.402000
     41 H201        3.2640    5.9240   -2.0810 ha        1 BIN      0.108000
     42 H202        1.9050    5.0740   -0.0690 hc        1 BIN      0.048700
     43 H203        0.9360    6.1260   -1.1800 hc        1 BIN      0.048700
     44 H211        0.7250    4.3240   -1.2220 hc        1 BIN      0.048700
     45 H212        3.5210    4.0740   -3.7130 ha        1 BIN      0.112000
     46 H213        2.0200    3.2320   -3.0360 ha        1 BIN      0.112000
     47 C17        -5.4470   -0.6330   -1.1800 c3        1 BIN      0.027300
@<TRIPOS>BOND
     1    1    2 1   
     2    1    6 2   
     3    1    7 1   
     4    2    3 1   
     5    2   22 1   
     6    2   27 1   
     7    3    4 1   
     8    3   28 1   
     9    3   29 1   
    10    4    5 2   
    11    4   30 1   
    12    5    6 1   
    13    5   31 1   
    14    6   16 1   
    15    7    8 1   
    16    7   11 2   
    17    8   10 2   
    18    8   16 1   
    19    9   11 1   
    20    9   13 2   
    21    9   20 1   
    22   10   20 2   
    23   11   12 1   
    24   12   21 2   
    25   12   22 1   
    26   13   23 1   
    27   13   24 1   
    28   14   25 1   
    29   14   32 1   
    30   14   33 1   
    31   14   34 1   
    32   15   36 1   
    33   15   37 1   
    34   15   38 1   
    35   15   47 1   
    36   16   25 1   
    37   16   26 1   
    38   17   18 1   
    39   17   19 2   
    40   17   41 1   
    41   18   42 1   
    42   18   43 1   
    43   18   44 1   
    44   19   45 1   
    45   19   46 1   
    46   20   47 1   
    47   26   40 1   
    48   35   47 1   
    49   39   47 1   
@<TRIPOS>SUBSTRUCTURE
     1 BIN         1 TEMP              0 ****  ****    0 ROOT
