@<TRIPOS>MOLECULE
BIO
   28    25     1     0     0
SMALL
bcc


@<TRIPOS>ATOM
      1 N1          1.2110    0.1650   -3.2060 n1        1 BIO     -0.230000
      2 N2          3.1460    0.1830   -4.5250 n3        1 BIO     -0.332000
      3 C2          2.5820    0.2070   -3.1750 c1        1 BIO      0.244000
      4 N3          3.2400    0.3070   -1.9730 n2        1 BIO     -0.351000
      5 C4          2.5380    0.3640   -0.8180 c1        1 BIO      0.369000
      6 O4          3.1010    0.5320    0.2060 o         1 BIO     -0.307000
      7 C4A         1.1490    0.3220   -0.8470 c1        1 BIO     -0.181000
      8 C8A         0.4960    0.2230   -2.0360 c1        1 BIO      0.088000
      9 N8         -0.8740    0.1670   -2.0610 n2        1 BIO     -0.099000
     10 C7         -1.5670    0.2100   -0.9170 c1        1 BIO     -0.037000
     11 C6         -0.8950    0.3110    0.3030 c1        1 BIO     -0.118000
     12 N5          0.4350    0.3650    0.3290 n2        1 BIO     -0.043000
     13 C9         -1.5580    0.5000    1.6620 c3        1 BIO      0.096000
     14 O9         -0.8490    1.4480    2.3980 oh        1 BIO     -0.312000
     15 C10        -1.5620   -0.8200    2.4110 c3        1 BIO     -0.003000
     16 O10        -1.9650   -1.8630    1.5330 oh        1 BIO     -0.329000
     17 C11        -2.5080   -0.7420    3.5540 c3        1 BIO     -0.250000
     18 HN21        2.5750    0.1080   -5.2730 hn        1 BIO      0.222000
     19 HN22        4.0740    0.2700   -4.6490 hn        1 BIO      0.222000
     20 H3          4.1600    0.3350   -1.9530 hn        1 BIO      0.252000
     21 H7         -2.5560    0.1690   -0.9360 ha        1 BIO      0.181000
     22 H9         -2.4720    0.8060    1.5360 h1        1 BIO      0.133000
     23 HO9        -1.2680    2.2460    2.3450 ho        1 BIO      0.218000
     24 H10        -0.6530   -1.0080    2.7500 h1        1 BIO      0.091000
     25 HO1        -1.8370   -2.6260    1.9150 ho        1 BIO      0.207000
     26 H111       -2.1870   -0.0730    4.2040 hc        1 BIO      0.089000
     27 H112       -2.5660   -1.6240    3.9920 hc        1 BIO      0.089000
     28 H113       -3.3910   -0.4820    3.2300 hc        1 BIO      0.089000
@<TRIPOS>BOND
     1    1    8 1   
     2    2    3 1   
     3    2   18 1   
     4    2   19 1   
     5    3    4 1   
     6    4   20 1   
     7    5    6 1   
     8    5    7 1   
     9    7   12 1   
    10    8    9 1   
    11    9   10 1   
    12   10   21 1   
    13   11   12 1   
    14   11   13 1   
    15   13   14 1   
    16   13   15 1   
    17   13   22 1   
    18   14   23 1   
    19   15   16 1   
    20   15   17 1   
    21   15   24 1   
    22   16   25 1   
    23   17   26 1   
    24   17   27 1   
    25   17   28 1   
@<TRIPOS>SUBSTRUCTURE
     1 BIO         1 TEMP              0 ****  ****    0 ROOT
