@<TRIPOS>MOLECULE
BIO
   28    29     1     0     0
SMALL
bcc


@<TRIPOS>ATOM
      1 N1         -0.0510   -0.0100   -0.1260 nc        1 BIO     -0.736700
      2 N2          1.9640    0.2150   -1.3530 nv        1 BIO     -0.893800
      3 C2          1.2900    0.0900   -0.1210 cd        1 BIO      0.690800
      4 N3          2.0720    0.1340    1.0510 ns        1 BIO     -0.511400
      5 C4          1.4810    0.1540    2.3290 c         1 BIO      0.622000
      6 O4          2.2340    0.2210    3.3100 o         1 BIO     -0.582500
      7 C4A        -0.0000    0.0800    2.3560 ca        1 BIO      0.171500
      8 C8A        -0.7110    0.0020    1.1020 ca        1 BIO      0.570000
      9 N8         -2.0960   -0.0720    1.1060 nb        1 BIO     -0.625000
     10 C7         -2.6880   -0.0590    2.2940 ca        1 BIO      0.362900
     11 C6         -1.9720    0.0290    3.5380 ca        1 BIO      0.239300
     12 N5         -0.6340    0.0930    3.5600 nb        1 BIO     -0.569000
     13 C9         -2.7580    0.0340    4.8310 c3        1 BIO      0.112800
     14 O9         -2.4170    1.1290    5.6560 oh        1 BIO     -0.584800
     15 C10        -2.5670   -1.2980    5.5880 c3        1 BIO      0.108100
     16 O10        -3.0880   -2.3120    4.7380 oh        1 BIO     -0.601800
     17 C11        -3.2990   -1.2720    6.9170 c3        1 BIO     -0.132100
     18 HN21        2.8610   -0.2120   -1.4070 hn        1 BIO      0.426800
     19 HN22        1.3920    0.0850   -2.1610 hn        1 BIO      0.426800
     20 H3          3.0620    0.2430    1.0000 hn        1 BIO      0.338500
     21 H7         -3.7920   -0.1270    2.2910 h4        1 BIO      0.044100
     22 H9         -3.8520    0.1840    4.6030 h1        1 BIO      0.093700
     23 HO9        -1.4820    1.0530    5.8880 ho        1 BIO      0.419000
     24 H10        -1.4680   -1.4800    5.7580 h1        1 BIO      0.051700
     25 HO1        -3.0380   -3.1390    5.2320 ho        1 BIO      0.408000
     26 H111       -3.0610   -2.1880    7.5070 hc        1 BIO      0.050033
     27 H112       -2.9920   -0.3710    7.5000 hc        1 BIO      0.050033
     28 H113       -4.4020   -1.2320    6.7490 hc        1 BIO      0.050033
@<TRIPOS>BOND
     1    1    3 2   
     2    1    8 1   
     3    2    3 1   
     4    2   18 1   
     5    2   19 1   
     6    3    4 1   
     7    4    5 1   
     8    4   20 1   
     9    5    6 2   
    10    5    7 1   
    11    7    8 ar  
    12    7   12 ar  
    13    8    9 ar  
    14    9   10 ar  
    15   10   11 ar  
    16   10   21 1   
    17   11   12 ar  
    18   11   13 1   
    19   13   14 1   
    20   13   15 1   
    21   13   22 1   
    22   14   23 1   
    23   15   16 1   
    24   15   17 1   
    25   15   24 1   
    26   16   25 1   
    27   17   26 1   
    28   17   27 1   
    29   17   28 1   
@<TRIPOS>SUBSTRUCTURE
     1 BIO         1 TEMP              0 ****  ****    0 ROOT
