@<TRIPOS>MOLECULE
BIO
   28    29     1     0     0
SMALL
bcc


@<TRIPOS>ATOM
      1 N1          1.2450    0.1280   -2.7930 nc        1 BIO     -0.738700
      2 N2          0.4110    0.1910   -5.0100 nh        1 BIO     -0.894800
      3 C2          0.1830    0.1420   -3.6200 cd        1 BIO      0.693800
      4 N3         -1.1540    0.0530   -3.1850 n         1 BIO     -0.511400
      5 C4         -1.4760   -0.1340   -1.8270 c         1 BIO      0.622000
      6 O4         -2.6730   -0.2360   -1.5280 o         1 BIO     -0.579500
      7 C4A        -0.3250   -0.1790   -0.8920 ca        1 BIO      0.174500
      8 C8A         1.0080   -0.0500   -1.4310 ca        1 BIO      0.571000
      9 N8          2.0980   -0.0950   -0.5740 nb        1 BIO     -0.623000
     10 C7          1.8320   -0.2590    0.7170 ca        1 BIO      0.354900
     11 C6          0.5010   -0.3830    1.2450 ca        1 BIO      0.236300
     12 N5         -0.5670   -0.3430    0.4360 nb        1 BIO     -0.564000
     13 C9          0.3180   -0.5580    2.7370 c3        1 BIO      0.078800
     14 O9         -0.4270   -1.7180    3.0420 oh        1 BIO     -0.582800
     15 C10        -0.3280    0.7000    3.3630 c3        1 BIO      0.106100
     16 O10         0.5260    1.8200    3.2060 oh        1 BIO     -0.587800
     17 C11        -0.6590    0.4540    4.8220 c3        1 BIO     -0.128100
     18 HN21        1.3590    0.3510   -5.2780 hn        1 BIO      0.428300
     19 HN22       -0.2640    0.6840   -5.5490 hn        1 BIO      0.428300
     20 H3         -1.9040    0.0340   -3.8420 hn        1 BIO      0.338500
     21 H7          2.7070   -0.2950    1.3920 h4        1 BIO      0.038100
     22 H9          1.3240   -0.7440    3.2120 h1        1 BIO      0.077700
     23 HO9        -1.3120   -1.6110    2.6690 ho        1 BIO      0.420000
     24 H10        -1.2570    0.9790    2.7880 h1        1 BIO      0.094700
     25 HO1         1.2720    1.7010    3.8070 ho        1 BIO      0.396000
     26 H111       -1.1290    1.3650    5.2620 hc        1 BIO      0.049700
     27 H112       -1.3670   -0.4050    4.9100 hc        1 BIO      0.049700
     28 H113        0.2650    0.2110    5.3990 hc        1 BIO      0.049700
@<TRIPOS>BOND
     1    1    3 2   
     2    1    8 1   
     3    2    3 1   
     4    2   18 1   
     5    2   19 1   
     6    3    4 1   
     7    4    5 1   
     8    4   20 1   
     9    5    6 2   
    10    5    7 1   
    11    7    8 ar  
    12    7   12 ar  
    13    8    9 ar  
    14    9   10 ar  
    15   10   11 ar  
    16   10   21 1   
    17   11   12 ar  
    18   11   13 1   
    19   13   14 1   
    20   13   15 1   
    21   13   22 1   
    22   14   23 1   
    23   15   16 1   
    24   15   17 1   
    25   15   24 1   
    26   16   25 1   
    27   17   26 1   
    28   17   27 1   
    29   17   28 1   
@<TRIPOS>SUBSTRUCTURE
     1 BIO         1 TEMP              0 ****  ****    0 ROOT
