@<TRIPOS>MOLECULE
BIO
   29    30     1     0     0
SMALL
bcc


@<TRIPOS>ATOM
      1 N1          0.3180   -0.7310    0.0990 nc        1 BIO     -0.602700
      2 N2          2.1250   -0.2220   -1.3730 n4        1 BIO     -0.803600
      3 C2          1.4000    0.0050   -0.0740 cd        1 BIO      0.532800
      4 N3          1.9320    0.9500    0.8000 n         1 BIO     -0.511400
      5 C4          1.2790    1.1960    2.0470 c         1 BIO      0.621000
      6 O4          1.7820    2.0480    2.7750 o         1 BIO     -0.490500
      7 C4A         0.0620    0.3800    2.3010 ca        1 BIO      0.252500
      8 C8A        -0.3870   -0.5530    1.3080 ca        1 BIO      0.488000
      9 N8         -1.5280   -1.3040    1.5150 nb        1 BIO     -0.575000
     10 C7         -2.1510   -1.1200    2.6750 ca        1 BIO      0.345900
     11 C6         -1.6880   -0.2000    3.6900 ca        1 BIO      0.309300
     12 N5         -0.5930    0.5490    3.4820 nb        1 BIO     -0.577000
     13 C9         -2.4800   -0.0590    4.9820 c3        1 BIO      0.067800
     14 O9         -1.6960    0.4150    6.0540 oh        1 BIO     -0.566800
     15 C10        -3.0680   -1.4210    5.4420 c3        1 BIO      0.148100
     16 O10        -4.2050   -1.7150    4.6470 oh        1 BIO     -0.616800
     17 C11        -3.3960   -1.4060    6.9200 c3        1 BIO     -0.123100
     18 HN21        2.1510    0.6530   -1.9090 hn        1 BIO      0.485467
     19 HN22        3.0800   -0.5470   -1.1810 hn        1 BIO      0.485467
     20 H3          2.7580    1.4720    0.5960 hn        1 BIO      0.354500
     21 H7         -3.0750   -1.7220    2.8330 h4        1 BIO      0.101100
     22 H9         -3.3270    0.6560    4.7610 h1        1 BIO      0.068700
     23 HO9        -1.4170    1.3180    5.8470 ho        1 BIO      0.427000
     24 H10        -2.3350   -2.2440    5.2090 h1        1 BIO      0.083700
     25 HO1        -4.9750   -1.2970    5.0530 ho        1 BIO      0.421000
     26 H111       -3.8940   -2.3650    7.2020 hc        1 BIO      0.063033
     27 H112       -2.4590   -1.2880    7.5170 hc        1 BIO      0.063033
     28 H113       -4.0780   -0.5560    7.1630 hc        1 BIO      0.063033
     29 H23         1.6270   -0.9410   -1.9240 hn        1 BIO      0.485467
@<TRIPOS>BOND
     1    1    3 2   
     2    1    8 1   
     3    2    3 1   
     4    2   18 1   
     5    2   19 1   
     6    2   29 1   
     7    3    4 1   
     8    4    5 1   
     9    4   20 1   
    10    5    6 2   
    11    5    7 1   
    12    7    8 ar  
    13    7   12 ar  
    14    8    9 ar  
    15    9   10 ar  
    16   10   11 ar  
    17   10   21 1   
    18   11   12 ar  
    19   11   13 1   
    20   13   14 1   
    21   13   15 1   
    22   13   22 1   
    23   14   23 1   
    24   15   16 1   
    25   15   17 1   
    26   15   24 1   
    27   16   25 1   
    28   17   26 1   
    29   17   27 1   
    30   17   28 1   
@<TRIPOS>SUBSTRUCTURE
     1 BIO         1 TEMP              0 ****  ****    0 ROOT
