@<TRIPOS>MOLECULE
BIP
   23    23     1     0     0
SMALL
bcc


@<TRIPOS>ATOM
      1 C1          0.8320   -0.5420   -0.5460 c         1 BIP      0.916600
      2 O1          0.2120   -1.5870   -0.2070 o         1 BIP     -0.831800
      3 O2          0.8250   -0.0550   -1.7100 o         1 BIP     -0.831800
      4 C2          1.6710    0.1710    0.5670 c3        1 BIP     -0.193700
      5 C3          0.7530    0.4080    1.7350 c3        1 BIP      0.139500
      6 I           1.6810    0.8580    3.5540 i         1 BIP     -0.375900
      7 C           2.3050    1.4620    0.0720 c3        1 BIP     -0.032100
      8 C1'         3.6820    1.2620   -0.4600 ca        1 BIP     -0.049300
      9 C2'         3.8690    0.5400   -1.6480 ca        1 BIP     -0.129000
     10 C3'         5.1490    0.3670   -2.1680 ca        1 BIP     -0.147000
     11 C4'         6.2550    0.9110   -1.5120 ca        1 BIP     -0.156000
     12 C5'         6.0750    1.6270   -0.3300 ca        1 BIP     -0.147000
     13 C6'         4.7940    1.8020    0.1950 ca        1 BIP     -0.129000
     14 H2          2.4720   -0.5630    0.8540 hc        1 BIP      0.058700
     15 H31         0.1560   -0.5170    1.9220 h1        1 BIP      0.077200
     16 H32         0.0680    1.2600    1.5340 h1        1 BIP      0.077200
     17 H1          2.3330    2.2210    0.8990 hc        1 BIP      0.050700
     18 H2A         1.6600    1.8740   -0.7550 hc        1 BIP      0.050700
     19 H2'         2.9750    0.1130   -2.1470 ha        1 BIP      0.159000
     20 H3'         5.2880   -0.2030   -3.0970 ha        1 BIP      0.112500
     21 H4'         7.2640    0.7720   -1.9240 ha        1 BIP      0.107000
     22 H5'         6.9420    2.0530    0.1920 ha        1 BIP      0.112500
     23 H6'         4.6590    2.3620    1.1310 ha        1 BIP      0.159000
@<TRIPOS>BOND
     1    1    2 1   
     2    1    3 1   
     3    1    4 1   
     4    4    5 1   
     5    4    7 1   
     6    4   14 1   
     7    5    6 1   
     8    5   15 1   
     9    5   16 1   
    10    7    8 1   
    11    7   17 1   
    12    7   18 1   
    13    8    9 ar  
    14    8   13 ar  
    15    9   10 ar  
    16    9   19 1   
    17   10   11 ar  
    18   10   20 1   
    19   11   12 ar  
    20   11   21 1   
    21   12   13 ar  
    22   12   22 1   
    23   13   23 1   
@<TRIPOS>SUBSTRUCTURE
     1 BIP         1 TEMP              0 ****  ****    0 ROOT
