@<TRIPOS>MOLECULE
BIP
   23    20     1     0     0
SMALL
bcc


@<TRIPOS>ATOM
      1 C1         -2.1320   -1.5730   -0.6030 c1        1 BIP      0.336000
      2 O1         -3.0910   -1.1580   -1.3050 o         1 BIP     -0.567000
      3 O2         -1.7350   -2.7620   -0.7180 os        1 BIP     -0.568000
      4 C2         -1.4710   -0.6480    0.3950 c3        1 BIP     -0.185000
      5 C3         -2.4790   -0.2300    1.4420 c3        1 BIP     -0.255000
      6 I          -3.5270   -1.9260    2.1240 i         1 BIP     -0.034000
      7 C          -0.9510    0.5790   -0.3230 c3        1 BIP     -0.106000
      8 C1'         0.5620    0.5590   -0.3250 c2        1 BIP     -0.051000
      9 C2'         1.2420   -0.3030   -1.1710 c2        1 BIP     -0.118000
     10 C3'         2.6270   -0.2930   -1.2030 c1        1 BIP     -0.139000
     11 C4'         3.3330    0.5800   -0.3900 c1        1 BIP     -0.153000
     12 C5'         2.6530    1.4430    0.4550 c1        1 BIP     -0.153000
     13 C6'         1.2670    1.4320    0.4880 c1        1 BIP     -0.148000
     14 H2         -0.7280   -1.1110    0.8250 hc        1 BIP      0.100000
     15 H31        -3.1100    0.4070    1.0510 h1        1 BIP      0.108000
     16 H32        -2.0150    0.1900    2.1930 h1        1 BIP      0.108000
     17 H1         -1.2790    0.5810   -1.2450 hc        1 BIP      0.083000
     18 H2A        -1.2660    1.3830    0.1370 hc        1 BIP      0.083000
     19 H2'         0.7450   -0.9180   -1.7430 ha        1 BIP      0.209000
     20 H3'         3.1070   -0.9090   -1.7900 ha        1 BIP      0.121000
     21 H4'         4.3090    0.5870   -0.4130 ha        1 BIP      0.108000
     22 H5'         3.1500    2.0570    1.0280 ha        1 BIP      0.108000
     23 H6'         0.7890    2.0310    1.0920 ha        1 BIP      0.115000
@<TRIPOS>BOND
     1    1    2 1   
     2    1    4 1   
     3    4    5 1   
     4    4    7 1   
     5    4   14 1   
     6    5    6 1   
     7    5   15 1   
     8    5   16 1   
     9    7    8 1   
    10    7   17 1   
    11    7   18 1   
    12    8    9 1   
    13    8   13 1   
    14    9   10 1   
    15    9   19 1   
    16   10   20 1   
    17   11   12 1   
    18   11   21 1   
    19   12   22 1   
    20   13   23 1   
@<TRIPOS>SUBSTRUCTURE
     1 BIP         1 TEMP              0 ****  ****    0 ROOT
