@<TRIPOS>MOLECULE
BIP
   23    23     1     0     0
SMALL
bcc


@<TRIPOS>ATOM
      1 C1          1.6810    0.8830    0.1990 c         1 BIP      0.916600
      2 O1          1.5200    1.4130    1.3330 o         1 BIP     -0.831800
      3 O2          2.5630    1.2350   -0.6330 o         1 BIP     -0.831800
      4 C2          0.7000   -0.2760   -0.1810 c3        1 BIP     -0.193700
      5 C3          0.7500   -1.2860    0.9310 c3        1 BIP      0.139500
      6 I          -0.8140   -2.6750    0.9790 i         1 BIP     -0.375900
      7 C           1.0380   -0.8970   -1.5280 c3        1 BIP     -0.032100
      8 C1'         0.3010   -0.2650   -2.6570 ca        1 BIP     -0.049300
      9 C2'         0.5950    1.0560   -3.0260 ca        1 BIP     -0.129000
     10 C3'        -0.0700    1.6490   -4.0950 ca        1 BIP     -0.147000
     11 C4'        -1.0340    0.9350   -4.8080 ca        1 BIP     -0.156000
     12 C5'        -1.3320   -0.3770   -4.4450 ca        1 BIP     -0.147000
     13 C6'        -0.6680   -0.9750   -3.3740 ca        1 BIP     -0.129000
     14 H2         -0.3180    0.1960   -0.2240 hc        1 BIP      0.058700
     15 H31         1.6810   -1.8920    0.8760 h1        1 BIP      0.077200
     16 H32         0.7080   -0.7510    1.9110 h1        1 BIP      0.077200
     17 H1          2.1430   -0.7670   -1.7070 hc        1 BIP      0.050700
     18 H2A         0.8190   -1.9990   -1.5120 hc        1 BIP      0.050700
     19 H2'         1.3610    1.6040   -2.4390 ha        1 BIP      0.159000
     20 H3'         0.1640    2.6860   -4.3760 ha        1 BIP      0.112500
     21 H4'        -1.5580    1.4060   -5.6510 ha        1 BIP      0.107000
     22 H5'        -2.0930   -0.9420   -5.0010 ha        1 BIP      0.112500
     23 H6'        -0.9120   -2.0090   -3.0880 ha        1 BIP      0.159000
@<TRIPOS>BOND
     1    1    2 1   
     2    1    3 1   
     3    1    4 1   
     4    4    5 1   
     5    4    7 1   
     6    4   14 1   
     7    5    6 1   
     8    5   15 1   
     9    5   16 1   
    10    7    8 1   
    11    7   17 1   
    12    7   18 1   
    13    8    9 ar  
    14    8   13 ar  
    15    9   10 ar  
    16    9   19 1   
    17   10   11 ar  
    18   10   20 1   
    19   11   12 ar  
    20   11   21 1   
    21   12   13 ar  
    22   12   22 1   
    23   13   23 1   
@<TRIPOS>SUBSTRUCTURE
     1 BIP         1 TEMP              0 ****  ****    0 ROOT
