@<TRIPOS>MOLECULE
BIP
   23    23     1     0     0
SMALL
bcc


@<TRIPOS>ATOM
      1 C1          0.7620   -0.4620   -0.2930 c         1 BIP      0.916600
      2 O1          0.0780   -1.3650    0.2620 o         1 BIP     -0.831800
      3 O2          0.7900   -0.2520   -1.5370 o         1 BIP     -0.831800
      4 C2          1.6370    0.4340    0.6460 c3        1 BIP     -0.193700
      5 C3          0.7310    0.9810    1.7140 c3        1 BIP      0.139500
      6 I           1.6770    1.7760    3.4010 i         1 BIP     -0.375900
      7 C           2.3490    1.5420   -0.1160 c3        1 BIP     -0.032100
      8 C1'         3.7140    1.1490   -0.5640 ca        1 BIP     -0.049300
      9 C2'         3.8640    0.1680   -1.5560 ca        1 BIP     -0.129000
     10 C3'         5.1340   -0.1910   -2.0000 ca        1 BIP     -0.147000
     11 C4'         6.2670    0.4240   -1.4640 ca        1 BIP     -0.156000
     12 C5'         6.1240    1.3980   -0.4770 ca        1 BIP     -0.147000
     13 C6'         4.8540    1.7590   -0.0290 ca        1 BIP     -0.129000
     14 H2          2.3920   -0.2600    1.1050 hc        1 BIP      0.058700
     15 H31         0.0980    1.8040    1.3150 h1        1 BIP      0.077200
     16 H32         0.0780    0.1580    2.0950 h1        1 BIP      0.077200
     17 H1          1.7340    1.7930   -1.0260 hc        1 BIP      0.050700
     18 H2A         2.4180    2.4660    0.5200 hc        1 BIP      0.050700
     19 H2'         2.9490   -0.3100   -1.9610 ha        1 BIP      0.159000
     20 H3'         5.2430   -0.9620   -2.7750 ha        1 BIP      0.112500
     21 H4'         7.2670    0.1390   -1.8160 ha        1 BIP      0.107000
     22 H5'         7.0130    1.8810   -0.0490 ha        1 BIP      0.112500
     23 H6'         4.7470    2.5240    0.7550 ha        1 BIP      0.159000
@<TRIPOS>BOND
     1    1    2 1   
     2    1    3 1   
     3    1    4 1   
     4    4    5 1   
     5    4    7 1   
     6    4   14 1   
     7    5    6 1   
     8    5   15 1   
     9    5   16 1   
    10    7    8 1   
    11    7   17 1   
    12    7   18 1   
    13    8    9 ar  
    14    8   13 ar  
    15    9   10 ar  
    16    9   19 1   
    17   10   11 ar  
    18   10   20 1   
    19   11   12 ar  
    20   11   21 1   
    21   12   13 ar  
    22   12   22 1   
    23   13   23 1   
@<TRIPOS>SUBSTRUCTURE
     1 BIP         1 TEMP              0 ****  ****    0 ROOT
