@<TRIPOS>MOLECULE
BIR
   56    57     1     0     0
SMALL
bcc


@<TRIPOS>ATOM
      1 C3          3.7690   -1.0120   -0.3670 c3        1 BIR     -0.115100
      2 C2          2.7640   -0.3050    0.4960 c3        1 BIR     -0.114700
      3 N1          1.5170   -1.0570    0.7350 n4        1 BIR     -0.816600
      4 P4          2.3550    1.2130   -0.3810 p5        1 BIR      1.248400
      5 O6          0.9650    1.4240    0.1020 o         1 BIR     -0.844000
      6 O5          2.6830    1.0230   -1.8130 o         1 BIR     -0.844000
      7 C7          3.4670    2.3000    0.2580 c3        1 BIR     -0.386600
      8 C8          3.8530    3.3010   -0.8140 c3        1 BIR     -0.093700
      9 C10         5.0240    2.7840   -1.6520 c         1 BIR      0.567100
     10 O23         6.1150    2.4540   -1.1990 o         1 BIR     -0.473100
     11 N24         4.7420    2.6450   -3.1010 n4        1 BIR     -0.657800
     12 C25         5.9050    2.3080   -3.9820 c3        1 BIR     -0.045500
     13 C26         5.9240    0.8520   -4.3930 c3        1 BIR     -0.098100
     14 C27         5.8830    3.2360   -5.2780 c         1 BIR      0.930600
     15 O28         6.7550    2.9890   -6.1310 o         1 BIR     -0.780800
     16 O29         5.0040    4.1430   -5.2970 o         1 BIR     -0.780800
     17 C9          4.2370    4.6590   -0.2250 c3        1 BIR     -0.028100
     18 C11         4.7440    5.5830   -1.2760 ca        1 BIR     -0.130300
     19 C12         4.0180    5.7810   -2.4580 ca        1 BIR     -0.142000
     20 C13         4.5580    6.5240   -3.5010 ca        1 BIR     -0.095000
     21 C14         5.8190    7.1260   -3.3610 cp        1 BIR     -0.011000
     22 C15         6.5010    7.0070   -2.1440 ca        1 BIR     -0.095000
     23 C16         5.9730    6.2310   -1.1140 ca        1 BIR     -0.142000
     24 C17         6.4230    7.8160   -4.4990 cp        1 BIR     -0.062000
     25 C18         7.0210    9.0730   -4.3470 ca        1 BIR     -0.110000
     26 C19         7.5940    9.7110   -5.4450 ca        1 BIR     -0.137000
     27 C20         7.5820    9.0950   -6.6970 ca        1 BIR     -0.127000
     28 C21         6.9940    7.8400   -6.8510 ca        1 BIR     -0.137000
     29 C22         6.4120    7.1970   -5.7590 ca        1 BIR     -0.110000
     30 H31         3.3630   -1.1500   -1.4030 hc        1 BIR      0.071033
     31 H32         4.6670   -0.3490   -0.4490 hc        1 BIR      0.071033
     32 H33         4.0880   -1.9970    0.0490 hc        1 BIR      0.071033
     33 H2          3.2110   -0.0610    1.4960 hx        1 BIR      0.101700
     34 HN11        1.3760   -1.7710    0.0170 hn        1 BIR      0.455467
     35 HN12        0.7250   -0.3540    0.7020 hn        1 BIR      0.455467
     36 H71         3.0190    2.8620    1.1200 hc        1 BIR      0.103700
     37 H72         4.3930    1.8180    0.6610 hc        1 BIR      0.103700
     38 H8          2.9510    3.4540   -1.4800 hc        1 BIR      0.086700
     39 H24         4.3710    3.5600   -3.4620 hn        1 BIR      0.494800
     40 H25         6.8520    2.5620   -3.4260 hx        1 BIR      0.099700
     41 H261        4.9680    0.5500   -4.8870 hc        1 BIR      0.054700
     42 H262        6.7530    0.7320   -5.1370 hc        1 BIR      0.054700
     43 H263        6.1110    0.1810   -3.5220 hc        1 BIR      0.054700
     44 H91         3.3280    5.1000    0.2660 hc        1 BIR      0.066700
     45 H92         5.0150    4.5060    0.5700 hc        1 BIR      0.066700
     46 H12         3.0150    5.3410   -2.5730 ha        1 BIR      0.128500
     47 H13         4.0210    6.6000   -4.4610 ha        1 BIR      0.152000
     48 H15         7.4750    7.5020   -2.0150 ha        1 BIR      0.152000
     49 H16         6.5380    6.1120   -0.1770 ha        1 BIR      0.128500
     50 H18         7.0320    9.5570   -3.3600 ha        1 BIR      0.158500
     51 H19         8.0580   10.7000   -5.3230 ha        1 BIR      0.132500
     52 H20         8.0380    9.5990   -7.5610 ha        1 BIR      0.126000
     53 H21         6.9920    7.3460   -7.8340 ha        1 BIR      0.132500
     54 H22         5.9590    6.1910   -5.8740 ha        1 BIR      0.158500
     55 H131        1.5320   -1.5160    1.6430 hn        1 BIR      0.455467
     56 H242        3.9980    1.9290   -3.2070 hn        1 BIR      0.494800
@<TRIPOS>BOND
     1    1    2 1   
     2    1   30 1   
     3    1   31 1   
     4    1   32 1   
     5    2    3 1   
     6    2    4 1   
     7    2   33 1   
     8    3   34 1   
     9    3   35 1   
    10    3   55 1   
    11    4    5 1   
    12    4    6 1   
    13    4    7 1   
    14    7    8 1   
    15    7   36 1   
    16    7   37 1   
    17    8    9 1   
    18    8   17 1   
    19    8   38 1   
    20    9   10 2   
    21    9   11 1   
    22   11   12 1   
    23   11   39 1   
    24   11   56 1   
    25   12   13 1   
    26   12   14 1   
    27   12   40 1   
    28   13   41 1   
    29   13   42 1   
    30   13   43 1   
    31   14   15 1   
    32   14   16 1   
    33   17   18 1   
    34   17   44 1   
    35   17   45 1   
    36   18   19 ar  
    37   18   23 ar  
    38   19   20 ar  
    39   19   46 1   
    40   20   21 ar  
    41   20   47 1   
    42   21   22 ar  
    43   21   24 1   
    44   22   23 ar  
    45   22   48 1   
    46   23   49 1   
    47   24   25 ar  
    48   24   29 ar  
    49   25   26 ar  
    50   25   50 1   
    51   26   27 ar  
    52   26   51 1   
    53   27   28 ar  
    54   27   52 1   
    55   28   29 ar  
    56   28   53 1   
    57   29   54 1   
@<TRIPOS>SUBSTRUCTURE
     1 BIR         1 TEMP              0 ****  ****    0 ROOT
