@<TRIPOS>MOLECULE
BIR
   57    58     1     0     0
SMALL
bcc


@<TRIPOS>ATOM
      1 C3          1.1530   -0.2870   -0.6570 c3        1 BIR     -0.138100
      2 C2          2.5670    0.2210   -0.4280 c3        1 BIR     -0.159700
      3 N1          3.4290   -0.7620    0.2560 n4        1 BIR     -0.814600
      4 P4          2.3630    1.7060    0.3800 p5        1 BIR      1.472100
      5 O6          1.1490    2.4260    0.0420 o         1 BIR     -0.825300
      6 O5          2.3120    1.2190    1.9100 oh        1 BIR     -0.825400
      7 C7          3.7800    2.5320    0.2450 c3        1 BIR     -0.439600
      8 C8          3.8610    3.3480   -1.0290 c3        1 BIR     -0.100700
      9 C10         4.5990    2.6210   -2.1490 c         1 BIR      0.587100
     10 O23         4.0410    1.9510   -3.0100 o         1 BIR     -0.455100
     11 N24         6.0810    2.8270   -2.2700 n4        1 BIR     -0.640800
     12 C25         6.7980    1.5760   -2.7210 c3        1 BIR      0.004500
     13 C26         8.2990    1.7730   -2.7380 c3        1 BIR     -0.121100
     14 C27         6.4040    0.3680   -1.8190 c         1 BIR      0.932600
     15 O28         7.0460   -0.6890   -1.8750 o         1 BIR     -0.810800
     16 O29         5.3750    0.5560   -1.0770 o         1 BIR     -0.810800
     17 C9          4.4540    4.7290   -0.7560 c3        1 BIR     -0.046100
     18 C11         4.7570    5.4920   -1.9960 ca        1 BIR     -0.160300
     19 C12         3.7310    5.8600   -2.8750 ca        1 BIR     -0.140500
     20 C13         4.0140    6.6080   -4.0140 ca        1 BIR     -0.113500
     21 C14         5.3270    7.0140   -4.2950 cp        1 BIR      0.008000
     22 C15         6.3510    6.6590   -3.4010 ca        1 BIR     -0.113500
     23 C16         6.0680    5.9080   -2.2650 ca        1 BIR     -0.140500
     24 C17         5.6250    7.7990   -5.4890 cp        1 BIR     -0.076000
     25 C18         6.5520    8.8500   -5.4340 ca        1 BIR     -0.109500
     26 C19         6.8300    9.6000   -6.5750 ca        1 BIR     -0.125500
     27 C20         6.1910    9.3070   -7.7800 ca        1 BIR     -0.105000
     28 C21         5.2680    8.2630   -7.8410 ca        1 BIR     -0.125500
     29 C22         4.9820    7.5130   -6.7030 ca        1 BIR     -0.109500
     30 H31         0.6420   -0.4440    0.3250 hc        1 BIR      0.089367
     31 H32         0.5840    0.4980   -1.2230 hc        1 BIR      0.089367
     32 H33         1.1270   -1.2340   -1.2470 hc        1 BIR      0.089367
     33 H2          3.0480    0.3970   -1.4490 hx        1 BIR      0.173700
     34 HN11        4.4130   -0.7180   -0.1290 hn        1 BIR      0.474467
     35 HN12        3.0730   -1.7090    0.0970 hn        1 BIR      0.474467
     36 HO5         1.5730    1.4980    2.4500 ho        1 BIR      0.510000
     37 H71         3.8760    3.2410    1.1200 hc        1 BIR      0.148200
     38 H72         4.6990    1.8850    0.3380 hc        1 BIR      0.148200
     39 H8          2.8060    3.5030   -1.4270 hc        1 BIR      0.126700
     40 H24         6.4440    3.0950   -1.3510 hn        1 BIR      0.457300
     41 H25         6.4190    1.3430   -3.7600 hx        1 BIR      0.120700
     42 H261        8.6090    2.5270   -3.5000 hc        1 BIR      0.075367
     43 H262        8.6920    2.0750   -1.7370 hc        1 BIR      0.075367
     44 H263        8.7580    0.7810   -3.0000 hc        1 BIR      0.075367
     45 H91         3.7030    5.3090   -0.1490 hc        1 BIR      0.076700
     46 H92         5.3750    4.6310   -0.1190 hc        1 BIR      0.076700
     47 H12         2.6900    5.5720   -2.6560 ha        1 BIR      0.137000
     48 H13         3.1960    6.9010   -4.6930 ha        1 BIR      0.156500
     49 H15         7.3840    6.9880   -3.5990 ha        1 BIR      0.156500
     50 H16         6.8760    5.6820   -1.5510 ha        1 BIR      0.137000
     51 H18         7.0520    9.0930   -4.4840 ha        1 BIR      0.133500
     52 H19         7.5550   10.4270   -6.5230 ha        1 BIR      0.144500
     53 H20         6.4130    9.9010   -8.6800 ha        1 BIR      0.146000
     54 H21         4.7610    8.0310   -8.7910 ha        1 BIR      0.144500
     55 H22         4.2530    6.6910   -6.7580 ha        1 BIR      0.133500
     56 H131        3.4380   -0.5750    1.2630 hn        1 BIR      0.474467
     57 H242        6.2600    3.5940   -2.9330 hn        1 BIR      0.457300
@<TRIPOS>BOND
     1    1    2 1   
     2    1   30 1   
     3    1   31 1   
     4    1   32 1   
     5    2    3 1   
     6    2    4 1   
     7    2   33 1   
     8    3   34 1   
     9    3   35 1   
    10    3   56 1   
    11    4    5 2   
    12    4    6 1   
    13    4    7 1   
    14    6   36 1   
    15    7    8 1   
    16    7   37 1   
    17    7   38 1   
    18    8    9 1   
    19    8   17 1   
    20    8   39 1   
    21    9   10 2   
    22    9   11 1   
    23   11   12 1   
    24   11   40 1   
    25   11   57 1   
    26   12   13 1   
    27   12   14 1   
    28   12   41 1   
    29   13   42 1   
    30   13   43 1   
    31   13   44 1   
    32   14   15 1   
    33   14   16 1   
    34   17   18 1   
    35   17   45 1   
    36   17   46 1   
    37   18   19 ar  
    38   18   23 ar  
    39   19   20 ar  
    40   19   47 1   
    41   20   21 ar  
    42   20   48 1   
    43   21   22 ar  
    44   21   24 1   
    45   22   23 ar  
    46   22   49 1   
    47   23   50 1   
    48   24   25 ar  
    49   24   29 ar  
    50   25   26 ar  
    51   25   51 1   
    52   26   27 ar  
    53   26   52 1   
    54   27   28 ar  
    55   27   53 1   
    56   28   29 ar  
    57   28   54 1   
    58   29   55 1   
@<TRIPOS>SUBSTRUCTURE
     1 BIR         1 TEMP              0 ****  ****    0 ROOT
