@<TRIPOS>MOLECULE
BIR
   55    50     1     0     0
SMALL
bcc


@<TRIPOS>ATOM
      1 C3         -3.5540   -4.7370    1.3980 c3        1 BIR     -0.229000
      2 C2         -2.5510   -4.0700    2.2490 c3        1 BIR     -0.767000
      3 N1         -3.0990   -3.8970    3.5940 n3        1 BIR     -0.333000
      4 P4         -2.1440   -2.4180    1.5560 p5        1 BIR      2.830000
      5 O6         -2.1380   -2.4890    0.1350 o         1 BIR     -1.183000
      6 O5         -3.2480   -1.3370    2.0370 oh        1 BIR     -0.828000
      7 C7         -0.4940   -1.9000    2.1620 c3        1 BIR     -0.901000
      8 C8          0.0810   -0.8870    1.2310 c3        1 BIR     -0.107000
      9 C10         1.5480   -1.2470    0.9210 c2        1 BIR      0.287000
     10 O23         2.4610   -0.7790    1.6230 o         1 BIR     -0.391000
     11 N24         1.8660   -2.1860   -0.1670 n         1 BIR     -0.314000
     12 C25         3.2250   -2.5780   -0.3910 c3        1 BIR     -0.075000
     13 C26         3.4450   -3.9950    0.1480 c3        1 BIR     -0.201000
     14 C27         3.5240   -2.5460   -1.8610 c2        1 BIR      0.327000
     15 O28         4.5940   -1.9750   -2.2850 o         1 BIR     -0.576500
     16 O29         2.6590   -3.0010   -2.7040 o         1 BIR     -0.576500
     17 C9          0.0250    0.4760    1.8750 c3        1 BIR     -0.116000
     18 C11         0.0700    1.5690    0.7720 c2        1 BIR     -0.062000
     19 C12         1.1440    2.4820    0.7300 c2        1 BIR     -0.125000
     20 C13         1.1520    3.5170   -0.2050 c1        1 BIR     -0.126000
     21 C14         0.0880    3.6550   -1.1110 c1        1 BIR     -0.038500
     22 C15        -1.0020    2.7350   -1.0730 c1        1 BIR     -0.119500
     23 C16        -1.0090    1.7050   -0.1420 c1        1 BIR     -0.128000
     24 C17         0.1390    4.6800   -2.1390 c1        1 BIR     -0.038500
     25 C18        -0.3460    5.9880   -1.8660 c1        1 BIR     -0.133500
     26 C19        -0.2960    6.9750   -2.8570 c1        1 BIR     -0.133500
     27 C20         0.2240    6.6790   -4.1020 c1        1 BIR     -0.133500
     28 C21         0.7000    5.3970   -4.3710 c1        1 BIR     -0.133500
     29 C22         0.6500    4.3900   -3.3620 c1        1 BIR     -0.119500
     30 H31        -3.2450   -4.7400    0.4610 hc        1 BIR      0.088667
     31 H32        -3.6880   -5.7170    1.7190 hc        1 BIR      0.088667
     32 H33        -4.4210   -4.2460    1.4630 hc        1 BIR      0.088667
     33 H2         -1.6700   -4.6640    2.2900 h1        1 BIR      0.187000
     34 HN11       -2.5180   -4.2970    4.2390 hn        1 BIR      0.167000
     35 HN12       -3.9120   -4.2830    3.6380 hn        1 BIR      0.167000
     36 HO5        -3.9370   -1.3720    1.5130 ho        1 BIR      0.257000
     37 H71         0.0980   -2.6830    2.2090 hc        1 BIR      0.162000
     38 H72        -0.5880   -1.4780    3.1190 hc        1 BIR      0.162000
     39 H8         -0.4560   -0.8740    0.3700 hc        1 BIR      0.117000
     40 H24         1.1810   -2.5900   -0.6470 hn        1 BIR      0.213000
     41 H25         3.8160   -1.9640    0.0720 h1        1 BIR      0.090000
     42 H261        4.4000   -4.1540    0.2590 hc        1 BIR      0.077333
     43 H262        2.9610   -4.0960    1.0780 hc        1 BIR      0.077333
     44 H263        3.0640   -4.6720   -0.5080 hc        1 BIR      0.077333
     45 H91        -0.7720    0.5550    2.3650 hc        1 BIR      0.102000
     46 H92         0.8320    0.5940    2.5100 hc        1 BIR      0.102000
     47 H12         1.9140    2.3870    1.3810 ha        1 BIR      0.138000
     48 H13         1.8660    4.0810   -0.2520 ha        1 BIR      0.125000
     49 H15        -1.7990    2.8370   -1.7500 ha        1 BIR      0.135500
     50 H16        -1.7150    1.0220   -0.1700 ha        1 BIR      0.184000
     51 H18        -0.7820    6.2010   -0.9320 ha        1 BIR      0.126000
     52 H19        -0.6290    7.8680   -2.6730 ha        1 BIR      0.126000
     53 H20         0.2600    7.3940   -4.8190 ha        1 BIR      0.126000
     54 H21         1.0390    5.2060   -5.1820 ha        1 BIR      0.126000
     55 H22         0.9870    3.4790   -3.5530 ha        1 BIR      0.135500
@<TRIPOS>BOND
     1    1    2 1   
     2    1   30 1   
     3    1   31 1   
     4    1   32 1   
     5    2    3 1   
     6    2    4 1   
     7    2   33 1   
     8    3   34 1   
     9    3   35 1   
    10    4    5 1   
    11    4    6 1   
    12    4    7 1   
    13    6   36 1   
    14    7    8 1   
    15    7   37 1   
    16    7   38 1   
    17    8    9 1   
    18    8   17 1   
    19    8   39 1   
    20    9   10 1   
    21    9   11 1   
    22   11   12 1   
    23   11   40 1   
    24   12   13 1   
    25   12   14 1   
    26   12   41 1   
    27   13   42 1   
    28   13   43 1   
    29   13   44 1   
    30   14   15 1   
    31   14   16 1   
    32   17   18 1   
    33   17   45 1   
    34   17   46 1   
    35   18   19 1   
    36   18   23 1   
    37   19   20 1   
    38   19   47 1   
    39   20   48 1   
    40   21   22 1   
    41   22   49 1   
    42   23   50 1   
    43   24   29 1   
    44   25   26 1   
    45   25   51 1   
    46   26   52 1   
    47   27   28 1   
    48   27   53 1   
    49   28   54 1   
    50   29   55 1   
@<TRIPOS>SUBSTRUCTURE
     1 BIR         1 TEMP              0 ****  ****    0 ROOT
