@<TRIPOS>MOLECULE
BIR
   55    56     1     0     0
SMALL
bcc


@<TRIPOS>ATOM
      1 C3          4.3440    1.3740    2.4360 c3        1 BIR     -0.111100
      2 C2          4.0250    0.4800    1.2490 c3        1 BIR     -0.161700
      3 N1          5.1740   -0.1260    0.5920 n3        1 BIR     -0.900800
      4 P4          3.1800    1.4250    0.1780 p5        1 BIR      1.510100
      5 O6          2.0780    2.1910    0.7810 o         1 BIR     -0.912300
      6 O5          4.1500    2.6100   -0.3550 oh        1 BIR     -0.795400
      7 C7          2.7790    0.5580   -1.1640 c3        1 BIR     -0.414600
      8 C8          1.3560    0.0310   -1.0710 c3        1 BIR     -0.117700
      9 C10         1.3970   -1.4920   -1.3250 c         1 BIR      0.643100
     10 O23         1.2450   -1.9330   -2.4840 o         1 BIR     -0.630100
     11 N24         1.5480   -2.2930   -0.2120 n         1 BIR     -0.504900
     12 C25         2.2360   -3.5750   -0.2080 c3        1 BIR     -0.048300
     13 C26         2.7790   -4.0450   -1.5480 c3        1 BIR     -0.083100
     14 C27         3.4110   -3.5970    0.8350 c         1 BIR      0.907600
     15 O28         3.9960   -4.6940    1.0140 o         1 BIR     -0.841800
     16 O29         3.6980   -2.5240    1.4510 o         1 BIR     -0.841800
     17 C9          0.4100    0.7090   -2.0610 c3        1 BIR     -0.030100
     18 C11        -0.9490    0.9250   -1.4900 ca        1 BIR     -0.069300
     19 C12        -1.1230    1.7560   -0.3740 ca        1 BIR     -0.126500
     20 C13        -2.3970    1.9880    0.1350 ca        1 BIR     -0.122500
     21 C14        -3.5230    1.3970   -0.4590 cp        1 BIR     -0.061000
     22 C15        -3.3440    0.5630   -1.5700 ca        1 BIR     -0.122500
     23 C16        -2.0690    0.3270   -2.0780 ca        1 BIR     -0.126500
     24 C17        -4.8590    1.6450    0.0760 cp        1 BIR     -0.016000
     25 C18        -5.9500    1.8270   -0.7870 ca        1 BIR     -0.122500
     26 C19        -7.2240    2.0640   -0.2740 ca        1 BIR     -0.134000
     27 C20        -7.4260    2.1210    1.1050 ca        1 BIR     -0.141000
     28 C21        -6.3470    1.9400    1.9700 ca        1 BIR     -0.134000
     29 C22        -5.0720    1.7040    1.4620 ca        1 BIR     -0.122500
     30 H31         4.9760    2.2320    2.0990 hc        1 BIR      0.049367
     31 H32         3.3830    1.7760    2.8440 hc        1 BIR      0.049367
     32 H33         4.8800    0.8190    3.2410 hc        1 BIR      0.049367
     33 H2          3.3730   -0.3650    1.6530 h1        1 BIR      0.147700
     34 HN11        6.0210    0.1130    1.0760 hn        1 BIR      0.371800
     35 HN12        5.0910   -1.1360    0.6270 hn        1 BIR      0.371800
     36 HO5         3.8480    3.4820   -0.1160 ho        1 BIR      0.458000
     37 H71         2.8880    1.1840   -2.0900 hc        1 BIR      0.122700
     38 H72         3.4800   -0.3020   -1.3530 hc        1 BIR      0.122700
     39 H8          0.9650    0.2340   -0.0300 hc        1 BIR      0.077700
     40 H24         1.7380   -1.7980    0.6410 hn        1 BIR      0.299500
     41 H25         1.4760   -4.3320    0.1500 h1        1 BIR      0.050700
     42 H261        1.9530   -4.2350   -2.2730 hc        1 BIR      0.038033
     43 H262        3.4650   -3.2850   -1.9910 hc        1 BIR      0.038033
     44 H263        3.3510   -4.9900   -1.3740 hc        1 BIR      0.038033
     45 H91         0.8180    1.7130   -2.3570 hc        1 BIR      0.062700
     46 H92         0.3490    0.0880   -2.9970 hc        1 BIR      0.062700
     47 H12        -0.2410    2.2190    0.1090 ha        1 BIR      0.161000
     48 H13        -2.5220    2.6440    1.0090 ha        1 BIR      0.127500
     49 H15        -4.2150    0.0790   -2.0360 ha        1 BIR      0.127500
     50 H16        -1.9390   -0.3430   -2.9420 ha        1 BIR      0.161000
     51 H18        -5.7940    1.7860   -1.8750 ha        1 BIR      0.137000
     52 H19        -8.0710    2.2060   -0.9600 ha        1 BIR      0.124500
     53 H20        -8.4310    2.3070    1.5080 ha        1 BIR      0.122000
     54 H21        -6.5020    1.9810    3.0580 ha        1 BIR      0.124500
     55 H22        -4.2240    1.5550    2.1470 ha        1 BIR      0.137000
@<TRIPOS>BOND
     1    1    2 1   
     2    1   30 1   
     3    1   31 1   
     4    1   32 1   
     5    2    3 1   
     6    2    4 1   
     7    2   33 1   
     8    3   34 1   
     9    3   35 1   
    10    4    5 2   
    11    4    6 1   
    12    4    7 1   
    13    6   36 1   
    14    7    8 1   
    15    7   37 1   
    16    7   38 1   
    17    8    9 1   
    18    8   17 1   
    19    8   39 1   
    20    9   10 2   
    21    9   11 1   
    22   11   12 1   
    23   11   40 1   
    24   12   13 1   
    25   12   14 1   
    26   12   41 1   
    27   13   42 1   
    28   13   43 1   
    29   13   44 1   
    30   14   15 1   
    31   14   16 1   
    32   17   18 1   
    33   17   45 1   
    34   17   46 1   
    35   18   19 ar  
    36   18   23 ar  
    37   19   20 ar  
    38   19   47 1   
    39   20   21 ar  
    40   20   48 1   
    41   21   22 ar  
    42   21   24 1   
    43   22   23 ar  
    44   22   49 1   
    45   23   50 1   
    46   24   25 ar  
    47   24   29 ar  
    48   25   26 ar  
    49   25   51 1   
    50   26   27 ar  
    51   26   52 1   
    52   27   28 ar  
    53   27   53 1   
    54   28   29 ar  
    55   28   54 1   
    56   29   55 1   
@<TRIPOS>SUBSTRUCTURE
     1 BIR         1 TEMP              0 ****  ****    0 ROOT
