@<TRIPOS>MOLECULE
BIR
   56    57     1     0     0
SMALL
bcc


@<TRIPOS>ATOM
      1 C3          3.7670   -1.0210   -0.3870 c3        1 BIR     -0.115100
      2 C2          2.7720   -0.3150    0.4890 c3        1 BIR     -0.114700
      3 N1          1.5240   -1.0630    0.7330 nz        1 BIR     -0.816600
      4 P4          2.3620    1.2110   -0.3760 p5        1 BIR      1.248400
      5 O6          0.9780    1.4240    0.1200 o         1 BIR     -0.844000
      6 O5          2.6780    1.0280   -1.8120 o         1 BIR     -0.844000
      7 C7          3.4850    2.2890    0.2600 c3        1 BIR     -0.386600
      8 C8          3.8650    3.2950   -0.8080 c3        1 BIR     -0.093700
      9 C10         5.0280    2.7780   -1.6600 c         1 BIR      0.567100
     10 O23         6.1220    2.4410   -1.2180 o         1 BIR     -0.473100
     11 N24         4.7330    2.6480   -3.1070 ny        1 BIR     -0.657800
     12 C25         5.8870    2.3120   -4.0000 c3        1 BIR     -0.045500
     13 C26         5.8960    0.8590   -4.4200 c3        1 BIR     -0.098100
     14 C27         5.8590    3.2490   -5.2900 c         1 BIR      0.930600
     15 O28         6.7220    3.0030   -6.1520 o         1 BIR     -0.780800
     16 O29         4.9840    4.1590   -5.2950 o         1 BIR     -0.780800
     17 C9          4.2610    4.6470   -0.2150 c3        1 BIR     -0.028100
     18 C11         4.7620    5.5760   -1.2640 ca        1 BIR     -0.130300
     19 C12         4.0270    5.7830   -2.4390 ca        1 BIR     -0.142000
     20 C13         4.5610    6.5310   -3.4820 ca        1 BIR     -0.095000
     21 C14         5.8260    7.1270   -3.3490 cp        1 BIR     -0.011000
     22 C15         6.5170    6.9980   -2.1390 ca        1 BIR     -0.095000
     23 C16         5.9950    6.2180   -1.1090 ca        1 BIR     -0.142000
     24 C17         6.4230    7.8220   -4.4880 cp        1 BIR     -0.062000
     25 C18         7.0260    9.0760   -4.3330 ca        1 BIR     -0.110000
     26 C19         7.5930    9.7180   -5.4320 ca        1 BIR     -0.137000
     27 C20         7.5680    9.1100   -6.6880 ca        1 BIR     -0.127000
     28 C21         6.9740    7.8570   -6.8440 ca        1 BIR     -0.137000
     29 C22         6.3990    7.2100   -5.7510 ca        1 BIR     -0.110000
     30 H31         4.6670   -0.3610   -0.4720 hc        1 BIR      0.071033
     31 H32         3.3520   -1.1510   -1.4210 hc        1 BIR      0.071033
     32 H33         4.0850   -2.0100    0.0200 hc        1 BIR      0.071033
     33 H2          3.2290   -0.0790    1.4860 hx        1 BIR      0.101700
     34 HN11        0.7350   -0.3570    0.7110 hn        1 BIR      0.455467
     35 HN12        1.3740   -1.7720    0.0120 hn        1 BIR      0.455467
     36 H71         3.0470    2.8470    1.1300 hc        1 BIR      0.103700
     37 H72         4.4120    1.8010    0.6520 hc        1 BIR      0.103700
     38 H8          2.9590    3.4550   -1.4660 hc        1 BIR      0.086700
     39 H24         4.3630    3.5670   -3.4590 hn        1 BIR      0.494800
     40 H25         6.8400    2.5580   -3.4500 hx        1 BIR      0.099700
     41 H261        6.7180    0.7390   -5.1720 hc        1 BIR      0.054700
     42 H262        4.9340    0.5650   -4.9080 hc        1 BIR      0.054700
     43 H263        6.0860    0.1810   -3.5550 hc        1 BIR      0.054700
     44 H91         3.3570    5.0890    0.2870 hc        1 BIR      0.066700
     45 H92         5.0450    4.4870    0.5730 hc        1 BIR      0.066700
     46 H12         3.0210    5.3480   -2.5480 ha        1 BIR      0.128500
     47 H13         4.0160    6.6150   -4.4360 ha        1 BIR      0.152000
     48 H15         7.4950    7.4890   -2.0140 ha        1 BIR      0.152000
     49 H16         6.5670    6.0900   -0.1780 ha        1 BIR      0.128500
     50 H18         7.0470    9.5540   -3.3430 ha        1 BIR      0.158500
     51 H19         8.0610   10.7050   -5.3080 ha        1 BIR      0.132500
     52 H20         8.0190    9.6170   -7.5530 ha        1 BIR      0.126000
     53 H21         6.9620    7.3700   -7.8300 ha        1 BIR      0.132500
     54 H22         5.9410    6.2070   -5.8690 ha        1 BIR      0.158500
     55 H131        1.5450   -1.5280    1.6390 hn        1 BIR      0.455467
     56 H242        3.9850    1.9370   -3.2110 hn        1 BIR      0.494800
@<TRIPOS>BOND
     1    1    2 1   
     2    1   30 1   
     3    1   31 1   
     4    1   32 1   
     5    2    3 1   
     6    2    4 1   
     7    2   33 1   
     8    3   34 1   
     9    3   35 1   
    10    3   55 1   
    11    4    5 1   
    12    4    6 1   
    13    4    7 1   
    14    7    8 1   
    15    7   36 1   
    16    7   37 1   
    17    8    9 1   
    18    8   17 1   
    19    8   38 1   
    20    9   10 2   
    21    9   11 1   
    22   11   12 1   
    23   11   39 1   
    24   11   56 1   
    25   12   13 1   
    26   12   14 1   
    27   12   40 1   
    28   13   41 1   
    29   13   42 1   
    30   13   43 1   
    31   14   15 1   
    32   14   16 1   
    33   17   18 1   
    34   17   44 1   
    35   17   45 1   
    36   18   19 ar  
    37   18   23 ar  
    38   19   20 ar  
    39   19   46 1   
    40   20   21 ar  
    41   20   47 1   
    42   21   22 ar  
    43   21   24 1   
    44   22   23 ar  
    45   22   48 1   
    46   23   49 1   
    47   24   25 ar  
    48   24   29 ar  
    49   25   26 ar  
    50   25   50 1   
    51   26   27 ar  
    52   26   51 1   
    53   27   28 ar  
    54   27   52 1   
    55   28   29 ar  
    56   28   53 1   
    57   29   54 1   
@<TRIPOS>SUBSTRUCTURE
     1 BIR         1 TEMP              0 ****  ****    0 ROOT
