@<TRIPOS>MOLECULE
BIT
   38    41     1     0     0
SMALL
bcc


@<TRIPOS>ATOM
      1 O2          2.2040   -2.4930   -0.8810 o         1 BIT     -0.497100
      2 C4          1.7060   -1.5410   -0.2810 c         1 BIT      0.570700
      3 C5          2.3160   -0.2040   -0.1710 ca        1 BIT     -0.236600
      4 C6          3.6950   -0.0490   -0.3160 ca        1 BIT     -0.055000
      5 C7          4.2860    1.2110   -0.1970 ca        1 BIT     -0.104300
      6 C18         5.7520    1.3730   -0.3240 c3        1 BIT     -0.052800
      7 C8          3.4700    2.3220    0.0520 ca        1 BIT     -0.092000
      8 C10         1.4820    0.9240    0.0630 ca        1 BIT      0.189400
      9 C9          2.0920    2.1930    0.1760 ca        1 BIT     -0.123000
     10 C3          0.3820   -1.6530    0.4690 c3        1 BIT     -0.023500
     11 C11        -0.4480   -0.3580    0.2100 c2        1 BIT      0.628200
     12 N2          0.0750    0.8420    0.1000 ne        1 BIT     -0.641100
     13 O1          0.6280   -1.7980    1.8580 oh        1 BIT     -0.558800
     14 C2         -0.5520   -2.7980    0.0610 c3        1 BIT     -0.079400
     15 C1         -1.9440   -2.1520   -0.0790 c3        1 BIT      0.217800
     16 N1         -1.7900   -0.7110    0.0880 nh        1 BIT     -0.615000
     17 C12        -2.8790    0.1700   -0.0380 ca        1 BIT      0.166600
     18 C13        -4.0080   -0.1960   -0.8070 ca        1 BIT     -0.151500
     19 C14        -5.0960    0.6650   -0.9100 ca        1 BIT     -0.110000
     20 C15        -5.0910    1.8980   -0.2620 ca        1 BIT     -0.148000
     21 C16        -3.9860    2.2660    0.5020 ca        1 BIT     -0.110000
     22 C17        -2.8890    1.4180    0.6260 ca        1 BIT     -0.151500
     23 H6          4.3140   -0.9380   -0.5250 ha        1 BIT      0.151000
     24 H181        6.2190    1.4370    0.6920 hc        1 BIT      0.046700
     25 H182        6.2080    0.5080   -0.8650 hc        1 BIT      0.046700
     26 H183        6.0000    2.3100   -0.8810 hc        1 BIT      0.046700
     27 H8          3.9290    3.3190    0.1450 ha        1 BIT      0.137000
     28 H9          1.4710    3.0840    0.3550 ha        1 BIT      0.153000
     29 HO1         1.1680   -1.0440    2.1360 ho        1 BIT      0.417000
     30 H21        -0.5610   -3.5920    0.8480 hc        1 BIT      0.086200
     31 H22        -0.2110   -3.2470   -0.9030 hc        1 BIT      0.086200
     32 H11        -2.6510   -2.5390    0.7050 h1        1 BIT      0.058200
     33 H12        -2.3720   -2.3790   -1.0950 h1        1 BIT      0.058200
     34 H13        -4.0430   -1.1600   -1.3350 ha        1 BIT      0.143500
     35 H14        -5.9650    0.3640   -1.5140 ha        1 BIT      0.133500
     36 H15        -5.9530    2.5750   -0.3530 ha        1 BIT      0.134000
     37 H16        -3.9740    3.2370    1.0200 ha        1 BIT      0.133500
     38 H17        -2.0370    1.7360    1.2460 ha        1 BIT      0.143500
@<TRIPOS>BOND
     1    1    2 2   
     2    2    3 1   
     3    2   10 1   
     4    3    4 ar  
     5    3    8 ar  
     6    4    5 ar  
     7    4   23 1   
     8    5    6 1   
     9    5    7 ar  
    10    6   24 1   
    11    6   25 1   
    12    6   26 1   
    13    7    9 ar  
    14    7   27 1   
    15    8    9 ar  
    16    8   12 1   
    17    9   28 1   
    18   10   11 1   
    19   10   13 1   
    20   10   14 1   
    21   11   12 2   
    22   11   16 1   
    23   13   29 1   
    24   14   15 1   
    25   14   30 1   
    26   14   31 1   
    27   15   16 1   
    28   15   32 1   
    29   15   33 1   
    30   16   17 1   
    31   17   18 ar  
    32   17   22 ar  
    33   18   19 ar  
    34   18   34 1   
    35   19   20 ar  
    36   19   35 1   
    37   20   21 ar  
    38   20   36 1   
    39   21   22 ar  
    40   21   37 1   
    41   22   38 1   
@<TRIPOS>SUBSTRUCTURE
     1 BIT         1 TEMP              0 ****  ****    0 ROOT
