@<TRIPOS>MOLECULE
BIT
   38    41     1     0     0
SMALL
bcc


@<TRIPOS>ATOM
      1 O2         -0.0440    0.1000   -0.0050 o         1 BIT     -0.520100
      2 C4          1.1880    0.0530    0.0410 c         1 BIT      0.571700
      3 C5          1.9770    0.0190    1.2800 ca        1 BIT     -0.218600
      4 C6          1.3800    0.3790    2.4920 ca        1 BIT     -0.056000
      5 C7          2.1230    0.4020    3.6730 ca        1 BIT     -0.106300
      6 C18         1.4990    0.8020    4.9540 c3        1 BIT     -0.051800
      7 C8          3.4790    0.0490    3.6290 ca        1 BIT     -0.090000
      8 C10         3.3450   -0.3640    1.2380 ca        1 BIT      0.211400
      9 C9          4.0870   -0.3320    2.4400 ca        1 BIT     -0.124000
     10 C3          2.0210    0.1150   -1.2370 c3        1 BIT     -0.032500
     11 C11         3.3340   -0.7020   -1.0620 c2        1 BIT      0.677200
     12 N2          3.9660   -0.8590    0.0750 ne        1 BIT     -0.632100
     13 O1          2.4230    1.4590   -1.4630 oh        1 BIT     -0.559800
     14 C2          1.3730   -0.4840   -2.4940 c3        1 BIT     -0.111400
     15 C1          2.5090   -1.2550   -3.1970 c3        1 BIT      0.222800
     16 N1          3.6510   -1.2840   -2.2920 nh        1 BIT     -0.623000
     17 C12         4.8390   -1.9620   -2.6140 ca        1 BIT      0.171600
     18 C13         4.8260   -3.0170   -3.5550 ca        1 BIT     -0.154000
     19 C14         6.0080   -3.6710   -3.8920 ca        1 BIT     -0.109000
     20 C15         7.2170   -3.3010   -3.3090 ca        1 BIT     -0.150000
     21 C16         7.2410   -2.2580   -2.3850 ca        1 BIT     -0.109000
     22 C17         6.0740   -1.5840   -2.0380 ca        1 BIT     -0.154000
     23 H6          0.3110    0.6480    2.4990 ha        1 BIT      0.150000
     24 H181        1.8160    0.1160    5.7780 hc        1 BIT      0.045700
     25 H182        0.3830    0.7800    4.8850 hc        1 BIT      0.045700
     26 H183        1.8130    1.8410    5.2250 hc        1 BIT      0.045700
     27 H8          4.0720    0.0710    4.5570 ha        1 BIT      0.136000
     28 H9          5.1510   -0.6170    2.4340 ha        1 BIT      0.153000
     29 HO1         1.6100    1.9730   -1.5650 ho        1 BIT      0.416000
     30 H21         0.9740    0.3190   -3.1580 hc        1 BIT      0.077200
     31 H22         0.5340   -1.1670   -2.2140 hc        1 BIT      0.077200
     32 H11         2.1750   -2.3030   -3.4320 h1        1 BIT      0.057200
     33 H12         2.8080   -0.7490   -4.1550 h1        1 BIT      0.057200
     34 H13         3.8890   -3.3380   -4.0320 ha        1 BIT      0.144000
     35 H14         5.9790   -4.4910   -4.6250 ha        1 BIT      0.133000
     36 H15         8.1450   -3.8260   -3.5770 ha        1 BIT      0.133000
     37 H16         8.1930   -1.9560   -1.9220 ha        1 BIT      0.133000
     38 H17         6.1290   -0.7570   -1.3140 ha        1 BIT      0.144000
@<TRIPOS>BOND
     1    1    2 2   
     2    2    3 1   
     3    2   10 1   
     4    3    4 ar  
     5    3    8 ar  
     6    4    5 ar  
     7    4   23 1   
     8    5    6 1   
     9    5    7 ar  
    10    6   24 1   
    11    6   25 1   
    12    6   26 1   
    13    7    9 ar  
    14    7   27 1   
    15    8    9 ar  
    16    8   12 1   
    17    9   28 1   
    18   10   11 1   
    19   10   13 1   
    20   10   14 1   
    21   11   12 2   
    22   11   16 1   
    23   13   29 1   
    24   14   15 1   
    25   14   30 1   
    26   14   31 1   
    27   15   16 1   
    28   15   32 1   
    29   15   33 1   
    30   16   17 1   
    31   17   18 ar  
    32   17   22 ar  
    33   18   19 ar  
    34   18   34 1   
    35   19   20 ar  
    36   19   35 1   
    37   20   21 ar  
    38   20   36 1   
    39   21   22 ar  
    40   21   37 1   
    41   22   38 1   
@<TRIPOS>SUBSTRUCTURE
     1 BIT         1 TEMP              0 ****  ****    0 ROOT
