@<TRIPOS>MOLECULE
BIT
   38    36     1     0     0
SMALL
bcc


@<TRIPOS>ATOM
      1 O2         -3.5750   -0.3300    0.4400 o         1 BIT     -0.258000
      2 C4         -2.3610   -0.3430    0.4340 c1        1 BIT      0.262000
      3 C5         -1.5850   -0.3300    1.7600 c1        1 BIT     -0.219000
      4 C6         -2.2470   -0.5450    2.9540 c2        1 BIT     -0.054000
      5 C7         -1.5260   -0.5750    4.1650 c1        1 BIT     -0.099000
      6 C18        -2.2410   -0.8810    5.4610 c2        1 BIT     -0.177000
      7 C8         -0.1060   -0.3830    4.1600 c2        1 BIT     -0.092000
      8 C10        -0.1300   -0.1330    1.7550 c1        1 BIT      0.052000
      9 C9          0.5730   -0.1640    2.9440 c1        1 BIT     -0.125000
     10 C3         -1.6100   -0.1920   -0.8710 c3        1 BIT      0.028000
     11 C11        -0.0550   -0.2590   -0.8450 c2        1 BIT      0.116000
     12 N2          0.6450   -0.0460    0.3980 n2        1 BIT     -0.219000
     13 O1         -2.0800   -1.1680   -1.7690 oh        1 BIT     -0.288000
     14 C2         -1.9070    1.0690   -1.3920 c3        1 BIT     -0.156000
     15 C1         -0.6790    1.4020   -2.3140 c3        1 BIT     -0.019000
     16 N1          0.3810    0.3220   -1.9750 n3        1 BIT     -0.225000
     17 C12         1.7010    0.2580   -2.4910 c2        1 BIT      0.077000
     18 C13         2.0920   -0.8260   -3.2620 c2        1 BIT     -0.161000
     19 C14         3.3710   -0.8720   -3.7940 c1        1 BIT     -0.114000
     20 C15         4.2590    0.1650   -3.5550 c1        1 BIT     -0.129000
     21 C16         3.8680    1.2480   -2.7840 c1        1 BIT     -0.129000
     22 C17         2.5890    1.2950   -2.2520 c1        1 BIT     -0.128000
     23 H6         -3.2120   -0.6950    2.9570 ha        1 BIT      0.151000
     24 H181       -3.1270   -0.4630    5.4520 ha        1 BIT      0.086000
     25 H182       -2.3390   -1.8520    5.5580 ha        1 BIT      0.086000
     26 H183       -1.7200   -0.5280    6.2120 ha        1 BIT      0.086000
     27 H8          0.3910   -0.4050    4.9990 ha        1 BIT      0.137000
     28 H9          1.5400   -0.0330    2.9430 ha        1 BIT      0.153000
     29 HO1        -2.0960   -1.9610   -1.3640 ho        1 BIT      0.217000
     30 H21        -1.9180    1.7120   -0.6530 hc        1 BIT      0.125500
     31 H22        -2.7030    0.9890   -1.9580 hc        1 BIT      0.125500
     32 H11        -0.9540    1.2780   -3.2450 h1        1 BIT      0.098000
     33 H12        -0.3230    2.2730   -2.0450 h1        1 BIT      0.098000
     34 H13         1.4660   -1.5560   -3.4300 ha        1 BIT      0.134000
     35 H14         3.6470   -1.6360   -4.3380 ha        1 BIT      0.133000
     36 H15         5.1600    0.1320   -3.9300 ha        1 BIT      0.134500
     37 H16         4.4940    1.9790   -2.6160 ha        1 BIT      0.134500
     38 H17         2.3140    2.0580   -1.7080 ha        1 BIT      0.160000
@<TRIPOS>BOND
     1    1    2 1   
     2    2   10 1   
     3    3    4 1   
     4    3    8 1   
     5    4    5 1   
     6    4   23 1   
     7    5    7 1   
     8    6   24 1   
     9    6   25 1   
    10    6   26 1   
    11    7    9 1   
    12    7   27 1   
    13    8   12 1   
    14    9   28 1   
    15   10   11 1   
    16   10   13 1   
    17   10   14 1   
    18   11   12 1   
    19   11   16 1   
    20   13   29 1   
    21   14   15 1   
    22   14   30 1   
    23   14   31 1   
    24   15   16 1   
    25   15   32 1   
    26   15   33 1   
    27   16   17 1   
    28   17   18 1   
    29   17   22 1   
    30   18   19 1   
    31   18   34 1   
    32   19   35 1   
    33   20   21 1   
    34   20   36 1   
    35   21   37 1   
    36   22   38 1   
@<TRIPOS>SUBSTRUCTURE
     1 BIT         1 TEMP              0 ****  ****    0 ROOT
