@<TRIPOS>MOLECULE
BIT
   38    41     1     0     0
SMALL
bcc


@<TRIPOS>ATOM
      1 O2         -0.0440    0.1010   -0.0060 o         1 BIT     -0.520100
      2 C4          1.1890    0.0530    0.0410 c         1 BIT      0.571700
      3 C5          1.9760    0.0180    1.2810 ca        1 BIT     -0.218600
      4 C6          1.3780    0.3760    2.4920 ca        1 BIT     -0.056000
      5 C7          2.1200    0.3970    3.6740 ca        1 BIT     -0.106300
      6 C18         1.4940    0.7960    4.9550 c3        1 BIT     -0.051800
      7 C8          3.4760    0.0440    3.6310 ca        1 BIT     -0.090000
      8 C10         3.3450   -0.3660    1.2390 ca        1 BIT      0.210400
      9 C9          4.0850   -0.3350    2.4420 ca        1 BIT     -0.124000
     10 C3          2.0220    0.1160   -1.2360 c3        1 BIT     -0.032500
     11 C11         3.3350   -0.7010   -1.0610 c2        1 BIT      0.677200
     12 N2          3.9660   -0.8600    0.0760 ne        1 BIT     -0.632100
     13 O1          2.4250    1.4610   -1.4600 oh        1 BIT     -0.559800
     14 C2          1.3760   -0.4810   -2.4940 c3        1 BIT     -0.111400
     15 C1          2.5110   -1.2510   -3.1980 c3        1 BIT      0.222800
     16 N1          3.6540   -1.2800   -2.2920 nh        1 BIT     -0.623000
     17 C12         4.8410   -1.9590   -2.6130 ca        1 BIT      0.171600
     18 C13         4.8290   -3.0130   -3.5560 ca        1 BIT     -0.154000
     19 C14         6.0100   -3.6670   -3.8930 ca        1 BIT     -0.109000
     20 C15         7.2190   -3.2980   -3.3080 ca        1 BIT     -0.150000
     21 C16         7.2420   -2.2570   -2.3820 ca        1 BIT     -0.109000
     22 C17         6.0750   -1.5830   -2.0360 ca        1 BIT     -0.154000
     23 H6          0.3090    0.6450    2.4990 ha        1 BIT      0.150000
     24 H181        1.7970    1.8400    5.2200 hc        1 BIT      0.045700
     25 H182        0.3790    0.7600    4.8890 hc        1 BIT      0.045700
     26 H183        1.8210    0.1170    5.7810 hc        1 BIT      0.045700
     27 H8          4.0680    0.0650    4.5600 ha        1 BIT      0.136000
     28 H9          5.1490   -0.6210    2.4360 ha        1 BIT      0.153000
     29 HO1         1.6120    1.9760   -1.5630 ho        1 BIT      0.416000
     30 H21         0.5370   -1.1640   -2.2160 hc        1 BIT      0.077200
     31 H22         0.9770    0.3240   -3.1580 hc        1 BIT      0.077200
     32 H11         2.8120   -0.7440   -4.1550 h1        1 BIT      0.057200
     33 H12         2.1780   -2.2990   -3.4340 h1        1 BIT      0.057200
     34 H13         3.8920   -3.3330   -4.0340 ha        1 BIT      0.144000
     35 H14         5.9810   -4.4860   -4.6270 ha        1 BIT      0.133000
     36 H15         8.1470   -3.8240   -3.5750 ha        1 BIT      0.133000
     37 H16         8.1940   -1.9560   -1.9170 ha        1 BIT      0.133000
     38 H17         6.1310   -0.7570   -1.3100 ha        1 BIT      0.144000
@<TRIPOS>BOND
     1    1    2 2   
     2    2    3 1   
     3    2   10 1   
     4    3    4 ar  
     5    3    8 ar  
     6    4    5 ar  
     7    4   23 1   
     8    5    6 1   
     9    5    7 ar  
    10    6   24 1   
    11    6   25 1   
    12    6   26 1   
    13    7    9 ar  
    14    7   27 1   
    15    8    9 ar  
    16    8   12 1   
    17    9   28 1   
    18   10   11 1   
    19   10   13 1   
    20   10   14 1   
    21   11   12 2   
    22   11   16 1   
    23   13   29 1   
    24   14   15 1   
    25   14   30 1   
    26   14   31 1   
    27   15   16 1   
    28   15   32 1   
    29   15   33 1   
    30   16   17 1   
    31   17   18 ar  
    32   17   22 ar  
    33   18   19 ar  
    34   18   34 1   
    35   19   20 ar  
    36   19   35 1   
    37   20   21 ar  
    38   20   36 1   
    39   21   22 ar  
    40   21   37 1   
    41   22   38 1   
@<TRIPOS>SUBSTRUCTURE
     1 BIT         1 TEMP              0 ****  ****    0 ROOT
