@<TRIPOS>MOLECULE
BIT
   38    41     1     0     0
SMALL
bcc


@<TRIPOS>ATOM
      1 O2         -0.0440    0.0980   -0.0040 o         1 BIT     -0.520100
      2 C4          1.1880    0.0510    0.0440 c         1 BIT      0.571700
      3 C5          1.9760    0.0120    1.2840 ca        1 BIT     -0.218600
      4 C6          1.3770    0.3660    2.4960 ca        1 BIT     -0.056000
      5 C7          2.1180    0.3840    3.6780 ca        1 BIT     -0.106300
      6 C18         1.4920    0.7800    4.9600 c3        1 BIT     -0.051800
      7 C8          3.4740    0.0310    3.6340 ca        1 BIT     -0.090000
      8 C10         3.3440   -0.3720    1.2410 ca        1 BIT      0.210400
      9 C9          4.0830   -0.3450    2.4450 ca        1 BIT     -0.124000
     10 C3          2.0220    0.1180   -1.2330 c3        1 BIT     -0.032500
     11 C11         3.3350   -0.7000   -1.0600 c2        1 BIT      0.677200
     12 N2          3.9660   -0.8620    0.0770 ne        1 BIT     -0.632100
     13 O1          2.4250    1.4630   -1.4530 oh        1 BIT     -0.559800
     14 C2          1.3770   -0.4750   -2.4940 c3        1 BIT     -0.111400
     15 C1          2.5120   -1.2430   -3.1990 c3        1 BIT      0.222800
     16 N1          3.6540   -1.2760   -2.2920 nh        1 BIT     -0.623000
     17 C12         4.8420   -1.9520   -2.6160 ca        1 BIT      0.171600
     18 C13         4.8310   -3.0020   -3.5630 ca        1 BIT     -0.154000
     19 C14         6.0130   -3.6540   -3.9020 ca        1 BIT     -0.109000
     20 C15         7.2220   -3.2870   -3.3150 ca        1 BIT     -0.150000
     21 C16         7.2440   -2.2490   -2.3850 ca        1 BIT     -0.109000
     22 C17         6.0760   -1.5780   -2.0360 ca        1 BIT     -0.154000
     23 H6          0.3080    0.6360    2.5030 ha        1 BIT      0.150000
     24 H181        1.8180    0.0990    5.7840 hc        1 BIT      0.045700
     25 H182        1.7960    1.8230    5.2280 hc        1 BIT      0.045700
     26 H183        0.3770    0.7460    4.8930 hc        1 BIT      0.045700
     27 H8          4.0660    0.0490    4.5630 ha        1 BIT      0.136000
     28 H9          5.1470   -0.6310    2.4390 ha        1 BIT      0.153000
     29 HO1         1.6130    1.9780   -1.5540 ho        1 BIT      0.416000
     30 H21         0.9780    0.3320   -3.1550 hc        1 BIT      0.077200
     31 H22         0.5370   -1.1590   -2.2180 hc        1 BIT      0.077200
     32 H11         2.1790   -2.2900   -3.4390 h1        1 BIT      0.057200
     33 H12         2.8140   -0.7330   -4.1540 h1        1 BIT      0.057200
     34 H13         3.8940   -3.3200   -4.0430 ha        1 BIT      0.144000
     35 H14         5.9850   -4.4700   -4.6400 ha        1 BIT      0.133000
     36 H15         8.1500   -3.8100   -3.5840 ha        1 BIT      0.133000
     37 H16         8.1950   -1.9500   -1.9190 ha        1 BIT      0.133000
     38 H17         6.1300   -0.7550   -1.3070 ha        1 BIT      0.144000
@<TRIPOS>BOND
     1    1    2 2   
     2    2    3 1   
     3    2   10 1   
     4    3    4 ar  
     5    3    8 ar  
     6    4    5 ar  
     7    4   23 1   
     8    5    6 1   
     9    5    7 ar  
    10    6   24 1   
    11    6   25 1   
    12    6   26 1   
    13    7    9 ar  
    14    7   27 1   
    15    8    9 ar  
    16    8   12 1   
    17    9   28 1   
    18   10   11 1   
    19   10   13 1   
    20   10   14 1   
    21   11   12 2   
    22   11   16 1   
    23   13   29 1   
    24   14   15 1   
    25   14   30 1   
    26   14   31 1   
    27   15   16 1   
    28   15   32 1   
    29   15   33 1   
    30   16   17 1   
    31   17   18 ar  
    32   17   22 ar  
    33   18   19 ar  
    34   18   34 1   
    35   19   20 ar  
    36   19   35 1   
    37   20   21 ar  
    38   20   36 1   
    39   21   22 ar  
    40   21   37 1   
    41   22   38 1   
@<TRIPOS>SUBSTRUCTURE
     1 BIT         1 TEMP              0 ****  ****    0 ROOT
