@<TRIPOS>MOLECULE
BIU
   21    20     1     0     0
SMALL
bcc


@<TRIPOS>ATOM
      1 N           1.9250    1.9310    0.4760 n3        1 BIU     -0.892800
      2 CA          2.1570    0.4910    0.4360 c3        1 BIU      0.023500
      3 CB          1.0220   -0.2880   -0.2600 c3        1 BIU     -0.043700
      4 CG2         1.1990   -1.7700    0.0070 c3        1 BIU     -0.102100
      5 CG1        -0.3540    0.1850    0.1980 c3        1 BIU     -0.075400
      6 CD1        -1.4460   -0.6490   -0.4210 c3        1 BIU      0.019000
      7 C           3.5040    0.1260   -0.2780 c         1 BIU      0.884600
      8 O           3.8530    0.8350   -1.2640 o         1 BIU     -0.840300
      9 BR         -3.2340    0.0060   -0.0510 br        1 BIU     -0.243400
     10 HN          2.7370    2.3540    0.8890 hn        1 BIU      0.332300
     11 HNA         1.8820    2.2640   -0.4730 hn        1 BIU      0.332300
     12 HA          2.2210    0.1340    1.5040 h1        1 BIU      0.044700
     13 HB          1.1140   -0.1050   -1.3670 hc        1 BIU      0.051700
     14 HG2         0.8740   -2.0250    1.0440 hc        1 BIU      0.035700
     15 HG2A        0.5940   -2.3720   -0.7130 hc        1 BIU      0.035700
     16 HG2B        2.2790   -2.0500   -0.1030 hc        1 BIU      0.035700
     17 HG1        -0.4090    0.1290    1.3170 hc        1 BIU      0.056200
     18 HG1A       -0.4940    1.2600   -0.0910 hc        1 BIU      0.056200
     19 HD1        -1.3520   -0.6670   -1.5310 h1        1 BIU      0.065700
     20 HD1A       -1.4270   -1.6920   -0.0280 h1        1 BIU      0.065700
     21 OXT         4.1710   -0.8420    0.1820 o         1 BIU     -0.840300
@<TRIPOS>BOND
     1    1    2 1   
     2    1   10 1   
     3    1   11 1   
     4    2    3 1   
     5    2    7 1   
     6    2   12 1   
     7    3    4 1   
     8    3    5 1   
     9    3   13 1   
    10    4   14 1   
    11    4   15 1   
    12    4   16 1   
    13    5    6 1   
    14    5   17 1   
    15    5   18 1   
    16    6    9 1   
    17    6   19 1   
    18    6   20 1   
    19    7    8 1   
    20    7   21 1   
@<TRIPOS>SUBSTRUCTURE
     1 BIU         1 TEMP              0 ****  ****    0 ROOT
