@<TRIPOS>MOLECULE
BIV
   90    92     1     0     0
SMALL
bcc


@<TRIPOS>ATOM
      1 O2         -0.2390    1.1590    0.5180 oh        1 BIV     -0.599800
      2 O3         14.7800   -4.7440    3.3890 oh        1 BIV     -0.593800
      3 C1          3.2600    2.4450   -0.0400 c3        1 BIV      0.186300
      4 C2          1.7420    2.4960    0.0950 c3        1 BIV     -0.146400
      5 C3          1.1670    1.1020    0.3100 c3        1 BIV      0.146100
      6 C4          1.7610    0.4610    1.5620 c3        1 BIV     -0.035200
      7 C5          3.2510    0.4290    1.4870 ce        1 BIV     -0.074200
      8 C6          3.9200   -0.7030    1.7890 cf        1 BIV     -0.108000
      9 C7          5.3540   -0.8620    1.7190 cf        1 BIV     -0.150000
     10 C8          6.0770   -1.7710    2.3960 c2        1 BIV     -0.081400
     11 C9          5.5260   -2.7110    3.4180 c3        1 BIV     -0.044200
     12 C10         3.8940    1.6820    1.0960 ce        1 BIV     -0.069200
     13 C11         6.0390   -4.1340    3.2770 c3        1 BIV     -0.073400
     14 C12         7.5360   -4.2370    3.0420 c3        1 BIV     -0.067400
     15 C13         7.9650   -3.3450    1.8850 c3        1 BIV     -0.039000
     16 C14         7.5530   -1.8960    2.2750 c3        1 BIV     -0.036500
     17 C15         8.3350   -1.0150    1.3130 c3        1 BIV     -0.075400
     18 C16         9.6400   -1.7750    1.0730 c3        1 BIV     -0.078400
     19 C17         9.4910   -3.1820    1.6890 c3        1 BIV     -0.054700
     20 C18         7.2980   -3.7770    0.5920 c3        1 BIV     -0.083100
     21 C19         4.9810    2.1680    1.7090 c2        1 BIV     -0.193000
     22 C20        10.2160   -4.2300    0.8480 c3        1 BIV     -0.048700
     23 C22        11.6800   -3.8490    0.6430 c3        1 BIV     -0.076900
     24 C23        12.4970   -3.7830    1.9160 c3        1 BIV     -0.079900
     25 C24        13.9360   -3.4290    1.6100 c3        1 BIV     -0.063400
     26 C25        14.8300   -3.4200    2.8550 c3        1 BIV      0.147800
     27 C26        14.3420   -2.4210    3.8960 c3        1 BIV     -0.123350
     28 C27        16.2630   -3.0840    2.4490 c3        1 BIV     -0.123350
     29 O1          3.6560    1.8080   -1.2520 oh        1 BIV     -0.588800
     30 C21        10.0780   -5.6250    1.4410 c3        1 BIV     -0.076900
     31 C28        10.8380   -6.6800    0.6630 c3        1 BIV     -0.079900
     32 C29        10.3860   -8.0690    1.0600 c3        1 BIV     -0.063400
     33 C30        11.2240   -9.1790    0.4170 c3        1 BIV      0.147800
     34 O4         12.5520   -9.0140    0.9180 oh        1 BIV     -0.593800
     35 C32        10.6810  -10.5400    0.8470 c3        1 BIV     -0.123350
     36 C33        11.2240   -9.0790   -1.1030 c3        1 BIV     -0.123350
     37 HO2        -0.6210    1.5480   -0.2770 ho        1 BIV      0.398000
     38 HO3        15.3480   -4.7500    4.1680 ho        1 BIV      0.395000
     39 H1          3.6560    3.5040   -0.0530 h1        1 BIV      0.034700
     40 H21         1.4700    3.1490    0.9640 hc        1 BIV      0.052700
     41 H22         1.2960    2.9500   -0.8280 hc        1 BIV      0.052700
     42 H3          1.3910    0.4630   -0.5910 h1        1 BIV      0.048700
     43 H41         1.4440    1.0520    2.4630 hc        1 BIV      0.062200
     44 H42         1.3370   -0.5720    1.6750 hc        1 BIV      0.062200
     45 H6          3.3430   -1.5990    2.0820 ha        1 BIV      0.124000
     46 H7          5.8670   -0.1650    1.0280 ha        1 BIV      0.137000
     47 H91         4.4050   -2.7320    3.3820 hc        1 BIV      0.046700
     48 H92         5.8140   -2.3160    4.4320 hc        1 BIV      0.046700
     49 H111        5.5020   -4.6340    2.4270 hc        1 BIV      0.040200
     50 H112        5.7800   -4.7010    4.2100 hc        1 BIV      0.040200
     51 H121        8.0870   -3.9300    3.9700 hc        1 BIV      0.042700
     52 H122        7.7960   -5.3070    2.8390 hc        1 BIV      0.042700
     53 H14         7.9690   -1.6980    3.3100 hc        1 BIV      0.052700
     54 H151        7.7810   -0.8790    0.3500 hc        1 BIV      0.045700
     55 H152        8.5220   -0.0040    1.7470 hc        1 BIV      0.045700
     56 H161       10.5050   -1.2450    1.5420 hc        1 BIV      0.041700
     57 H162        9.8370   -1.8450   -0.0260 hc        1 BIV      0.041700
     58 H17         9.9570   -3.1830    2.7140 hc        1 BIV      0.048700
     59 H181        7.7060   -3.1920   -0.2690 hc        1 BIV      0.037700
     60 H182        6.1960   -3.6000    0.6400 hc        1 BIV      0.037700
     61 H183        7.4760   -4.8630    0.4030 hc        1 BIV      0.037700
     62 H191        5.4520    1.6530    2.5570 ha        1 BIV      0.120000
     63 H192        5.4560    3.1090    1.4030 ha        1 BIV      0.120000
     64 H20         9.7400   -4.2460   -0.1760 hc        1 BIV      0.045700
     65 H221       12.1470   -4.5970   -0.0530 hc        1 BIV      0.039950
     66 H222       11.7320   -2.8530    0.1260 hc        1 BIV      0.039950
     67 H231       12.0600   -3.0120    2.6050 hc        1 BIV      0.051450
     68 H232       12.4680   -4.7710    2.4480 hc        1 BIV      0.051450
     69 H241       13.9910   -2.4140    1.1360 hc        1 BIV      0.045950
     70 H242       14.3550   -4.1750    0.8840 hc        1 BIV      0.045950
     71 H261       13.3820   -2.7730    4.3440 hc        1 BIV      0.041783
     72 H262       14.1800   -1.4240    3.4240 hc        1 BIV      0.041783
     73 H263       15.0950   -2.3140    4.7140 hc        1 BIV      0.041783
     74 H271       16.6370   -3.8360    1.7140 hc        1 BIV      0.041783
     75 H272       16.3010   -2.0710    1.9860 hc        1 BIV      0.041783
     76 H273       16.9320   -3.0980    3.3420 hc        1 BIV      0.041783
     77 HO1         3.1920    2.2620   -1.9660 ho        1 BIV      0.396000
     78 H211        8.9900   -5.9040    1.4410 hc        1 BIV      0.039950
     79 H212       10.4240   -5.6200    2.5070 hc        1 BIV      0.039950
     80 H281       10.6750   -6.5290   -0.4370 hc        1 BIV      0.051450
     81 H282       11.9400   -6.5870    0.8580 hc        1 BIV      0.051450
     82 H291       10.4590   -8.1760    2.1750 hc        1 BIV      0.045950
     83 H292        9.3170   -8.2260    0.7640 hc        1 BIV      0.045950
     84 HO4        13.0880   -9.7060    0.5140 ho        1 BIV      0.395000
     85 H321       11.3050  -11.3580    0.4150 hc        1 BIV      0.041783
     86 H322        9.6310  -10.6610    0.4920 hc        1 BIV      0.041783
     87 H323       10.7040  -10.6250    1.9590 hc        1 BIV      0.041783
     88 H331       10.1780   -8.9990   -1.4810 hc        1 BIV      0.041783
     89 H332       11.7990   -8.1790   -1.4270 hc        1 BIV      0.041783
     90 H333       11.7010   -9.9840   -1.5510 hc        1 BIV      0.041783
@<TRIPOS>BOND
     1    1    5 1   
     2    1   37 1   
     3    2   26 1   
     4    2   38 1   
     5    3    4 1   
     6    3   12 1   
     7    3   29 1   
     8    3   39 1   
     9    4    5 1   
    10    4   40 1   
    11    4   41 1   
    12    5    6 1   
    13    5   42 1   
    14    6    7 1   
    15    6   43 1   
    16    6   44 1   
    17    7    8 2   
    18    7   12 1   
    19    8    9 1   
    20    8   45 1   
    21    9   10 2   
    22    9   46 1   
    23   10   11 1   
    24   10   16 1   
    25   11   13 1   
    26   11   47 1   
    27   11   48 1   
    28   12   21 2   
    29   13   14 1   
    30   13   49 1   
    31   13   50 1   
    32   14   15 1   
    33   14   51 1   
    34   14   52 1   
    35   15   16 1   
    36   15   19 1   
    37   15   20 1   
    38   16   17 1   
    39   16   53 1   
    40   17   18 1   
    41   17   54 1   
    42   17   55 1   
    43   18   19 1   
    44   18   56 1   
    45   18   57 1   
    46   19   22 1   
    47   19   58 1   
    48   20   59 1   
    49   20   60 1   
    50   20   61 1   
    51   21   62 1   
    52   21   63 1   
    53   22   23 1   
    54   22   30 1   
    55   22   64 1   
    56   23   24 1   
    57   23   65 1   
    58   23   66 1   
    59   24   25 1   
    60   24   67 1   
    61   24   68 1   
    62   25   26 1   
    63   25   69 1   
    64   25   70 1   
    65   26   27 1   
    66   26   28 1   
    67   27   71 1   
    68   27   72 1   
    69   27   73 1   
    70   28   74 1   
    71   28   75 1   
    72   28   76 1   
    73   29   77 1   
    74   30   31 1   
    75   30   78 1   
    76   30   79 1   
    77   31   32 1   
    78   31   80 1   
    79   31   81 1   
    80   32   33 1   
    81   32   82 1   
    82   32   83 1   
    83   33   34 1   
    84   33   35 1   
    85   33   36 1   
    86   34   84 1   
    87   35   85 1   
    88   35   86 1   
    89   35   87 1   
    90   36   88 1   
    91   36   89 1   
    92   36   90 1   
@<TRIPOS>SUBSTRUCTURE
     1 BIV         1 TEMP              0 ****  ****    0 ROOT
