@<TRIPOS>MOLECULE
BIV
   90    89     1     0     0
SMALL
bcc


@<TRIPOS>ATOM
      1 O2         -5.5820    1.8450   -6.5330 oh        1 BIV     -0.330000
      2 O3          5.5400    3.4080    1.5030 oh        1 BIV     -0.326000
      3 C1         -8.0830   -0.3690   -4.6440 c3        1 BIV      0.073000
      4 C2         -7.2530    0.5290   -5.7790 c3        1 BIV     -0.187000
      5 C3         -6.2230    1.1090   -5.3590 c3        1 BIV      0.033000
      6 C4         -5.0650    0.1100   -4.6730 c3        1 BIV     -0.119000
      7 C5         -5.6370   -0.7620   -3.6850 c2        1 BIV     -0.067000
      8 C6         -4.9120   -1.1760   -2.5710 c1        1 BIV     -0.115000
      9 C7         -3.4450   -0.6930   -2.3700 c1        1 BIV     -0.154000
     10 C8         -2.6880   -1.1760   -1.2850 c1        1 BIV     -0.069000
     11 C9         -3.2520   -2.0740   -0.4080 c2        1 BIV     -0.126000
     12 C10        -7.2200   -1.2630   -3.9330 c2        1 BIV     -0.115000
     13 C11        -2.0130   -2.9380    0.3590 c3        1 BIV     -0.151000
     14 C12        -0.9340   -1.9940    1.0390 c3        1 BIV     -0.150000
     15 C13        -0.3910   -0.9990    0.1620 c3        1 BIV     -0.035000
     16 C14        -1.4800   -0.2100   -0.5970 c3        1 BIV     -0.072000
     17 C15        -1.7920    0.7760    0.1400 c3        1 BIV     -0.150000
     18 C16        -0.3520    1.1450    1.0080 c3        1 BIV     -0.157000
     19 C17         0.1510    0.0620    1.3070 c3        1 BIV     -0.097000
     20 C18         0.7110   -1.5200   -0.7260 c3        1 BIV     -0.203000
     21 C19        -7.6700   -2.4790   -3.4700 c1        1 BIV     -0.200000
     22 C20         1.7980    0.1660    1.2630 c3        1 BIV     -0.094000
     23 C22         2.2260    1.4680    0.4540 c3        1 BIV     -0.157500
     24 C23         3.7570    1.7150    0.6260 c3        1 BIV     -0.157500
     25 C24         4.2350    2.7620   -0.4370 c3        1 BIV     -0.143000
     26 C25         5.4950    3.4950    0.0860 c3        1 BIV      0.076000
     27 C26         5.4380    5.0040   -0.3460 c3        1 BIV     -0.241250
     28 C27         6.7380    2.8450   -0.5020 c3        1 BIV     -0.241250
     29 O1         -8.8410    0.4770   -3.7390 oh        1 BIV     -0.327000
     30 C21         2.3490    0.2490    2.7210 c3        1 BIV     -0.157500
     31 C28         2.8960   -1.1500    3.1530 c3        1 BIV     -0.157500
     32 C29         4.0870   -0.9640    4.1140 c3        1 BIV     -0.143000
     33 C30         4.0170   -2.0320    5.2490 c3        1 BIV      0.076000
     34 O4          2.6800   -2.3580    5.5040 oh        1 BIV     -0.326000
     35 C32         4.6550   -1.4660    6.5180 c3        1 BIV     -0.241250
     36 C33         4.7840   -3.3020    4.8100 c3        1 BIV     -0.241250
     37 HO2        -5.8420    2.6930   -6.5270 ho        1 BIV      0.200000
     38 HO3         6.1490    3.9780    1.8180 ho        1 BIV      0.195000
     39 H1         -8.8150   -0.8780   -5.0800 h1        1 BIV      0.077000
     40 H21        -7.8700    1.2160   -6.1430 hc        1 BIV      0.098000
     41 H22        -6.9890   -0.0750   -6.5170 hc        1 BIV      0.098000
     42 H3         -6.4920    1.7680   -4.6930 h1        1 BIV      0.092000
     43 H41        -4.4960   -0.3810   -5.2970 hc        1 BIV      0.104500
     44 H42        -4.3920    0.6980   -4.2480 hc        1 BIV      0.104500
     45 H6         -5.3260   -1.7720   -1.9110 ha        1 BIV      0.123000
     46 H7         -3.0530   -0.0590   -2.9920 ha        1 BIV      0.128000
     47 H91        -3.8450   -1.5940    0.2090 ha        1 BIV      0.086500
     48 H92        -3.8890   -2.6970   -0.8460 ha        1 BIV      0.086500
     49 H111       -2.4110   -3.5180    1.0510 hc        1 BIV      0.081500
     50 H112       -1.5670   -3.4980   -0.3030 hc        1 BIV      0.081500
     51 H121       -1.3510   -1.5440    1.7970 hc        1 BIV      0.081500
     52 H122       -0.2080   -2.5430    1.3680 hc        1 BIV      0.081500
     53 H14        -1.0150    0.1930   -1.3740 hc        1 BIV      0.093000
     54 H151       -2.5140    0.5270    0.7610 hc        1 BIV      0.082500
     55 H152       -2.0600    1.5330   -0.4060 hc        1 BIV      0.082500
     56 H161       -0.5700    1.6560    1.8260 hc        1 BIV      0.083000
     57 H162        0.2560    1.6540    0.4480 hc        1 BIV      0.083000
     58 H17        -0.1490   -0.2200    2.2020 hc        1 BIV      0.092000
     59 H181        1.3420   -2.0670   -0.1850 hc        1 BIV      0.076333
     60 H182        1.1930   -0.7650   -1.1270 hc        1 BIV      0.076333
     61 H183        0.3270   -2.0700   -1.4300 hc        1 BIV      0.076333
     62 H191       -8.6010   -2.7500   -3.6260 DU        1 BIV      0.116000
     63 H192       -7.0600   -3.0760   -2.9840 ha        1 BIV      0.121000
     64 H20         2.1650   -0.6320    0.8190 hc        1 BIV      0.091000
     65 H221        2.0240    1.3430   -0.4820 hc        1 BIV      0.081750
     66 H222        1.7330    2.2390    0.7930 hc        1 BIV      0.081750
     67 H231        4.2410    0.8750    0.4980 hc        1 BIV      0.087000
     68 H232        3.9330    2.0590    1.5210 hc        1 BIV      0.087000
     69 H241        3.5200    3.4130   -0.5960 hc        1 BIV      0.086750
     70 H242        4.4490    2.3030   -1.2740 hc        1 BIV      0.086750
     71 H261        5.4130    5.0630   -1.3300 hc        1 BIV      0.081667
     72 H262        6.2370    5.4740   -0.0090 hc        1 BIV      0.081667
     73 H263        4.6240    5.4250    0.0300 hc        1 BIV      0.081667
     74 H271        6.6540    2.8020   -1.4770 hc        1 BIV      0.081667
     75 H272        6.8350    1.9320   -0.1390 hc        1 BIV      0.081667
     76 H273        7.5220    3.3720   -0.2670 hc        1 BIV      0.081667
     77 HO1        -9.7240    0.2680   -3.7990 ho        1 BIV      0.205000
     78 H211        3.0670    0.9040    2.7610 hc        1 BIV      0.081750
     79 H212        1.6350    0.5150    3.3210 hc        1 BIV      0.081750
     80 H281        3.1890   -1.6410    2.3650 hc        1 BIV      0.087000
     81 H282        2.1920   -1.6490    3.6030 hc        1 BIV      0.087000
     82 H291        4.0500   -0.0680    4.5080 hc        1 BIV      0.086750
     83 H292        4.9220   -1.0680    3.6210 hc        1 BIV      0.086750
     84 HO4         2.6290   -2.8270    6.2600 ho        1 BIV      0.195000
     85 H321        4.5280   -2.0980    7.2580 hc        1 BIV      0.081667
     86 H322        4.2310   -0.6060    6.7440 hc        1 BIV      0.081667
     87 H323        5.6100   -1.3290    6.3680 hc        1 BIV      0.081667
     88 H331        5.0340   -3.8290    5.6100 hc        1 BIV      0.081667
     89 H332        5.6000   -3.0390    4.3210 hc        1 BIV      0.081667
     90 H333        4.2080   -3.8500    4.2210 hc        1 BIV      0.081667
@<TRIPOS>BOND
     1    1    5 1   
     2    1   37 1   
     3    2   26 1   
     4    2   38 1   
     5    3    4 1   
     6    3   12 1   
     7    3   29 1   
     8    3   39 1   
     9    4    5 1   
    10    4   40 1   
    11    4   41 1   
    12    5    6 1   
    13    5   42 1   
    14    6    7 1   
    15    6   43 1   
    16    6   44 1   
    17    7    8 1   
    18    7   12 1   
    19    8   45 1   
    20    9   10 1   
    21    9   46 1   
    22   10   16 1   
    23   11   13 1   
    24   11   47 1   
    25   11   48 1   
    26   12   21 1   
    27   13   14 1   
    28   13   49 1   
    29   13   50 1   
    30   14   15 1   
    31   14   51 1   
    32   14   52 1   
    33   15   16 1   
    34   15   19 1   
    35   15   20 1   
    36   16   17 1   
    37   16   53 1   
    38   17   18 1   
    39   17   54 1   
    40   17   55 1   
    41   18   19 1   
    42   18   56 1   
    43   18   57 1   
    44   19   22 1   
    45   19   58 1   
    46   20   59 1   
    47   20   60 1   
    48   20   61 1   
    49   21   63 1   
    50   22   23 1   
    51   22   30 1   
    52   22   64 1   
    53   23   24 1   
    54   23   65 1   
    55   23   66 1   
    56   24   25 1   
    57   24   67 1   
    58   24   68 1   
    59   25   26 1   
    60   25   69 1   
    61   25   70 1   
    62   26   27 1   
    63   26   28 1   
    64   27   71 1   
    65   27   72 1   
    66   27   73 1   
    67   28   74 1   
    68   28   75 1   
    69   28   76 1   
    70   29   77 1   
    71   30   31 1   
    72   30   78 1   
    73   30   79 1   
    74   31   32 1   
    75   31   80 1   
    76   31   81 1   
    77   32   33 1   
    78   32   82 1   
    79   32   83 1   
    80   33   34 1   
    81   33   35 1   
    82   33   36 1   
    83   34   84 1   
    84   35   85 1   
    85   35   86 1   
    86   35   87 1   
    87   36   88 1   
    88   36   89 1   
    89   36   90 1   
@<TRIPOS>SUBSTRUCTURE
     1 BIV         1 TEMP              0 ****  ****    0 ROOT
