@<TRIPOS>MOLECULE
BIV
   90    92     1     0     0
SMALL
bcc


@<TRIPOS>ATOM
      1 O2         -0.2410    1.1550    0.5180 oh        1 BIV     -0.599800
      2 O3         14.7860   -4.7430    3.3810 oh        1 BIV     -0.593800
      3 C1          3.2580    2.4430   -0.0430 c3        1 BIV      0.186300
      4 C2          1.7390    2.4940    0.0930 c3        1 BIV     -0.146400
      5 C3          1.1650    1.0990    0.3100 c3        1 BIV      0.146100
      6 C4          1.7600    0.4590    1.5610 c3        1 BIV     -0.035200
      7 C5          3.2500    0.4280    1.4860 ce        1 BIV     -0.074200
      8 C6          3.9200   -0.7040    1.7880 cf        1 BIV     -0.108000
      9 C7          5.3550   -0.8620    1.7170 cf        1 BIV     -0.150000
     10 C8          6.0780   -1.7700    2.3940 c2        1 BIV     -0.081400
     11 C9          5.5280   -2.7100    3.4170 c3        1 BIV     -0.044200
     12 C10         3.8930    1.6810    1.0930 ce        1 BIV     -0.069200
     13 C11         6.0420   -4.1330    3.2760 c3        1 BIV     -0.073400
     14 C12         7.5390   -4.2340    3.0410 c3        1 BIV     -0.067400
     15 C13         7.9670   -3.3430    1.8830 c3        1 BIV     -0.039000
     16 C14         7.5540   -1.8940    2.2720 c3        1 BIV     -0.036500
     17 C15         8.3350   -1.0140    1.3100 c3        1 BIV     -0.075400
     18 C16         9.6400   -1.7730    1.0690 c3        1 BIV     -0.078400
     19 C17         9.4930   -3.1790    1.6860 c3        1 BIV     -0.054700
     20 C18         7.2990   -3.7760    0.5900 c3        1 BIV     -0.083100
     21 C19         4.9790    2.1690    1.7050 c2        1 BIV     -0.193000
     22 C20        10.2180   -4.2270    0.8460 c3        1 BIV     -0.048700
     23 C22        11.6820   -3.8460    0.6400 c3        1 BIV     -0.076900
     24 C23        12.4990   -3.7800    1.9130 c3        1 BIV     -0.079900
     25 C24        13.9380   -3.4240    1.6060 c3        1 BIV     -0.063400
     26 C25        14.8330   -3.4180    2.8500 c3        1 BIV      0.147800
     27 C26        14.3440   -2.4210    3.8940 c3        1 BIV     -0.123350
     28 C27        16.2650   -3.0790    2.4440 c3        1 BIV     -0.123350
     29 O1          3.6540    1.8050   -1.2550 oh        1 BIV     -0.588800
     30 C21        10.0810   -5.6220    1.4390 c3        1 BIV     -0.076900
     31 C28        10.8410   -6.6780    0.6610 c3        1 BIV     -0.079900
     32 C29        10.3900   -8.0660    1.0600 c3        1 BIV     -0.063400
     33 C30        11.2290   -9.1760    0.4170 c3        1 BIV      0.147800
     34 O4         12.5560   -9.0100    0.9180 oh        1 BIV     -0.593800
     35 C32        10.6860  -10.5370    0.8470 c3        1 BIV     -0.123350
     36 C33        11.2280   -9.0770   -1.1030 c3        1 BIV     -0.123350
     37 HO2        -0.6230    1.5440   -0.2770 ho        1 BIV      0.398000
     38 HO3        15.3540   -4.7500    4.1590 ho        1 BIV      0.395000
     39 H1          3.6520    3.5030   -0.0570 h1        1 BIV      0.034700
     40 H21         1.4670    3.1470    0.9620 hc        1 BIV      0.052700
     41 H22         1.2930    2.9470   -0.8300 hc        1 BIV      0.052700
     42 H3          1.3890    0.4600   -0.5910 h1        1 BIV      0.048700
     43 H41         1.3370   -0.5740    1.6750 hc        1 BIV      0.062200
     44 H42         1.4430    1.0510    2.4620 hc        1 BIV      0.062200
     45 H6          3.3430   -1.6000    2.0810 ha        1 BIV      0.124000
     46 H7          5.8670   -0.1650    1.0250 ha        1 BIV      0.137000
     47 H91         5.8160   -2.3140    4.4300 hc        1 BIV      0.046700
     48 H92         4.4070   -2.7320    3.3820 hc        1 BIV      0.046700
     49 H111        5.7830   -4.6990    4.2100 hc        1 BIV      0.040200
     50 H112        5.5050   -4.6330    2.4270 hc        1 BIV      0.040200
     51 H121        7.8000   -5.3040    2.8390 hc        1 BIV      0.042700
     52 H122        8.0900   -3.9270    3.9680 hc        1 BIV      0.042700
     53 H14         7.9700   -1.6950    3.3070 hc        1 BIV      0.052700
     54 H151        7.7810   -0.8780    0.3470 hc        1 BIV      0.045700
     55 H152        8.5220   -0.0020    1.7430 hc        1 BIV      0.045700
     56 H161        9.8370   -1.8430   -0.0300 hc        1 BIV      0.041700
     57 H162       10.5050   -1.2420    1.5380 hc        1 BIV      0.041700
     58 H17         9.9590   -3.1790    2.7110 hc        1 BIV      0.048700
     59 H181        6.1970   -3.6000    0.6390 hc        1 BIV      0.037700
     60 H182        7.4780   -4.8620    0.4020 hc        1 BIV      0.037700
     61 H183        7.7060   -3.1920   -0.2710 hc        1 BIV      0.037700
     62 H191        5.4540    3.1090    1.3990 ha        1 BIV      0.120000
     63 H192        5.4520    1.6540    2.5530 ha        1 BIV      0.120000
     64 H20         9.7410   -4.2450   -0.1780 hc        1 BIV      0.045700
     65 H221       11.7330   -2.8500    0.1240 hc        1 BIV      0.039950
     66 H222       12.1480   -4.5930   -0.0570 hc        1 BIV      0.039950
     67 H231       12.0620   -3.0110    2.6030 hc        1 BIV      0.051450
     68 H232       12.4720   -4.7680    2.4440 hc        1 BIV      0.051450
     69 H241       13.9920   -2.4090    1.1340 hc        1 BIV      0.045950
     70 H242       14.3560   -4.1680    0.8780 hc        1 BIV      0.045950
     71 H261       15.0980   -2.3160    4.7120 hc        1 BIV      0.041783
     72 H262       14.1810   -1.4240    3.4250 hc        1 BIV      0.041783
     73 H263       13.3850   -2.7760    4.3420 hc        1 BIV      0.041783
     74 H271       16.6390   -3.8280    1.7060 hc        1 BIV      0.041783
     75 H272       16.9340   -3.0940    3.3360 hc        1 BIV      0.041783
     76 H273       16.3010   -2.0640    1.9840 hc        1 BIV      0.041783
     77 HO1         3.1890    2.2590   -1.9680 ho        1 BIV      0.396000
     78 H211       10.4270   -5.6170    2.5050 hc        1 BIV      0.039950
     79 H212        8.9930   -5.9020    1.4390 hc        1 BIV      0.039950
     80 H281       11.9430   -6.5840    0.8570 hc        1 BIV      0.051450
     81 H282       10.6770   -6.5270   -0.4380 hc        1 BIV      0.051450
     82 H291       10.4630   -8.1730    2.1740 hc        1 BIV      0.045950
     83 H292        9.3200   -8.2240    0.7640 hc        1 BIV      0.045950
     84 HO4        13.0930   -9.7020    0.5150 ho        1 BIV      0.395000
     85 H321       11.3100  -11.3560    0.4160 hc        1 BIV      0.041783
     86 H322        9.6360  -10.6590    0.4920 hc        1 BIV      0.041783
     87 H323       10.7080  -10.6220    1.9590 hc        1 BIV      0.041783
     88 H331       11.7060   -9.9820   -1.5500 hc        1 BIV      0.041783
     89 H332       11.8030   -8.1770   -1.4270 hc        1 BIV      0.041783
     90 H333       10.1820   -8.9980   -1.4810 hc        1 BIV      0.041783
@<TRIPOS>BOND
     1    1    5 1   
     2    1   37 1   
     3    2   26 1   
     4    2   38 1   
     5    3    4 1   
     6    3   12 1   
     7    3   29 1   
     8    3   39 1   
     9    4    5 1   
    10    4   40 1   
    11    4   41 1   
    12    5    6 1   
    13    5   42 1   
    14    6    7 1   
    15    6   43 1   
    16    6   44 1   
    17    7    8 2   
    18    7   12 1   
    19    8    9 1   
    20    8   45 1   
    21    9   10 2   
    22    9   46 1   
    23   10   11 1   
    24   10   16 1   
    25   11   13 1   
    26   11   47 1   
    27   11   48 1   
    28   12   21 2   
    29   13   14 1   
    30   13   49 1   
    31   13   50 1   
    32   14   15 1   
    33   14   51 1   
    34   14   52 1   
    35   15   16 1   
    36   15   19 1   
    37   15   20 1   
    38   16   17 1   
    39   16   53 1   
    40   17   18 1   
    41   17   54 1   
    42   17   55 1   
    43   18   19 1   
    44   18   56 1   
    45   18   57 1   
    46   19   22 1   
    47   19   58 1   
    48   20   59 1   
    49   20   60 1   
    50   20   61 1   
    51   21   62 1   
    52   21   63 1   
    53   22   23 1   
    54   22   30 1   
    55   22   64 1   
    56   23   24 1   
    57   23   65 1   
    58   23   66 1   
    59   24   25 1   
    60   24   67 1   
    61   24   68 1   
    62   25   26 1   
    63   25   69 1   
    64   25   70 1   
    65   26   27 1   
    66   26   28 1   
    67   27   71 1   
    68   27   72 1   
    69   27   73 1   
    70   28   74 1   
    71   28   75 1   
    72   28   76 1   
    73   29   77 1   
    74   30   31 1   
    75   30   78 1   
    76   30   79 1   
    77   31   32 1   
    78   31   80 1   
    79   31   81 1   
    80   32   33 1   
    81   32   82 1   
    82   32   83 1   
    83   33   34 1   
    84   33   35 1   
    85   33   36 1   
    86   34   84 1   
    87   35   85 1   
    88   35   86 1   
    89   35   87 1   
    90   36   88 1   
    91   36   89 1   
    92   36   90 1   
@<TRIPOS>SUBSTRUCTURE
     1 BIV         1 TEMP              0 ****  ****    0 ROOT
