@<TRIPOS>MOLECULE
BIV
   90    92     1     0     0
SMALL
bcc


@<TRIPOS>ATOM
      1 O2          9.5670    0.5220    0.3390 oh        1 BIV     -0.600800
      2 O3         -6.6560   -1.9800    0.5510 oh        1 BIV     -0.597800
      3 C1          7.1830   -1.5790   -1.6020 c3        1 BIV      0.183300
      4 C2          8.5090   -1.0690   -1.0490 c3        1 BIV     -0.069400
      5 C3          8.2900    0.1570   -0.1720 c3        1 BIV      0.145100
      6 C4          7.3270   -0.1500    0.9740 c3        1 BIV     -0.075200
      7 C5          6.0350   -0.6990    0.4680 ce        1 BIV     -0.068200
      8 C6          4.8620   -0.2160    0.9260 cf        1 BIV     -0.116000
      9 C7          3.5570   -0.6520    0.4870 cf        1 BIV     -0.153000
     10 C8          2.4060   -0.4950    1.1630 c2        1 BIV     -0.075400
     11 C9          2.2930    0.0790    2.5380 c3        1 BIV     -0.044200
     12 C10         6.1570   -1.7760   -0.5130 ce        1 BIV     -0.120200
     13 C11         1.1560    1.0750    2.6920 c3        1 BIV     -0.073400
     14 C12        -0.1540    0.6260    2.0680 c3        1 BIV     -0.067400
     15 C13         0.0530    0.1980    0.6220 c3        1 BIV     -0.039000
     16 C14         1.0900   -0.9630    0.6540 c3        1 BIV     -0.038500
     17 C15         0.9660   -1.6090   -0.7170 c3        1 BIV     -0.074400
     18 C16        -0.5080   -1.4420   -1.0870 c3        1 BIV     -0.078400
     19 C17        -1.1530   -0.4960   -0.0540 c3        1 BIV     -0.054700
     20 C18         0.5520    1.3570   -0.2210 c3        1 BIV     -0.083100
     21 C19         5.4320   -2.9000   -0.4550 c2        1 BIV     -0.194000
     22 C20        -2.2100    0.3940   -0.7040 c3        1 BIV     -0.048700
     23 C22        -3.2570   -0.4480   -1.4290 c3        1 BIV     -0.077900
     24 C23        -4.0700   -1.3490   -0.5230 c3        1 BIV     -0.079900
     25 C24        -5.1740   -2.0360   -1.2970 c3        1 BIV     -0.084900
     26 C25        -6.0930   -2.8790   -0.4070 c3        1 BIV      0.148300
     27 C26        -5.3270   -3.9860    0.3080 c3        1 BIV     -0.113100
     28 C27        -7.2050   -3.4870   -1.2580 c3        1 BIV     -0.113100
     29 O1          6.7510   -0.6350   -2.5780 oh        1 BIV     -0.596800
     30 C21        -2.8470    1.3390    0.3050 c3        1 BIV     -0.077900
     31 C28        -3.9780    2.1620   -0.2770 c3        1 BIV     -0.079900
     32 C29        -4.4120    3.2420    0.6910 c3        1 BIV     -0.084900
     33 C30        -5.6480    4.0110    0.2090 c3        1 BIV      0.148300
     34 O4         -6.6930    3.1150   -0.1690 oh        1 BIV     -0.597800
     35 C32        -6.1400    4.9210    1.3320 c3        1 BIV     -0.113100
     36 C33        -5.3430    4.8350   -1.0360 c3        1 BIV     -0.113100
     37 HO2         9.4380    1.3250    0.8550 ho        1 BIV      0.399000
     38 HO3        -7.2570   -2.5000    1.0970 ho        1 BIV      0.398000
     39 H1          7.3620   -2.5620   -2.1310 h1        1 BIV      0.038700
     40 H21         8.9960   -1.8810   -0.4520 hc        1 BIV      0.067200
     41 H22         9.1870   -0.7970   -1.8980 hc        1 BIV      0.067200
     42 H3          7.8780    0.9970   -0.8010 h1        1 BIV      0.053700
     43 H41         7.8040   -0.9040    1.6580 hc        1 BIV      0.053700
     44 H42         7.1570    0.7830    1.5720 hc        1 BIV      0.053700
     45 H6          4.8790    0.5980    1.6730 ha        1 BIV      0.124000
     46 H7          3.5380   -1.1500   -0.5010 ha        1 BIV      0.128000
     47 H91         2.1280   -0.7780    3.2490 hc        1 BIV      0.047200
     48 H92         3.2480    0.5800    2.8460 hc        1 BIV      0.047200
     49 H111        0.9910    1.2620    3.7860 hc        1 BIV      0.041200
     50 H112        1.4620    2.0530    2.2320 hc        1 BIV      0.041200
     51 H121       -0.5780   -0.2320    2.6530 hc        1 BIV      0.042700
     52 H122       -0.8910    1.4670    2.1320 hc        1 BIV      0.042700
     53 H14         0.7170   -1.7230    1.4070 hc        1 BIV      0.054700
     54 H151        1.6150   -1.0910   -1.4660 hc        1 BIV      0.043200
     55 H152        1.2640   -2.6840   -0.6900 hc        1 BIV      0.043200
     56 H161       -0.5910   -1.0150   -2.1180 hc        1 BIV      0.042200
     57 H162       -1.0360   -2.4270   -1.0810 hc        1 BIV      0.042200
     58 H17        -1.6660   -1.1140    0.7350 hc        1 BIV      0.048700
     59 H181        1.5830    1.6550    0.0920 hc        1 BIV      0.037700
     60 H182        0.5870    1.0660   -1.2990 hc        1 BIV      0.037700
     61 H183       -0.1210    2.2400   -0.1110 hc        1 BIV      0.037700
     62 H191        5.5430   -3.7090   -1.1900 ha        1 BIV      0.121000
     63 H192        4.6940   -3.0810    0.3380 ha        1 BIV      0.121000
     64 H20        -1.7020    1.0270   -1.4890 hc        1 BIV      0.047700
     65 H221       -3.9480    0.2440   -1.9810 hc        1 BIV      0.040200
     66 H222       -2.7490   -1.0790   -2.2060 hc        1 BIV      0.040200
     67 H231       -3.3990   -2.1190   -0.0590 hc        1 BIV      0.050700
     68 H232       -4.5270   -0.7520    0.3100 hc        1 BIV      0.050700
     69 H241       -5.8010   -1.2620   -1.8130 hc        1 BIV      0.044700
     70 H242       -4.7350   -2.7070   -2.0810 hc        1 BIV      0.044700
     71 H261       -6.0360   -4.6730    0.8280 hc        1 BIV      0.042450
     72 H262       -4.7290   -4.5740   -0.4260 hc        1 BIV      0.042450
     73 H263       -4.6400   -3.5450    1.0700 hc        1 BIV      0.042450
     74 H271       -7.7970   -2.6770   -1.7470 hc        1 BIV      0.042450
     75 H272       -6.7680   -4.1460   -2.0440 hc        1 BIV      0.042450
     76 H273       -7.8920   -4.0930   -0.6210 hc        1 BIV      0.042450
     77 HO1         5.8170   -0.8070   -2.7470 ho        1 BIV      0.404000
     78 H211       -3.2200    0.7560    1.1880 hc        1 BIV      0.040200
     79 H212       -2.0570    2.0450    0.6800 hc        1 BIV      0.040200
     80 H281       -3.6480    2.6280   -1.2420 hc        1 BIV      0.050700
     81 H282       -4.8590    1.5040   -0.5070 hc        1 BIV      0.050700
     82 H291       -4.6440    2.7730    1.6840 hc        1 BIV      0.044700
     83 H292       -3.5780    3.9730    0.8500 hc        1 BIV      0.044700
     84 HO4        -6.8410    2.5260    0.5810 ho        1 BIV      0.398000
     85 H321       -5.3540    5.6690    1.5890 hc        1 BIV      0.042450
     86 H322       -7.0630    5.4570    1.0080 hc        1 BIV      0.042450
     87 H323       -6.3800    4.3210    2.2420 hc        1 BIV      0.042450
     88 H331       -5.0850    4.1620   -1.8870 hc        1 BIV      0.042450
     89 H332       -6.2390    5.4370   -1.3200 hc        1 BIV      0.042450
     90 H333       -4.4870    5.5200   -0.8310 hc        1 BIV      0.042450
@<TRIPOS>BOND
     1    1    5 1   
     2    1   37 1   
     3    2   26 1   
     4    2   38 1   
     5    3    4 1   
     6    3   12 1   
     7    3   29 1   
     8    3   39 1   
     9    4    5 1   
    10    4   40 1   
    11    4   41 1   
    12    5    6 1   
    13    5   42 1   
    14    6    7 1   
    15    6   43 1   
    16    6   44 1   
    17    7    8 2   
    18    7   12 1   
    19    8    9 1   
    20    8   45 1   
    21    9   10 2   
    22    9   46 1   
    23   10   11 1   
    24   10   16 1   
    25   11   13 1   
    26   11   47 1   
    27   11   48 1   
    28   12   21 2   
    29   13   14 1   
    30   13   49 1   
    31   13   50 1   
    32   14   15 1   
    33   14   51 1   
    34   14   52 1   
    35   15   16 1   
    36   15   19 1   
    37   15   20 1   
    38   16   17 1   
    39   16   53 1   
    40   17   18 1   
    41   17   54 1   
    42   17   55 1   
    43   18   19 1   
    44   18   56 1   
    45   18   57 1   
    46   19   22 1   
    47   19   58 1   
    48   20   59 1   
    49   20   60 1   
    50   20   61 1   
    51   21   62 1   
    52   21   63 1   
    53   22   23 1   
    54   22   30 1   
    55   22   64 1   
    56   23   24 1   
    57   23   65 1   
    58   23   66 1   
    59   24   25 1   
    60   24   67 1   
    61   24   68 1   
    62   25   26 1   
    63   25   69 1   
    64   25   70 1   
    65   26   27 1   
    66   26   28 1   
    67   27   71 1   
    68   27   72 1   
    69   27   73 1   
    70   28   74 1   
    71   28   75 1   
    72   28   76 1   
    73   29   77 1   
    74   30   31 1   
    75   30   78 1   
    76   30   79 1   
    77   31   32 1   
    78   31   80 1   
    79   31   81 1   
    80   32   33 1   
    81   32   82 1   
    82   32   83 1   
    83   33   34 1   
    84   33   35 1   
    85   33   36 1   
    86   34   84 1   
    87   35   85 1   
    88   35   86 1   
    89   35   87 1   
    90   36   88 1   
    91   36   89 1   
    92   36   90 1   
@<TRIPOS>SUBSTRUCTURE
     1 BIV         1 TEMP              0 ****  ****    0 ROOT
