@<TRIPOS>MOLECULE
BIW
   63    67     1     0     0
SMALL
bcc


@<TRIPOS>ATOM
      1 C1         -0.4610   -0.3500    0.0030 ca        1 BIW     -0.113600
      2 C2          0.8910   -0.0910   -0.1800 ca        1 BIW     -0.123000
      3 C3          1.7040    0.0550    0.9570 ca        1 BIW     -0.043200
      4 C4          1.1530   -0.0580    2.2860 ca        1 BIW     -0.093800
      5 C5         -0.2150   -0.3090    2.4330 ca        1 BIW     -0.135000
      6 C6         -1.0020   -0.4510    1.3030 ca        1 BIW     -0.126000
      7 N7          3.0910    0.2600    1.0730 na        1 BIW     -0.063400
      8 C8          3.4120    0.3190    2.4480 cc        1 BIW      0.034700
      9 C9          2.2540    0.1170    3.2120 cd        1 BIW     -0.140400
     10 C10         2.2010    0.0810    4.6870 c3        1 BIW      0.020500
     11 C11         1.3070    1.1900    5.2330 c3        1 BIW     -0.074900
     12 C12         1.2380    1.1490    6.7460 c3        1 BIW     -0.074400
     13 C13         0.7750   -0.2060    7.2410 c3        1 BIW     -0.073400
     14 C14         1.6580   -1.3130    6.7040 c3        1 BIW     -0.074400
     15 C15         1.7270   -1.2800    5.1910 c3        1 BIW     -0.074900
     16 C16         4.7540    0.5580    2.9130 cc        1 BIW     -0.169100
     17 C17         5.9590   -0.1200    2.4650 cc        1 BIW     -0.293300
     18 C18         7.0220    0.5010    3.0870 cd        1 BIW      0.269600
     19 O19         6.5540    1.5040    3.9370 os        1 BIW     -0.377800
     20 C20         5.1660    1.5250    3.8140 cd        1 BIW      0.236600
     21 C21        -1.3730   -0.5390   -1.1990 c         1 BIW      0.907200
     22 O22        -2.6090   -0.7190   -0.9900 o         1 BIW     -0.840800
     23 O23        -0.8580   -0.5150   -2.3540 o         1 BIW     -0.840800
     24 C24         3.9940    0.4920   -0.0070 c3        1 BIW     -0.016700
     25 C25         4.6320    1.8950   -0.0660 c         1 BIW      0.635100
     26 O26         4.0820    2.8830    0.4590 o         1 BIW     -0.595100
     27 N27         5.8040    2.0700   -0.8060 n         1 BIW     -0.449800
     28 C28         6.6840    3.1740   -0.4530 c3        1 BIW      0.077000
     29 C29         7.9420    2.7520    0.3100 c3        1 BIW     -0.089400
     30 C30         8.6860    1.6380   -0.4030 c3        1 BIW     -0.181700
     31 C31         7.7440    0.4840   -0.6910 c3        1 BIW     -0.089400
     32 C32         6.5020    0.9700   -1.4410 c3        1 BIW      0.077000
     33 C33         9.8830    1.1570    0.4510 c         1 BIW      0.918600
     34 O34         9.6590    0.5940    1.5640 o         1 BIW     -0.852800
     35 O35        11.0440    1.3490   -0.0090 o         1 BIW     -0.852800
     36 H2          1.2860   -0.0090   -1.2030 ha        1 BIW      0.151000
     37 H5         -0.6530   -0.3950    3.4360 ha        1 BIW      0.105000
     38 H6         -2.0830   -0.6500    1.3850 ha        1 BIW      0.145000
     39 H10         3.2450    0.2520    5.0840 hc        1 BIW      0.045700
     40 H11         0.2770    1.0820    4.8010 hc        1 BIW      0.048700
     41 H11A        1.7080    2.1830    4.9010 hc        1 BIW      0.048700
     42 H12         2.2510    1.3740    7.1730 hc        1 BIW      0.026950
     43 H12A        0.5360    1.9420    7.1110 hc        1 BIW      0.026950
     44 H13        -0.2830   -0.3810    6.9100 hc        1 BIW      0.026200
     45 H13A        0.7850   -0.2230    8.3620 hc        1 BIW      0.026200
     46 H14         2.6910   -1.2030    7.1280 hc        1 BIW      0.026950
     47 H14A        1.2610   -2.3060    7.0390 hc        1 BIW      0.026950
     48 H15         2.4320   -2.0720    4.8290 hc        1 BIW      0.048700
     49 H15A        0.7170   -1.5040    4.7580 hc        1 BIW      0.048700
     50 H17         5.9970   -0.9560    1.7730 ha        1 BIW      0.158000
     51 H18         8.1140    0.4340    2.9910 h4        1 BIW      0.122100
     52 H20         4.6610    2.2800    4.4060 h4        1 BIW      0.045100
     53 H24         4.8220   -0.2730    0.0850 h1        1 BIW      0.077700
     54 H24A        3.4430    0.3350   -0.9780 h1        1 BIW      0.077700
     55 H28         6.1080    3.9240    0.1570 h1        1 BIW      0.039950
     56 H28A        6.9910    3.6670   -1.4200 h1        1 BIW      0.039950
     57 H29         8.6080    3.6460    0.4130 hc        1 BIW      0.050950
     58 H29A        7.6720    2.4020    1.3430 hc        1 BIW      0.050950
     59 H30         9.0920    2.0310   -1.3740 hc        1 BIW      0.035700
     60 H31         7.4550    0.0010    0.2810 hc        1 BIW      0.050950
     61 H31A        8.2620   -0.2840   -1.3180 hc        1 BIW      0.050950
     62 H32         5.8030    0.1110   -1.6270 h1        1 BIW      0.039950
     63 H32A        6.8300    1.3520   -2.4540 h1        1 BIW      0.039950
@<TRIPOS>BOND
     1    1    2 ar  
     2    1    6 ar  
     3    1   21 1   
     4    2    3 ar  
     5    2   36 1   
     6    3    4 ar  
     7    3    7 1   
     8    4    5 ar  
     9    4    9 1   
    10    5    6 ar  
    11    5   37 1   
    12    6   38 1   
    13    7    8 1   
    14    7   24 1   
    15    8    9 2   
    16    8   16 1   
    17    9   10 1   
    18   10   11 1   
    19   10   15 1   
    20   10   39 1   
    21   11   12 1   
    22   11   40 1   
    23   11   41 1   
    24   12   13 1   
    25   12   42 1   
    26   12   43 1   
    27   13   14 1   
    28   13   44 1   
    29   13   45 1   
    30   14   15 1   
    31   14   46 1   
    32   14   47 1   
    33   15   48 1   
    34   15   49 1   
    35   16   17 1   
    36   16   20 2   
    37   17   18 2   
    38   17   50 1   
    39   18   19 1   
    40   18   51 1   
    41   19   20 1   
    42   20   52 1   
    43   21   22 1   
    44   21   23 1   
    45   24   25 1   
    46   24   53 1   
    47   24   54 1   
    48   25   26 2   
    49   25   27 1   
    50   27   28 1   
    51   27   32 1   
    52   28   29 1   
    53   28   55 1   
    54   28   56 1   
    55   29   30 1   
    56   29   57 1   
    57   29   58 1   
    58   30   31 1   
    59   30   33 1   
    60   30   59 1   
    61   31   32 1   
    62   31   60 1   
    63   31   61 1   
    64   32   62 1   
    65   32   63 1   
    66   33   34 1   
    67   33   35 1   
@<TRIPOS>SUBSTRUCTURE
     1 BIW         1 TEMP              0 ****  ****    0 ROOT
