@<TRIPOS>MOLECULE
BIW
   63    57     1     0     0
SMALL
bcc


@<TRIPOS>ATOM
      1 C1         -3.3970   -0.2390   -1.6770 c1        1 BIW     -0.090000
      2 C2         -2.0030   -0.1500   -1.6260 c2        1 BIW     -0.120000
      3 C3         -1.3530    0.0320   -0.3890 c1        1 BIW      0.007000
      4 C4         -2.0920    0.1230    0.7700 c1        1 BIW     -0.094000
      5 C5         -3.5070    0.0330    0.7180 c1        1 BIW     -0.134000
      6 C6         -4.1460   -0.1470   -0.5030 c1        1 BIW     -0.125000
      7 N7          0.0100    0.1350   -0.0470 n1        1 BIW     -0.148000
      8 C8          0.0980    0.2880    1.3070 c2        1 BIW      0.031000
      9 C9         -1.2040    0.2820    1.8310 c1        1 BIW     -0.136000
     10 C10        -2.2210    0.1740    2.9310 c2        1 BIW     -0.021000
     11 C11        -1.9580   -1.0940    3.7270 c3        1 BIW     -0.155500
     12 C12        -2.8300   -1.1900    4.9680 c3        1 BIW     -0.152000
     13 C13        -2.7580    0.0740    5.8350 c3        1 BIW     -0.153000
     14 C14        -3.0210    1.3390    5.0390 c3        1 BIW     -0.152000
     15 C15        -2.1490    1.4390    3.7990 c3        1 BIW     -0.155500
     16 C16         1.2310    0.5220    2.0990 c2        1 BIW     -0.080000
     17 C17         1.3690    0.1950    3.4220 c1        1 BIW     -0.165000
     18 C18         2.6620    0.5540    3.8250 c1        1 BIW     -0.117000
     19 O19         3.3110    1.1000    2.7390 os        1 BIW     -0.124000
     20 C20         2.4390    1.0870    1.6670 c1        1 BIW     -0.092000
     21 C21        -4.2720   -0.9600   -2.7440 c1        1 BIW      0.356000
     22 O22        -5.2280   -0.3660   -3.2640 o         1 BIW     -0.573000
     23 O23        -4.0430   -2.1900   -3.0400 o         1 BIW     -0.573000
     24 C24         0.4540    0.2210   -1.4370 c2        1 BIW     -0.025000
     25 C25         1.8460   -0.4090   -1.5720 c2        1 BIW      0.278000
     26 O26         2.2490   -1.1640   -0.7280 o         1 BIW     -0.397000
     27 N27         2.6840   -0.1410   -2.8180 n         1 BIW     -0.314000
     28 C28         2.2530    0.7580   -3.8720 c3        1 BIW     -0.025000
     29 C29         2.3020    0.1240   -5.2440 c3        1 BIW     -0.141500
     30 C30         3.6730   -0.5040   -5.5640 c3        1 BIW     -0.175000
     31 C31         4.0610   -1.4410   -4.4000 c3        1 BIW     -0.141500
     32 C32         3.9640   -0.7640   -3.0420 c3        1 BIW     -0.025000
     33 C33         4.7510    0.5510   -5.8630 c2        1 BIW      0.331000
     34 O34         4.4520    1.5860   -6.5160 o         1 BIW     -0.585000
     35 O35         5.9180    0.3390   -5.5490 o         1 BIW     -0.585000
     36 H2         -1.4660   -0.2510   -2.4610 ha        1 BIW      0.155000
     37 H5         -4.0270    0.2220    1.5040 ha        1 BIW      0.104000
     38 H6         -5.1160   -0.2090   -0.5390 ha        1 BIW      0.146000
     39 H10        -3.1430    0.1130    2.5180 ha        1 BIW      0.087000
     40 H11        -0.9950   -1.1130    4.0040 hc        1 BIW      0.087000
     41 H11A       -2.1340   -1.8460    3.1690 hc        1 BIW      0.087000
     42 H12        -3.8060   -1.3410    4.6800 hc        1 BIW      0.066250
     43 H12A       -2.5310   -1.9680    5.5100 hc        1 BIW      0.066250
     44 H13        -1.8320    0.1350    6.2490 hc        1 BIW      0.066500
     45 H13A       -3.4020    0.0080    6.5300 hc        1 BIW      0.066500
     46 H14        -3.9960    1.3500    4.7540 hc        1 BIW      0.066250
     47 H14A       -2.8490    2.1200    5.6160 hc        1 BIW      0.066250
     48 H15        -2.4540    2.2380    3.2420 hc        1 BIW      0.087000
     49 H15A       -1.1890    1.5890    4.0870 hc        1 BIW      0.087000
     50 H17         0.6670   -0.2270    4.0010 DU        1 BIW      0.188333
     51 H18         3.0440    0.4350    4.7360 DU        1 BIW      0.188333
     52 H20         2.6320    1.4160    0.7610 DU        1 BIW      0.188333
     53 H24         0.4920    1.1030   -1.6920 ha        1 BIW      0.119000
     54 H24A       -0.1680   -0.2500   -2.0020 ha        1 BIW      0.119000
     55 H28         1.3740    1.0300   -3.6960 h1        1 BIW      0.087750
     56 H28A        2.8230    1.5300   -3.8700 h1        1 BIW      0.087750
     57 H29         2.0960    0.8300   -5.9360 hc        1 BIW      0.076500
     58 H29A        1.5720   -0.6220   -5.2960 hc        1 BIW      0.076500
     59 H30         3.6480   -0.9820   -6.3960 hc        1 BIW      0.072000
     60 H31         3.4300   -2.2620   -4.4090 hc        1 BIW      0.076500
     61 H31A        4.9810   -1.7470   -4.5340 hc        1 BIW      0.076500
     62 H32         4.1170   -1.4440   -2.3330 h1        1 BIW      0.087750
     63 H32A        4.6900   -0.0530   -2.9770 h1        1 BIW      0.087750
@<TRIPOS>BOND
     1    1    2 1   
     2    1    6 1   
     3    2    3 1   
     4    2   36 1   
     5    4    5 1   
     6    5   37 1   
     7    6   38 1   
     8    7    8 1   
     9    8    9 1   
    10    8   16 1   
    11   10   11 1   
    12   10   15 1   
    13   10   39 1   
    14   11   12 1   
    15   11   40 1   
    16   11   41 1   
    17   12   13 1   
    18   12   42 1   
    19   12   43 1   
    20   13   14 1   
    21   13   44 1   
    22   13   45 1   
    23   14   15 1   
    24   14   46 1   
    25   14   47 1   
    26   15   48 1   
    27   15   49 1   
    28   16   17 1   
    29   16   20 1   
    30   17   18 1   
    31   18   19 1   
    32   19   20 1   
    33   21   22 1   
    34   21   23 1   
    35   24   25 1   
    36   24   53 1   
    37   24   54 1   
    38   25   26 1   
    39   25   27 1   
    40   27   28 1   
    41   27   32 1   
    42   28   29 1   
    43   28   55 1   
    44   28   56 1   
    45   29   30 1   
    46   29   57 1   
    47   29   58 1   
    48   30   31 1   
    49   30   33 1   
    50   30   59 1   
    51   31   32 1   
    52   31   60 1   
    53   31   61 1   
    54   32   62 1   
    55   32   63 1   
    56   33   34 1   
    57   33   35 1   
@<TRIPOS>SUBSTRUCTURE
     1 BIW         1 TEMP              0 ****  ****    0 ROOT
