@<TRIPOS>MOLECULE
BIW
   63    67     1     0     0
SMALL
bcc


@<TRIPOS>ATOM
      1 C1          3.2310   -3.4850   -0.4480 ca        1 BIW     -0.113600
      2 C2          1.9260   -3.0100   -0.4520 ca        1 BIW     -0.123000
      3 C3          1.7170   -1.6280   -0.3030 ca        1 BIW     -0.043200
      4 C4          2.8270   -0.7190   -0.1470 ca        1 BIW     -0.093800
      5 C5          4.1270   -1.2340   -0.1370 ca        1 BIW     -0.135000
      6 C6          4.3170   -2.5980   -0.2860 ca        1 BIW     -0.126000
      7 N7          0.5310   -0.8710   -0.3270 na        1 BIW     -0.063400
      8 C8          0.8740    0.4880   -0.1470 cc        1 BIW      0.034700
      9 C9          2.2670    0.6130   -0.0460 cd        1 BIW     -0.140400
     10 C10         2.9990    1.8850    0.1180 c3        1 BIW      0.020500
     11 C11         3.7850    1.9030    1.4270 c3        1 BIW     -0.074900
     12 C12         4.5480    3.2010    1.5930 c3        1 BIW     -0.074400
     13 C13         5.4640    3.4580    0.4140 c3        1 BIW     -0.073400
     14 C14         4.6910    3.4430   -0.8880 c3        1 BIW     -0.074400
     15 C15         3.9290    2.1460   -1.0630 c3        1 BIW     -0.074900
     16 C16        -0.1200    1.5290   -0.0850 cc        1 BIW     -0.169100
     17 C17        -1.2200    1.7300   -1.0120 cc        1 BIW     -0.293300
     18 C18        -1.9830    2.7640   -0.5090 cd        1 BIW      0.269600
     19 O19        -1.4020    3.2560    0.6620 os        1 BIW     -0.377800
     20 C20        -0.2660    2.4850    0.9060 cd        1 BIW      0.236600
     21 C21         3.5050   -4.9700   -0.6310 c         1 BIW      0.907200
     22 O22         4.7050   -5.3690   -0.5670 o         1 BIW     -0.840800
     23 O23         2.5250   -5.7390   -0.8460 o         1 BIW     -0.840800
     24 C24        -0.7940   -1.3970   -0.3950 c3        1 BIW     -0.016700
     25 C25        -1.6690   -1.1900    0.8580 c         1 BIW      0.635100
     26 O26        -1.1640   -1.0230    1.9850 o         1 BIW     -0.595100
     27 N27        -3.0570   -1.2880    0.7310 n         1 BIW     -0.449800
     28 C28        -3.8890   -0.5930    1.7030 c3        1 BIW      0.077000
     29 C29        -4.5320    0.6910    1.1730 c3        1 BIW     -0.089400
     30 C30        -5.2640    0.4550   -0.1350 c3        1 BIW     -0.181700
     31 C31        -4.3390   -0.2110   -1.1360 c3        1 BIW     -0.089400
     32 C32        -3.7170   -1.4770   -0.5450 c3        1 BIW      0.077000
     33 C33        -5.8010    1.7910   -0.7000 c         1 BIW      0.918600
     34 O34        -4.9760    2.6790   -1.0680 o         1 BIW     -0.852800
     35 O35        -7.0540    1.9330   -0.7720 o         1 BIW     -0.852800
     36 H2          1.0970   -3.7230   -0.5730 ha        1 BIW      0.151000
     37 H5          4.9850   -0.5580   -0.0150 ha        1 BIW      0.105000
     38 H6          5.3280   -3.0340   -0.2840 ha        1 BIW      0.145000
     39 H10         2.2440    2.7270    0.1570 hc        1 BIW      0.045700
     40 H11         3.0750    1.7710    2.2840 hc        1 BIW      0.048700
     41 H11A        4.4960    1.0370    1.4420 hc        1 BIW      0.048700
     42 H12         3.8230    4.0510    1.6930 hc        1 BIW      0.026950
     43 H12A        5.1530    3.1610    2.5360 hc        1 BIW      0.026950
     44 H13         5.9740    4.4490    0.5400 hc        1 BIW      0.026200
     45 H13A        6.2610    2.6700    0.3830 hc        1 BIW      0.026200
     46 H14         3.9720    4.3040   -0.9040 hc        1 BIW      0.026950
     47 H14A        5.3990    3.5800   -1.7460 hc        1 BIW      0.026950
     48 H15         4.6480    1.2910   -1.1640 hc        1 BIW      0.048700
     49 H15A        3.3230    2.1890   -2.0050 hc        1 BIW      0.048700
     50 H17        -1.3930    1.1680   -1.9240 ha        1 BIW      0.158000
     51 H18        -2.9550    3.2020   -0.7740 h4        1 BIW      0.122100
     52 H20         0.2810    2.7400    1.8060 h4        1 BIW      0.045100
     53 H24        -1.3020   -0.8980   -1.2730 h1        1 BIW      0.077700
     54 H24A       -0.7310   -2.5080   -0.5790 h1        1 BIW      0.077700
     55 H28        -4.7030   -1.3120    2.0070 h1        1 BIW      0.039950
     56 H28A       -3.2710   -0.3560    2.6140 h1        1 BIW      0.039950
     57 H29        -5.2490    1.0700    1.9450 hc        1 BIW      0.050950
     58 H29A       -3.7500    1.4810    1.0110 hc        1 BIW      0.050950
     59 H30        -6.1450   -0.2180    0.0540 hc        1 BIW      0.035700
     60 H31        -4.9110   -0.4900   -2.0570 hc        1 BIW      0.050950
     61 H31A       -3.5400    0.5200   -1.4330 hc        1 BIW      0.050950
     62 H32        -3.0170   -1.9470   -1.2870 h1        1 BIW      0.039950
     63 H32A       -4.5460   -2.2230   -0.3590 h1        1 BIW      0.039950
@<TRIPOS>BOND
     1    1    2 ar  
     2    1    6 ar  
     3    1   21 1   
     4    2    3 ar  
     5    2   36 1   
     6    3    4 ar  
     7    3    7 1   
     8    4    5 ar  
     9    4    9 1   
    10    5    6 ar  
    11    5   37 1   
    12    6   38 1   
    13    7    8 1   
    14    7   24 1   
    15    8    9 2   
    16    8   16 1   
    17    9   10 1   
    18   10   11 1   
    19   10   15 1   
    20   10   39 1   
    21   11   12 1   
    22   11   40 1   
    23   11   41 1   
    24   12   13 1   
    25   12   42 1   
    26   12   43 1   
    27   13   14 1   
    28   13   44 1   
    29   13   45 1   
    30   14   15 1   
    31   14   46 1   
    32   14   47 1   
    33   15   48 1   
    34   15   49 1   
    35   16   17 1   
    36   16   20 2   
    37   17   18 2   
    38   17   50 1   
    39   18   19 1   
    40   18   51 1   
    41   19   20 1   
    42   20   52 1   
    43   21   22 1   
    44   21   23 1   
    45   24   25 1   
    46   24   53 1   
    47   24   54 1   
    48   25   26 2   
    49   25   27 1   
    50   27   28 1   
    51   27   32 1   
    52   28   29 1   
    53   28   55 1   
    54   28   56 1   
    55   29   30 1   
    56   29   57 1   
    57   29   58 1   
    58   30   31 1   
    59   30   33 1   
    60   30   59 1   
    61   31   32 1   
    62   31   60 1   
    63   31   61 1   
    64   32   62 1   
    65   32   63 1   
    66   33   34 1   
    67   33   35 1   
@<TRIPOS>SUBSTRUCTURE
     1 BIW         1 TEMP              0 ****  ****    0 ROOT
