@<TRIPOS>MOLECULE
BIW
   63    67     1     0     0
SMALL
bcc


@<TRIPOS>ATOM
      1 C1         -0.4580   -0.3620   -0.0020 ca        1 BIW     -0.113600
      2 C2          0.8930   -0.0980   -0.1830 ca        1 BIW     -0.123000
      3 C3          1.7050    0.0490    0.9540 ca        1 BIW     -0.043200
      4 C4          1.1540   -0.0690    2.2830 ca        1 BIW     -0.093800
      5 C5         -0.2130   -0.3250    2.4280 ca        1 BIW     -0.135000
      6 C6         -0.9990   -0.4680    1.2970 ca        1 BIW     -0.126000
      7 N7          3.0910    0.2590    1.0720 na        1 BIW     -0.063400
      8 C8          3.4110    0.3170    2.4470 cc        1 BIW      0.034700
      9 C9          2.2530    0.1090    3.2100 cd        1 BIW     -0.140400
     10 C10         2.1990    0.0690    4.6850 c3        1 BIW      0.020500
     11 C11         1.3000    1.1740    5.2330 c3        1 BIW     -0.074900
     12 C12         1.2310    1.1290    6.7450 c3        1 BIW     -0.074400
     13 C13         0.7720   -0.2280    7.2370 c3        1 BIW     -0.073400
     14 C14         1.6600   -1.3310    6.6980 c3        1 BIW     -0.074400
     15 C15         1.7300   -1.2940    5.1860 c3        1 BIW     -0.074900
     16 C16         4.7520    0.5590    2.9140 cc        1 BIW     -0.169100
     17 C17         5.9590   -0.1130    2.4650 cc        1 BIW     -0.293300
     18 C18         7.0200    0.5100    3.0890 cd        1 BIW      0.269600
     19 O19         6.5480    1.5100    3.9420 os        1 BIW     -0.377800
     20 C20         5.1590    1.5260    3.8180 cd        1 BIW      0.236600
     21 C21        -1.3690   -0.5520   -1.2050 c         1 BIW      0.907200
     22 O22        -2.6030   -0.7370   -0.9970 o         1 BIW     -0.840800
     23 O23        -0.8530   -0.5240   -2.3590 o         1 BIW     -0.840800
     24 C24         3.9940    0.4970   -0.0070 c3        1 BIW     -0.016700
     25 C25         4.6270    1.9030   -0.0620 c         1 BIW      0.635100
     26 O26         4.0730    2.8870    0.4640 o         1 BIW     -0.595100
     27 N27         5.7990    2.0830   -0.8010 n         1 BIW     -0.449800
     28 C28         6.6750    3.1890   -0.4450 c3        1 BIW      0.077000
     29 C29         7.9340    2.7700    0.3180 c3        1 BIW     -0.089400
     30 C30         8.6820    1.6610   -0.3960 c3        1 BIW     -0.181700
     31 C31         7.7440    0.5050   -0.6880 c3        1 BIW     -0.089400
     32 C32         6.5020    0.9880   -1.4380 c3        1 BIW      0.077000
     33 C33         9.8800    1.1830    0.4570 c         1 BIW      0.918600
     34 O34         9.6570    0.6160    1.5680 o         1 BIW     -0.852800
     35 O35        11.0400    1.3800   -0.0020 o         1 BIW     -0.852800
     36 H2          1.2890   -0.0120   -1.2060 ha        1 BIW      0.151000
     37 H5         -0.6520   -0.4140    3.4310 ha        1 BIW      0.105000
     38 H6         -2.0790   -0.6710    1.3780 ha        1 BIW      0.145000
     39 H10         3.2430    0.2440    5.0830 hc        1 BIW      0.045700
     40 H11         1.6980    2.1690    4.9030 hc        1 BIW      0.048700
     41 H11A        0.2720    1.0630    4.8000 hc        1 BIW      0.048700
     42 H12         0.5250    1.9190    7.1120 hc        1 BIW      0.026950
     43 H12A        2.2430    1.3570    7.1740 hc        1 BIW      0.026950
     44 H13         0.7820   -0.2470    8.3580 hc        1 BIW      0.026200
     45 H13A       -0.2850   -0.4060    6.9050 hc        1 BIW      0.026200
     46 H14         1.2660   -2.3260    7.0320 hc        1 BIW      0.026950
     47 H14A        2.6920   -1.2180    7.1230 hc        1 BIW      0.026950
     48 H15         0.7210   -1.5210    4.7520 hc        1 BIW      0.048700
     49 H15A        2.4380   -2.0830    4.8230 hc        1 BIW      0.048700
     50 H17         6.0010   -0.9480    1.7720 ha        1 BIW      0.158000
     51 H18         8.1130    0.4470    2.9940 h4        1 BIW      0.122100
     52 H20         4.6510    2.2780    4.4110 h4        1 BIW      0.045100
     53 H24         4.8240   -0.2650    0.0840 h1        1 BIW      0.077700
     54 H24A        3.4440    0.3400   -0.9790 h1        1 BIW      0.077700
     55 H28         6.0950    3.9360    0.1670 h1        1 BIW      0.039950
     56 H28A        6.9810    3.6860   -1.4100 h1        1 BIW      0.039950
     57 H29         8.5960    3.6670    0.4240 hc        1 BIW      0.050950
     58 H29A        7.6640    2.4180    1.3500 hc        1 BIW      0.050950
     59 H30         9.0870    2.0580   -1.3670 hc        1 BIW      0.035700
     60 H31         8.2660   -0.2600   -1.3170 hc        1 BIW      0.050950
     61 H31A        7.4560    0.0180    0.2820 hc        1 BIW      0.050950
     62 H32         5.8050    0.1270   -1.6270 h1        1 BIW      0.039950
     63 H32A        6.8280    1.3730   -2.4500 h1        1 BIW      0.039950
@<TRIPOS>BOND
     1    1    2 ar  
     2    1    6 ar  
     3    1   21 1   
     4    2    3 ar  
     5    2   36 1   
     6    3    4 ar  
     7    3    7 1   
     8    4    5 ar  
     9    4    9 1   
    10    5    6 ar  
    11    5   37 1   
    12    6   38 1   
    13    7    8 1   
    14    7   24 1   
    15    8    9 2   
    16    8   16 1   
    17    9   10 1   
    18   10   11 1   
    19   10   15 1   
    20   10   39 1   
    21   11   12 1   
    22   11   40 1   
    23   11   41 1   
    24   12   13 1   
    25   12   42 1   
    26   12   43 1   
    27   13   14 1   
    28   13   44 1   
    29   13   45 1   
    30   14   15 1   
    31   14   46 1   
    32   14   47 1   
    33   15   48 1   
    34   15   49 1   
    35   16   17 1   
    36   16   20 2   
    37   17   18 2   
    38   17   50 1   
    39   18   19 1   
    40   18   51 1   
    41   19   20 1   
    42   20   52 1   
    43   21   22 1   
    44   21   23 1   
    45   24   25 1   
    46   24   53 1   
    47   24   54 1   
    48   25   26 2   
    49   25   27 1   
    50   27   28 1   
    51   27   32 1   
    52   28   29 1   
    53   28   55 1   
    54   28   56 1   
    55   29   30 1   
    56   29   57 1   
    57   29   58 1   
    58   30   31 1   
    59   30   33 1   
    60   30   59 1   
    61   31   32 1   
    62   31   60 1   
    63   31   61 1   
    64   32   62 1   
    65   32   63 1   
    66   33   34 1   
    67   33   35 1   
@<TRIPOS>SUBSTRUCTURE
     1 BIW         1 TEMP              0 ****  ****    0 ROOT
