@<TRIPOS>MOLECULE
BIX
   35    34     1     0     0
SMALL
bcc


@<TRIPOS>ATOM
      1 C2         -4.4240   -0.7300   -0.6860 c3        1 BIX      0.039500
      2 C5         -1.8940   -0.5950   -0.5120 c3        1 BIX     -0.404600
      3 C3         -5.6920   -0.8180    0.2230 c         1 BIX      0.902600
      4 C4         -3.2140   -0.3430    0.1730 c3        1 BIX     -0.062400
      5 C1          0.6480   -0.2020   -0.5850 c3        1 BIX     -0.446600
      6 O1         -5.8370   -1.8530    0.9330 o         1 BIX     -0.859300
      7 OE2         6.4370   -1.4680    0.9140 o         1 BIX     -0.889300
      8 CD          5.4600   -1.3680    0.1040 c         1 BIX      0.901600
      9 OE1         5.4200   -2.0550   -0.9630 o         1 BIX     -0.889300
     10 CB          3.1220   -0.5260   -0.4360 c3        1 BIX     -0.027400
     11 CA          1.9480    0.3600   -0.0240 c3        1 BIX     -0.156700
     12 C           2.2000    1.8240   -0.4780 c         1 BIX      0.904600
     13 OC          3.1250    2.4860    0.0650 o         1 BIX     -0.860300
     14 O           1.4270    2.3410   -1.3510 o         1 BIX     -0.860300
     15 P6         -0.6540    0.0510    0.3850 p5        1 BIX      1.514100
     16 O61        -0.9190    1.6430    0.3370 oh        1 BIX     -0.821400
     17 O6         -0.5960   -0.4170    1.7720 o         1 BIX     -0.887300
     18 N          -4.6250    0.1060   -1.8630 n3        1 BIX     -0.909800
     19 O3         -6.5390    0.1250    0.1880 o         1 BIX     -0.859300
     20 H2         -4.2390   -1.7740   -1.0770 h1        1 BIX      0.038700
     21 H5         -1.7710   -1.6980   -0.6560 hc        1 BIX      0.079200
     22 H5A        -1.9220   -0.1620   -1.5440 hc        1 BIX      0.079200
     23 H4         -3.2650    0.7420    0.4580 hc        1 BIX      0.061200
     24 H4A        -3.2510   -0.9430    1.1210 hc        1 BIX      0.061200
     25 H1          0.5200    0.2760   -1.5970 hc        1 BIX      0.095700
     26 H1A         0.7860   -1.2960   -0.7890 hc        1 BIX      0.095700
     27 HG          4.0450   -0.5680    1.5220 hc        1 BIX      0.040200
     28 HGA         4.7310    0.6540    0.3860 hc        1 BIX      0.040200
     29 HB          3.4140   -0.2840   -1.4910 hc        1 BIX      0.024700
     30 HBA         2.8040   -1.6030   -0.4280 hc        1 BIX      0.024700
     31 HA          1.8670    0.3660    1.0980 hc        1 BIX      0.048700
     32 HN         -5.5320    0.5410   -1.7950 hn        1 BIX      0.331800
     33 HNA        -3.9460    0.8460   -1.8750 hn        1 BIX      0.331800
     34 H18        -0.2500    2.1730   -0.1100 ho        1 BIX      0.497000
     35 CG          4.3350   -0.3930    0.4550 c3        1 BIX     -0.178400
@<TRIPOS>BOND
     1    1    3 1   
     2    1    4 1   
     3    1   18 1   
     4    1   20 1   
     5    2    4 1   
     6    2   15 1   
     7    2   21 1   
     8    2   22 1   
     9    3    6 1   
    10    3   19 1   
    11    4   23 1   
    12    4   24 1   
    13    5   11 1   
    14    5   15 1   
    15    5   25 1   
    16    5   26 1   
    17    7    8 1   
    18    8    9 1   
    19    8   35 1   
    20   10   11 1   
    21   10   29 1   
    22   10   30 1   
    23   10   35 1   
    24   11   12 1   
    25   11   31 1   
    26   12   13 1   
    27   12   14 1   
    28   15   16 1   
    29   15   17 2   
    30   16   34 1   
    31   18   32 1   
    32   18   33 1   
    33   27   35 1   
    34   28   35 1   
@<TRIPOS>SUBSTRUCTURE
     1 BIX         1 TEMP              0 ****  ****    0 ROOT
