@<TRIPOS>MOLECULE
BIX
   35    34     1     0     0
SMALL
bcc


@<TRIPOS>ATOM
      1 C2         -0.2940   -1.1120   -4.2290 c3        1 BIX      0.040500
      2 C5         -0.4080   -0.3950   -1.8680 c3        1 BIX     -0.407600
      3 C3          0.5620   -0.6140   -5.3710 c         1 BIX      0.889600
      4 C4          0.4780   -1.0010   -2.9340 c3        1 BIX     -0.049400
      5 C1         -0.4800   -0.1050    1.0810 c3        1 BIX     -0.434600
      6 O1          0.1690    0.3500   -6.0780 o         1 BIX     -0.864300
      7 OE2        -2.2940    2.6490    5.3390 o         1 BIX     -0.883300
      8 CD         -1.1740    2.0780    5.4160 c         1 BIX      0.903600
      9 OE1        -0.7780    1.6150    6.5180 o         1 BIX     -0.883300
     10 CG         -0.3040    1.9510    4.1850 c3        1 BIX     -0.172400
     11 CB         -0.7270    0.7340    3.3920 c3        1 BIX     -0.047400
     12 CA          0.2480    0.5060    2.2580 c3        1 BIX     -0.157700
     13 C           1.3430   -0.4320    2.7160 c         1 BIX      0.909600
     14 OC          2.5200   -0.0070    2.8510 o         1 BIX     -0.857800
     15 O           1.0770   -1.6370    2.9630 o         1 BIX     -0.857800
     16 P6          0.5820   -0.0360   -0.3890 p5        1 BIX      1.511100
     17 O61         1.2140    1.4070   -0.5160 oh        1 BIX     -0.831400
     18 O6          1.6630   -1.0400   -0.2640 o         1 BIX     -0.909300
     19 N          -0.6440   -2.4720   -4.4560 n3        1 BIX     -0.909800
     20 O3          1.6680   -1.1640   -5.6150 o         1 BIX     -0.864300
     21 H2         -1.1070   -0.5720   -4.1710 h1        1 BIX      0.037700
     22 H5         -1.1200   -1.0260   -1.6390 hc        1 BIX      0.093200
     23 H5A        -0.8040    0.4330   -2.2050 hc        1 BIX      0.093200
     24 H4          1.2610   -0.4300   -3.0700 hc        1 BIX      0.059200
     25 H4A         0.7690   -1.8900   -2.6500 hc        1 BIX      0.059200
     26 H1         -1.3040    0.3950    0.9120 hc        1 BIX      0.097200
     27 H1A        -0.7000   -1.0360    1.2820 hc        1 BIX      0.097200
     28 HG         -0.4020    2.7510    3.6320 hc        1 BIX      0.024200
     29 HGA         0.6310    1.8540    4.4550 hc        1 BIX      0.024200
     30 HB         -1.6240    0.8780    3.0270 hc        1 BIX      0.041700
     31 HBA        -0.7360   -0.0500    3.9770 hc        1 BIX      0.041700
     32 HA          0.6410    1.3590    1.9910 hc        1 BIX      0.026700
     33 HN         -1.5490   -2.5750   -4.3590 hn        1 BIX      0.337300
     34 HNA        -0.3990   -2.7120   -5.3050 hn        1 BIX      0.337300
     35 H18         2.0230    1.3450   -0.8760 ho        1 BIX      0.507000
@<TRIPOS>BOND
     1    1    3 1   
     2    1    4 1   
     3    1   19 1   
     4    1   21 1   
     5    2    4 1   
     6    2   16 1   
     7    2   22 1   
     8    2   23 1   
     9    3    6 1   
    10    3   20 1   
    11    4   24 1   
    12    4   25 1   
    13    5   12 1   
    14    5   16 1   
    15    5   26 1   
    16    5   27 1   
    17    7    8 1   
    18    8    9 1   
    19    8   10 1   
    20   10   11 1   
    21   10   28 1   
    22   10   29 1   
    23   11   12 1   
    24   11   30 1   
    25   11   31 1   
    26   12   13 1   
    27   12   32 1   
    28   13   14 1   
    29   13   15 1   
    30   16   17 1   
    31   16   18 2   
    32   17   35 1   
    33   19   33 1   
    34   19   34 1   
@<TRIPOS>SUBSTRUCTURE
     1 BIX         1 TEMP              0 ****  ****    0 ROOT
