@<TRIPOS>MOLECULE
BIY
   23    21     1     0     0
SMALL
bcc


@<TRIPOS>ATOM
      1 O14        -2.2160    1.4830   -3.0200 o         1 BIY     -0.827500
      2 C12        -0.9570    1.4830   -3.0200 c1        1 BIY      0.848000
      3 C3         -0.2000    1.4830   -1.7090 c1        1 BIY     -0.142900
      4 C2         -0.8460    2.2050   -0.3930 c1        1 BIY     -0.030500
      5 N1         -0.8390    1.3550    0.8930 n2        1 BIY     -0.629000
      6 S4          0.8020    0.3380   -1.3910 ss        1 BIY     -0.259200
      7 C5          0.5590   -0.4980    0.0710 c3        1 BIY      0.008100
      8 C11        -0.6920   -1.3370   -0.0650 c3        1 BIY     -0.076100
      9 C10         1.7340   -1.4250    0.2890 c3        1 BIY     -0.076100
     10 C6          0.4360    0.2350    1.0950 c3        1 BIY      0.071500
     11 C7          0.2680   -0.6190    2.4150 c         1 BIY      0.914600
     12 O9         -0.8670   -1.0580    2.7410 o         1 BIY     -0.854800
     13 O8          1.2670   -0.8590    3.1420 o         1 BIY     -0.854800
     14 OXT        -0.3270    1.4830   -4.1100 o         1 BIY     -0.827500
     15 H1         -1.5990    1.2760    1.3920 hn        1 BIY      0.388800
     16 H2         -0.8730    3.1790   -0.3350 ha        1 BIY      0.087500
     17 H6          1.2730    0.7020    1.2820 h1        1 BIY      0.054700
     18 H111       -1.4760   -0.7860    0.1230 hc        1 BIY      0.033867
     19 H112       -0.6570   -2.0790    0.5680 hc        1 BIY      0.033867
     20 H113       -0.7520   -1.6880   -0.9740 hc        1 BIY      0.033867
     21 H101        2.5030   -0.9090    0.5980 hc        1 BIY      0.033867
     22 H102        1.5010   -2.0950    0.9600 hc        1 BIY      0.033867
     23 H103        1.9580   -1.8700   -0.5510 hc        1 BIY      0.033867
@<TRIPOS>BOND
     1    1    2 2   
     2    2   14 2   
     3    3    4 3   
     4    3    6 1   
     5    4   16 1   
     6    5   10 1   
     7    5   15 1   
     8    6    7 1   
     9    7    8 1   
    10    7    9 1   
    11    7   10 1   
    12    8   18 1   
    13    8   19 1   
    14    8   20 1   
    15    9   21 1   
    16    9   22 1   
    17    9   23 1   
    18   10   11 1   
    19   10   17 1   
    20   11   12 1   
    21   11   13 1   
@<TRIPOS>SUBSTRUCTURE
     1 BIY         1 TEMP              0 ****  ****    0 ROOT
