@<TRIPOS>MOLECULE
BIY
   23    23     1     0     0
SMALL
bcc


@<TRIPOS>ATOM
      1 O14        -3.6500   -1.4870   -0.2230 o         1 BIY     -0.859300
      2 C12        -3.0450   -0.3800   -0.1210 c         1 BIY      0.930800
      3 C3         -1.5610   -0.2960   -0.4140 ce        1 BIY     -0.146600
      4 C2         -1.0020    0.9120   -0.6570 c2        1 BIY     -0.006000
      5 N1          0.2990    1.1910   -1.0890 nh        1 BIY     -0.711000
      6 S4         -0.6510   -1.7300   -0.4120 ss        1 BIY     -0.274700
      7 C5          1.0440   -1.1090   -0.3330 c3        1 BIY      0.008100
      8 C11         1.8890   -2.2720   -0.8050 c3        1 BIY     -0.076100
      9 C10         1.3850   -0.7410    1.0920 c3        1 BIY     -0.076100
     10 C6          1.2360    0.0990   -1.2780 c3        1 BIY      0.071500
     11 C7          2.7210    0.6000   -1.2080 c         1 BIY      0.914600
     12 O9          3.0250    1.5250   -0.4000 o         1 BIY     -0.854800
     13 O8          3.5570    0.0480   -1.9800 o         1 BIY     -0.854800
     14 OXT        -3.6470    0.6880    0.2130 o         1 BIY     -0.859300
     15 H1          0.7220    1.9270   -0.5470 hn        1 BIY      0.388800
     16 H2         -1.6390    1.8170   -0.5740 h4        1 BIY      0.145000
     17 H6          1.0710   -0.2840   -2.3290 h1        1 BIY      0.054700
     18 H111        1.5240   -2.6390   -1.7950 hc        1 BIY      0.033867
     19 H112        2.9520   -1.9410   -0.9250 hc        1 BIY      0.033867
     20 H113        1.8440   -3.1130   -0.0720 hc        1 BIY      0.033867
     21 H101        1.3630   -1.6450    1.7480 hc        1 BIY      0.033867
     22 H102        2.4040   -0.2800    1.1360 hc        1 BIY      0.033867
     23 H103        0.6470    0.0000    1.4860 hc        1 BIY      0.033867
@<TRIPOS>BOND
     1    1    2 1   
     2    2    3 1   
     3    2   14 1   
     4    3    4 2   
     5    3    6 1   
     6    4    5 1   
     7    4   16 1   
     8    5   10 1   
     9    5   15 1   
    10    6    7 1   
    11    7    8 1   
    12    7    9 1   
    13    7   10 1   
    14    8   18 1   
    15    8   19 1   
    16    8   20 1   
    17    9   21 1   
    18    9   22 1   
    19    9   23 1   
    20   10   11 1   
    21   10   17 1   
    22   11   12 1   
    23   11   13 1   
@<TRIPOS>SUBSTRUCTURE
     1 BIY         1 TEMP              0 ****  ****    0 ROOT
