@<TRIPOS>MOLECULE
BIY
   23    23     1     0     0
SMALL
bcc


@<TRIPOS>ATOM
      1 O14         0.4790   -1.5900   -0.4800 o         1 BIY     -0.859300
      2 C12         1.2160   -0.5810   -0.2770 c         1 BIY      0.930800
      3 C3          1.9600   -0.4350    1.0340 ce        1 BIY     -0.146600
      4 C2          2.9990    0.4270    1.1110 c2        1 BIY     -0.006000
      5 N1          3.9010    0.6010    2.1660 nh        1 BIY     -0.711000
      6 S4          1.4490   -1.3580    2.3650 ss        1 BIY     -0.274700
      7 C5          2.2770   -0.5350    3.7440 c3        1 BIY      0.008100
      8 C11         2.2590   -1.5610    4.8550 c3        1 BIY     -0.076100
      9 C10         1.5000    0.7000    4.1390 c3        1 BIY     -0.076100
     10 C6          3.7360   -0.1780    3.3800 c3        1 BIY      0.071500
     11 C7          4.4370    0.5110    4.6020 c         1 BIY      0.914600
     12 O9          4.4330    1.7740    4.6880 o         1 BIY     -0.854800
     13 O8          4.9870   -0.2410    5.4570 o         1 BIY     -0.854800
     14 OXT         1.3650    0.3290   -1.1510 o         1 BIY     -0.859300
     15 H1          4.0330    1.5730    2.3890 hn        1 BIY      0.388800
     16 H2          3.2380    1.0510    0.2250 h4        1 BIY      0.145000
     17 H6          4.2740   -1.1570    3.2060 h1        1 BIY      0.054700
     18 H111        2.8760   -1.1950    5.7150 hc        1 BIY      0.033867
     19 H112        1.2130   -1.7460    5.2020 hc        1 BIY      0.033867
     20 H113        2.6950   -2.5260    4.4990 hc        1 BIY      0.033867
     21 H101        2.0500    1.2580    4.9390 hc        1 BIY      0.033867
     22 H102        1.3780    1.3770    3.2590 hc        1 BIY      0.033867
     23 H103        0.4860    0.4220    4.5170 hc        1 BIY      0.033867
@<TRIPOS>BOND
     1    1    2 1   
     2    2    3 1   
     3    2   14 1   
     4    3    4 2   
     5    3    6 1   
     6    4    5 1   
     7    4   16 1   
     8    5   10 1   
     9    5   15 1   
    10    6    7 1   
    11    7    8 1   
    12    7    9 1   
    13    7   10 1   
    14    8   18 1   
    15    8   19 1   
    16    8   20 1   
    17    9   21 1   
    18    9   22 1   
    19    9   23 1   
    20   10   11 1   
    21   10   17 1   
    22   11   12 1   
    23   11   13 1   
@<TRIPOS>SUBSTRUCTURE
     1 BIY         1 TEMP              0 ****  ****    0 ROOT
