@<TRIPOS>MOLECULE
BIY
   23    23     1     0     0
SMALL
bcc


@<TRIPOS>ATOM
      1 O14         1.1540    0.4530   -1.0670 o         1 BIY     -0.859300
      2 C12         1.2200   -0.5430   -0.2810 c         1 BIY      0.930800
      3 C3          1.9640   -0.3690    1.0260 ce        1 BIY     -0.146600
      4 C2          2.8140    0.6740    1.1670 c2        1 BIY     -0.006000
      5 N1          3.6990    0.9310    2.2200 nh        1 BIY     -0.711000
      6 S4          1.6920   -1.4900    2.2720 ss        1 BIY     -0.274700
      7 C5          2.3870   -0.6430    3.7090 c3        1 BIY      0.008100
      8 C11         2.6100   -1.7470    4.7190 c3        1 BIY     -0.076100
      9 C10         1.3950    0.3700    4.2300 c3        1 BIY     -0.076100
     10 C6          3.7330    0.0300    3.3580 c3        1 BIY      0.071500
     11 C7          4.3250    0.7340    4.6280 c         1 BIY      0.914600
     12 O9          4.0730    1.9570    4.8320 o         1 BIY     -0.854800
     13 O8          5.0420    0.0340    5.4000 o         1 BIY     -0.854800
     14 OXT         0.6930   -1.6590   -0.5680 o         1 BIY     -0.859300
     15 H1          3.6430    1.8860    2.5310 hn        1 BIY      0.388800
     16 H2          2.8940    1.4100    0.3410 h4        1 BIY      0.145000
     17 H6          4.4480   -0.8020    3.0840 h1        1 BIY      0.054700
     18 H111        1.6350   -2.1680    5.0630 hc        1 BIY      0.033867
     19 H112        3.2170   -2.5690    4.2670 hc        1 BIY      0.033867
     20 H113        3.1710   -1.3430    5.6000 hc        1 BIY      0.033867
     21 H101        1.8500    0.9550    5.0700 hc        1 BIY      0.033867
     22 H102        0.4690   -0.1380    4.5960 hc        1 BIY      0.033867
     23 H103        1.1100    1.0840    3.4200 hc        1 BIY      0.033867
@<TRIPOS>BOND
     1    1    2 1   
     2    2    3 1   
     3    2   14 1   
     4    3    4 2   
     5    3    6 1   
     6    4    5 1   
     7    4   16 1   
     8    5   10 1   
     9    5   15 1   
    10    6    7 1   
    11    7    8 1   
    12    7    9 1   
    13    7   10 1   
    14    8   18 1   
    15    8   19 1   
    16    8   20 1   
    17    9   21 1   
    18    9   22 1   
    19    9   23 1   
    20   10   11 1   
    21   10   17 1   
    22   11   12 1   
    23   11   13 1   
@<TRIPOS>SUBSTRUCTURE
     1 BIY         1 TEMP              0 ****  ****    0 ROOT
