@<TRIPOS>MOLECULE
BIY
   23    23     1     0     0
SMALL
bcc


@<TRIPOS>ATOM
      1 O14         0.4710   -1.6080   -0.4680 o         1 BIY     -0.859300
      2 C12         1.1910   -0.5870   -0.2660 c         1 BIY      0.930800
      3 C3          1.9450   -0.4350    1.0380 ce        1 BIY     -0.146600
      4 C2          2.9700    0.4450    1.1100 c2        1 BIY     -0.006000
      5 N1          3.8800    0.6280    2.1570 nu        1 BIY     -0.711000
      6 S4          1.4640   -1.3740    2.3690 ss        1 BIY     -0.274700
      7 C5          2.2910   -0.5440    3.7440 c3        1 BIY      0.008100
      8 C11         2.3020   -1.5760    4.8500 c3        1 BIY     -0.076100
      9 C10         1.4970    0.6750    4.1540 c3        1 BIY     -0.076100
     10 C6          3.7400   -0.1590    3.3690 c3        1 BIY      0.071500
     11 C7          4.4410    0.5350    4.5880 c         1 BIY      0.914600
     12 O9          4.4160    1.7960    4.6800 o         1 BIY     -0.854800
     13 O8          5.0120   -0.2130    5.4330 o         1 BIY     -0.854800
     14 OXT         1.3150    0.3310   -1.1360 o         1 BIY     -0.859300
     15 H1          3.9970    1.6020    2.3840 hn        1 BIY      0.388800
     16 H2          3.1890    1.0780    0.2260 h4        1 BIY      0.145000
     17 H6          4.2930   -1.1290    3.1840 h1        1 BIY      0.054700
     18 H111        1.2630   -1.7810    5.2060 hc        1 BIY      0.033867
     19 H112        2.7510   -2.5310    4.4850 hc        1 BIY      0.033867
     20 H113        2.9200   -1.2040    5.7070 hc        1 BIY      0.033867
     21 H101        0.4920    0.3780    4.5410 hc        1 BIY      0.033867
     22 H102        1.3540    1.3540    3.2790 hc        1 BIY      0.033867
     23 H103        2.0450    1.2390    4.9510 hc        1 BIY      0.033867
@<TRIPOS>BOND
     1    1    2 1   
     2    2    3 1   
     3    2   14 1   
     4    3    4 2   
     5    3    6 1   
     6    4    5 1   
     7    4   16 1   
     8    5   10 1   
     9    5   15 1   
    10    6    7 1   
    11    7    8 1   
    12    7    9 1   
    13    7   10 1   
    14    8   18 1   
    15    8   19 1   
    16    8   20 1   
    17    9   21 1   
    18    9   22 1   
    19    9   23 1   
    20   10   11 1   
    21   10   17 1   
    22   11   12 1   
    23   11   13 1   
@<TRIPOS>SUBSTRUCTURE
     1 BIY         1 TEMP              0 ****  ****    0 ROOT
