@<TRIPOS>MOLECULE
BJ1
   42    42     1     0     0
SMALL
bcc


@<TRIPOS>ATOM
      1 OAA        -5.3560    1.4430   -1.3670 oh        1 BJ1     -0.595800
      2 OAB         4.5120   -0.3540   -0.8220 oh        1 BJ1     -0.598800
      3 OAC        -3.8340    2.5810    0.5160 oh        1 BJ1     -0.606800
      4 OAD         2.4540   -3.8920   -0.3700 oh        1 BJ1     -0.597800
      5 OAE        -0.9180    0.9320    1.8410 oh        1 BJ1     -0.617800
      6 OAF         3.5730   -2.2230    2.4000 oh        1 BJ1     -0.594800
      7 OAG        -2.6330    4.6560   -0.9580 o         1 BJ1     -0.698533
      8 OAH        -0.9670    3.2920   -2.2170 o         1 BJ1     -0.698533
      9 OAI        -0.3720    4.9730   -0.4710 o         1 BJ1     -0.698533
     10 CAJ        -3.9680    1.2810   -1.4790 c3        1 BJ1      0.102400
     11 CAK         3.0960   -0.4640   -0.7090 c3        1 BJ1      0.163400
     12 CAL         0.7390   -2.4880    0.3920 c3        1 BJ1     -0.107100
     13 CAM         0.1600    0.0580   -0.1050 c3        1 BJ1     -0.095100
     14 OAN        -1.4120    2.7930    0.1780 os        1 BJ1     -0.611500
     15 CAO        -3.3360    1.4200   -0.1200 c3        1 BJ1      0.096100
     16 CAP         2.1160   -3.3040    0.6480 c3        1 BJ1      0.155100
     17 CAQ        -1.1620    0.4510    0.5520 c3        1 BJ1      0.158100
     18 CAR         3.2860   -2.1400    1.0740 c3        1 BJ1      0.169100
     19 CAS         2.7110   -0.9110    0.7820 c3        1 BJ1     -0.215400
     20 CAT        -1.8350    1.5320   -0.2710 c3        1 BJ1      0.140100
     21 SAU         0.9970   -1.1400    0.9110 s4        1 BJ1      0.362100
     22 SAV        -1.3380    3.8830   -0.8760 s6        1 BJ1      1.702300
     23 HOAA       -5.7500    1.1490   -2.1110 ho        1 BJ1      0.411000
     24 HOAB        4.7200    0.0320   -1.6000 ho        1 BJ1      0.405000
     25 HOAC       -4.5140    2.3600    1.0460 ho        1 BJ1      0.425000
     26 HOAD        2.3800   -4.7740   -0.2430 ho        1 BJ1      0.416000
     27 HOAE       -1.4780    0.5390    2.4170 ho        1 BJ1      0.444000
     28 HOAF        4.4050   -2.5130    2.5050 ho        1 BJ1      0.423000
     29 HAJ        -3.6080    1.9630   -2.0760 h1        1 BJ1      0.059700
     30 HAJA       -3.7710    0.3920   -1.8410 h1        1 BJ1      0.059700
     31 HAK         2.6840    0.4050   -0.9060 h1        1 BJ1      0.051700
     32 HAKA        2.7680   -1.1330   -1.3460 h1        1 BJ1      0.051700
     33 HAL         0.5370   -2.4520   -0.5660 h1        1 BJ1      0.129200
     34 HALA       -0.0000   -2.9060    0.8820 h1        1 BJ1      0.129200
     35 HAM        -0.0160   -0.3270   -0.9850 h1        1 BJ1      0.109200
     36 HAMA        0.7220    0.8500   -0.2040 h1        1 BJ1      0.109200
     37 HAO        -3.5510    0.6340    0.4210 h1        1 BJ1      0.086700
     38 HAP         1.9960   -3.9440    1.3830 h1        1 BJ1      0.080700
     39 HAQ        -1.7470   -0.3320    0.6020 h1        1 BJ1      0.058700
     40 HAR         4.0960   -2.2670    0.5450 h1        1 BJ1      0.073700
     41 HAS         3.0110   -0.2370    1.4260 h1        1 BJ1      0.107700
     42 HAT        -1.5940    1.4230   -1.2080 h1        1 BJ1      0.056700
@<TRIPOS>BOND
     1    1   10 1   
     2    1   23 1   
     3    2   11 1   
     4    2   24 1   
     5    3   15 1   
     6    3   25 1   
     7    4   16 1   
     8    4   26 1   
     9    5   17 1   
    10    5   27 1   
    11    6   18 1   
    12    6   28 1   
    13    7   22 1   
    14    8   22 1   
    15    9   22 1   
    16   10   15 1   
    17   10   29 1   
    18   10   30 1   
    19   11   19 1   
    20   11   31 1   
    21   11   32 1   
    22   12   16 1   
    23   12   21 1   
    24   12   33 1   
    25   12   34 1   
    26   13   17 1   
    27   13   21 1   
    28   13   35 1   
    29   13   36 1   
    30   14   20 1   
    31   14   22 1   
    32   15   20 1   
    33   15   37 1   
    34   16   18 1   
    35   16   38 1   
    36   17   20 1   
    37   17   39 1   
    38   18   19 1   
    39   18   40 1   
    40   19   21 1   
    41   19   41 1   
    42   20   42 1   
@<TRIPOS>SUBSTRUCTURE
     1 BJ1         1 TEMP              0 ****  ****    0 ROOT
