@<TRIPOS>MOLECULE
BJ1
   42    42     1     0     0
SMALL
bcc


@<TRIPOS>ATOM
      1 OAA         5.6000    1.4200    0.1170 oh        1 BJ1     -0.600800
      2 OAB        -4.7570   -2.0130   -0.8850 oh        1 BJ1     -0.574800
      3 OAC         3.0570    1.5940    1.3210 oh        1 BJ1     -0.619800
      4 OAD        -4.7790    1.7110    0.4670 oh        1 BJ1     -0.603800
      5 OAE         0.5780    2.3650    0.0390 oh        1 BJ1     -0.631800
      6 OAF        -2.1980   -0.3750    1.7840 oh        1 BJ1     -0.607800
      7 OAG         2.0630   -2.8490    1.0020 o         1 BJ1     -0.743533
      8 OAH         1.3100   -2.2010   -1.1820 o         1 BJ1     -0.743533
      9 OAI        -0.1480   -2.0420    0.6060 o         1 BJ1     -0.743533
     10 CAJ         4.5280    0.6090   -0.3170 c3        1 BJ1      0.103400
     11 CAK        -4.1050   -0.8740   -1.3950 c3        1 BJ1      0.144400
     12 CAL        -2.5150    2.0500   -0.1240 c3        1 BJ1      0.034900
     13 CAM        -0.4210    0.3660   -0.8400 c3        1 BJ1     -0.072100
     14 OAN         1.7190   -0.4900    0.4650 os        1 BJ1     -0.631500
     15 CAO         3.1850    1.2990   -0.0600 c3        1 BJ1      0.090100
     16 CAP        -3.4590    1.4020    0.8830 c3        1 BJ1      0.144100
     17 CAQ         0.7780    1.3020   -0.8690 c3        1 BJ1      0.154100
     18 CAR        -3.2330   -0.1340    0.8580 c3        1 BJ1      0.123100
     19 CAS        -2.8670   -0.5360   -0.5740 c3        1 BJ1     -0.006400
     20 CAT         2.0210    0.4150   -0.5450 c3        1 BJ1      0.169100
     21 SAU        -2.0140    0.8540   -1.3190 s4        1 BJ1     -0.206900
     22 HOAA        5.4020    1.6850    1.0250 ho        1 BJ1      0.412000
     23 HOAB       -4.1690   -2.7710   -1.0030 ho        1 BJ1      0.416000
     24 HOAC        2.9070    0.7540    1.7820 ho        1 BJ1      0.434000
     25 HOAD       -5.3710    1.4610    1.1880 ho        1 BJ1      0.428000
     26 HOAE        0.9970    2.1260    0.8810 ho        1 BJ1      0.451000
     27 HOAF       -1.8250   -1.2640    1.6310 ho        1 BJ1      0.477000
     28 HAJ         4.6970    0.4610   -1.4160 h1        1 BJ1      0.058700
     29 HAJA        4.5520   -0.3820    0.2110 h1        1 BJ1      0.058700
     30 HAK        -3.8170   -1.0290   -2.4700 h1        1 BJ1      0.068200
     31 HAKA       -4.8710   -0.0510   -1.3110 h1        1 BJ1      0.068200
     32 HAL        -3.0400    2.8790   -0.6670 h1        1 BJ1      0.146200
     33 HALA       -1.6270    2.4890    0.4070 h1        1 BJ1      0.146200
     34 HAM        -0.1650   -0.5260   -1.4910 h1        1 BJ1      0.173700
     35 HAMA       -0.4660   -0.0150    0.2340 h1        1 BJ1      0.173700
     36 HAO         3.1570    2.3040   -0.5660 h1        1 BJ1      0.082700
     37 HAP        -3.2630    1.7940    1.9190 h1        1 BJ1      0.101700
     38 HAQ         0.9050    1.7840   -1.8760 h1        1 BJ1      0.067700
     39 HAR        -4.1680   -0.6810    1.1680 h1        1 BJ1      0.092700
     40 HAS        -2.1750   -1.4300   -0.5330 h1        1 BJ1      0.169700
     41 HAT         2.3100   -0.1240   -1.4930 h1        1 BJ1      0.075700
     42 SAV         1.1970   -2.1480    0.2040 s6        1 BJ1      1.720300
@<TRIPOS>BOND
     1    1   10 1   
     2    1   22 1   
     3    2   11 1   
     4    2   23 1   
     5    3   15 1   
     6    3   24 1   
     7    4   16 1   
     8    4   25 1   
     9    5   17 1   
    10    5   26 1   
    11    6   18 1   
    12    6   27 1   
    13    7   42 1   
    14    8   42 1   
    15    9   42 1   
    16   10   15 1   
    17   10   28 1   
    18   10   29 1   
    19   11   19 1   
    20   11   30 1   
    21   11   31 1   
    22   12   16 1   
    23   12   21 1   
    24   12   32 1   
    25   12   33 1   
    26   13   17 1   
    27   13   21 1   
    28   13   34 1   
    29   13   35 1   
    30   14   20 1   
    31   14   42 1   
    32   15   20 1   
    33   15   36 1   
    34   16   18 1   
    35   16   37 1   
    36   17   20 1   
    37   17   38 1   
    38   18   19 1   
    39   18   39 1   
    40   19   21 1   
    41   19   40 1   
    42   20   41 1   
@<TRIPOS>SUBSTRUCTURE
     1 BJ1         1 TEMP              0 ****  ****    0 ROOT
