@<TRIPOS>MOLECULE
BJA
   75    69     1     0     0
SMALL
bcc


@<TRIPOS>ATOM
      1 C7         -2.9780   -3.4780    2.2130 c3        1 BJA     -0.795000
      2 S8         -2.5590   -1.9620    1.4300 s4        1 BJA      2.020800
      3 C4         -2.9590   -3.2870    3.7660 c1        1 BJA     -0.073000
      4 C5         -1.7530   -3.4230    4.4770 c1        1 BJA     -0.122500
      5 C6         -1.7540   -3.3730    5.8680 c1        1 BJA     -0.122500
      6 C1         -2.9560   -3.1870    6.5600 c1        1 BJA     -0.122500
      7 C2         -4.1660   -3.0510    5.8490 c1        1 BJA     -0.122500
      8 C3         -4.1630   -3.1010    4.4590 c1        1 BJA     -0.108000
      9 O28        -3.6930   -1.0980    1.3360 o         1 BJA     -0.528900
     10 O29        -1.6900   -1.1850    2.2340 o         1 BJA     -0.528900
     11 N9         -1.8820   -2.2600   -0.0860 n2        1 BJA     -0.887000
     12 C10        -1.9390   -1.2550   -1.0960 c3        1 BJA      0.040000
     13 C30        -2.0590   -1.9190   -2.4790 c3        1 BJA     -0.173000
     14 C31        -2.8420   -3.2290   -2.3500 c3        1 BJA     -0.171000
     15 C32        -2.8830   -3.9310   -3.7100 c3        1 BJA     -0.050000
     16 N33        -3.2150   -5.2970   -3.5250 n3        1 BJA     -0.331000
     17 C34        -3.4250   -6.1620   -4.6860 c2        1 BJA      0.155000
     18 N36        -2.3660   -7.0220   -5.1490 n3        1 BJA     -0.317000
     19 N35        -4.5610   -6.1560   -5.2980 n1        1 BJA     -0.343000
     20 C11        -0.6850   -0.4190   -1.0460 c2        1 BJA      0.289000
     21 O27         0.3760   -0.9060   -0.5780 o         1 BJA     -0.390000
     22 N12        -0.7040    0.9470   -1.5370 n         1 BJA     -0.310000
     23 C13         0.5040    1.9550   -1.5620 c3        1 BJA      0.005000
     24 C17         0.9640    2.4420   -0.1430 c2        1 BJA      0.295000
     25 O26         0.2450    2.2040    0.8740 o         1 BJA     -0.374000
     26 C14         0.0260    2.9370   -2.3540 c3        1 BJA     -0.167000
     27 C15        -1.5550    2.9210   -2.2100 c3        1 BJA     -0.169000
     28 C16        -1.9080    1.6910   -2.1410 c3        1 BJA     -0.032000
     29 N18         2.2270    3.1790    0.0080 n         1 BJA     -0.361000
     30 C19         2.7560    3.4570    1.3410 c3        1 BJA      0.001000
     31 C20         4.0830    4.1710    1.2170 c2        1 BJA     -0.094000
     32 C25         4.1320    5.5740    1.3160 c2        1 BJA     -0.116000
     33 C24         5.3680    6.2300    1.3310 c1        1 BJA     -0.116000
     34 C23         6.5570    5.4860    1.2470 c1        1 BJA     -0.112000
     35 C37         7.9010    6.1980    1.2440 c2        1 BJA      0.115000
     36 N38         8.5550    6.3620    2.3620 n1        1 BJA     -0.303000
     37 N39         8.4480    6.6900    0.0240 n3        1 BJA     -0.332000
     38 C22         6.5030    4.0880    1.1480 c1        1 BJA     -0.097000
     39 C21         5.2650    3.4330    1.1330 c1        1 BJA     -0.127000
     40 H7         -2.3480   -4.1500    1.9650 h1        1 BJA      0.149000
     41 H7A        -3.8450   -3.7440    1.9380 h1        1 BJA      0.149000
     42 H5         -0.9210   -3.5510    3.9990 ha        1 BJA      0.140500
     43 H6         -0.9060   -3.4680    6.3690 ha        1 BJA      0.140500
     44 H1         -2.9570   -3.1520    7.5700 ha        1 BJA      0.140500
     45 H2         -4.9970   -2.9220    6.3270 ha        1 BJA      0.140500
     46 H3         -5.0500   -3.0010    3.9370 ha        1 BJA      0.131000
     47 HN9        -1.4030   -3.0260   -0.2310 hn        1 BJA      0.258000
     48 H10        -2.7290   -0.6750   -0.9380 h1        1 BJA      0.133000
     49 H30        -2.5090   -1.3400   -3.0660 hc        1 BJA      0.103500
     50 H30A       -1.1970   -2.1000   -2.8190 hc        1 BJA      0.103500
     51 H31        -3.7530   -3.0380   -2.0520 hc        1 BJA      0.088000
     52 H31A       -2.4250   -3.7770   -1.7350 hc        1 BJA      0.088000
     53 H32        -3.5370   -3.5190   -4.2630 h1        1 BJA      0.085000
     54 H32A       -1.9740   -3.8610   -4.1530 h1        1 BJA      0.085000
     55 HN33       -3.2610   -5.6430   -2.6880 hn        1 BJA      0.187000
     56 HN36       -1.5760   -7.0480   -4.7080 hn        1 BJA      0.189500
     57 HN3A       -2.4970   -7.5620   -5.9160 hn        1 BJA      0.189500
     58 HN35       -5.2320   -5.6140   -5.0080 DU        1 BJA      0.149500
     59 H13         1.3160    1.5540   -1.9130 h1        1 BJA      0.124000
     60 H14         0.3830    3.8100   -2.0610 hc        1 BJA      0.116500
     61 H14A        0.2830    2.7640   -3.3090 hc        1 BJA      0.116500
     62 H15        -1.9720    3.3480   -3.0010 hc        1 BJA      0.100000
     63 H15A       -1.8270    3.4030   -1.3770 hc        1 BJA      0.100000
     64 H16        -2.1090    1.3400   -3.0410 h1        1 BJA      0.093500
     65 H16A       -2.6730    1.5980   -1.5700 h1        1 BJA      0.093500
     66 HN18        2.7230    3.4240   -0.7570 hn        1 BJA      0.246000
     67 H19         2.1190    4.0320    1.8370 h1        1 BJA      0.112500
     68 H19A        2.8840    2.5900    1.8390 h1        1 BJA      0.112500
     69 H25         3.3000    6.0910    1.3760 ha        1 BJA      0.144000
     70 H24         5.4050    7.2060    1.4000 ha        1 BJA      0.139000
     71 HN38        8.2080    6.0500    3.1440 DU        1 BJA      0.149500
     72 HN39        7.9580    6.6340   -0.7580 hn        1 BJA      0.193000
     73 HN3B        9.3020    7.1030    0.0210 hn        1 BJA      0.193000
     74 H22         7.3710    3.5430    1.0870 ha        1 BJA      0.150000
     75 H21         5.2280    2.4410    1.0650 ha        1 BJA      0.139000
@<TRIPOS>BOND
     1    1    2 1   
     2    1    3 1   
     3    1   40 1   
     4    1   41 1   
     5    2    9 1   
     6    2   10 1   
     7    3    8 1   
     8    4    5 1   
     9    4   42 1   
    10    5   43 1   
    11    6    7 1   
    12    6   44 1   
    13    7   45 1   
    14    8   46 1   
    15   11   12 1   
    16   11   47 1   
    17   12   13 1   
    18   12   20 1   
    19   12   48 1   
    20   13   14 1   
    21   13   49 1   
    22   13   50 1   
    23   14   15 1   
    24   14   51 1   
    25   14   52 1   
    26   15   16 1   
    27   15   53 1   
    28   15   54 1   
    29   16   17 1   
    30   16   55 1   
    31   17   18 1   
    32   17   19 1   
    33   18   56 1   
    34   18   57 1   
    35   20   21 1   
    36   20   22 1   
    37   22   23 1   
    38   22   28 1   
    39   23   24 1   
    40   23   26 1   
    41   23   59 1   
    42   24   25 1   
    43   24   29 1   
    44   26   27 1   
    45   26   60 1   
    46   26   61 1   
    47   27   28 1   
    48   27   62 1   
    49   27   63 1   
    50   28   64 1   
    51   28   65 1   
    52   29   30 1   
    53   29   66 1   
    54   30   31 1   
    55   30   67 1   
    56   30   68 1   
    57   31   32 1   
    58   31   39 1   
    59   32   33 1   
    60   32   69 1   
    61   33   70 1   
    62   34   35 1   
    63   34   38 1   
    64   35   36 1   
    65   35   37 1   
    66   37   72 1   
    67   37   73 1   
    68   38   74 1   
    69   39   75 1   
@<TRIPOS>SUBSTRUCTURE
     1 BJA         1 TEMP              0 ****  ****    0 ROOT
