@<TRIPOS>MOLECULE
BJA
   75    77     1     0     0
SMALL
bcc


@<TRIPOS>ATOM
      1 C7          0.7910   -0.2200    0.0780 c3        1 BJA     -0.248300
      2 S8          1.4140    1.3990    0.0080 s6        1 BJA      1.447900
      3 C4          0.0750   -0.5050    1.3450 ca        1 BJA     -0.078300
      4 C5          0.5970   -1.4250    2.2610 ca        1 BJA     -0.114500
      5 C6         -0.0940   -1.7110    3.4380 ca        1 BJA     -0.126000
      6 C1         -1.3110   -1.0840    3.7050 ca        1 BJA     -0.119000
      7 C2         -1.8350   -0.1670    2.7940 ca        1 BJA     -0.126000
      8 C3         -1.1480    0.1220    1.6170 ca        1 BJA     -0.114500
      9 O28         0.3190    2.2860   -0.0580 o         1 BJA     -0.641300
     10 O29         2.3600    1.5760    1.0300 o         1 BJA     -0.641300
     11 N9          2.1860    1.3850   -1.4220 n3        1 BJA     -0.914100
     12 C10         1.6800    1.9540   -2.6380 c3        1 BJA      0.188500
     13 C30         1.5900    0.9690   -3.8180 c3        1 BJA     -0.095400
     14 C31         0.6230   -0.1610   -3.5500 c3        1 BJA     -0.089400
     15 C32         0.4270   -0.9820   -4.8260 c3        1 BJA      0.178800
     16 N33        -0.5230   -2.0590   -4.6620 nh        1 BJA     -0.842200
     17 C34        -0.5520   -3.0550   -5.7040 c2        1 BJA      0.742100
     18 N36        -1.0110   -4.3490   -5.2790 nh        1 BJA     -0.881800
     19 N35        -0.2250   -2.8720   -6.9580 n2        1 BJA     -0.870100
     20 C11         2.6140    3.0960   -3.1260 c         1 BJA      0.644100
     21 O27         3.8500    2.9120   -3.1620 o         1 BJA     -0.626100
     22 N12         2.0670    4.3060   -3.4870 n         1 BJA     -0.452800
     23 C13         2.8710    5.3720   -4.0770 c3        1 BJA      0.032700
     24 C17         3.5650    6.2670   -3.0210 c         1 BJA      0.650100
     25 O26         3.4140    7.5050   -3.0310 o         1 BJA     -0.619100
     26 C14         1.9190    6.2070   -4.9620 c3        1 BJA     -0.088400
     27 C15         0.5040    5.7600   -4.6140 c3        1 BJA     -0.090400
     28 C16         0.6480    4.5220   -3.7150 c3        1 BJA      0.084000
     29 N18         4.3490    5.6370   -2.0820 n         1 BJA     -0.549900
     30 C19         5.1060    6.3730   -1.1050 c3        1 BJA      0.129300
     31 C20         6.5020    6.7370   -1.5310 ca        1 BJA     -0.107300
     32 C25         7.6070    6.0980   -0.9670 ca        1 BJA     -0.121000
     33 C24         8.8990    6.4650   -1.3440 ca        1 BJA     -0.109000
     34 C23         9.0880    7.4700   -2.2960 ca        1 BJA     -0.195900
     35 C37        10.4660    7.8610   -2.7330 ce        1 BJA      0.638800
     36 N38        10.8440    7.9320   -3.9770 n2        1 BJA     -0.836100
     37 N39        11.3700    8.0910   -1.6730 nh        1 BJA     -0.893800
     38 C22         7.9820    8.1080   -2.8680 ca        1 BJA     -0.109000
     39 C21         6.6940    7.7440   -2.4840 ca        1 BJA     -0.121000
     40 H7          0.0730   -0.3990   -0.7700 h1        1 BJA      0.110200
     41 H7A         1.6110   -0.9750   -0.0560 h1        1 BJA      0.110200
     42 H5          1.5580   -1.9210    2.0580 ha        1 BJA      0.142000
     43 H6          0.3240   -2.4310    4.1560 ha        1 BJA      0.136500
     44 H1         -1.8550   -1.3110    4.6340 ha        1 BJA      0.135000
     45 H2         -2.7920    0.3340    3.0040 ha        1 BJA      0.136500
     46 H3         -1.5540    0.8600    0.9060 ha        1 BJA      0.142000
     47 HN9         3.1360    1.0940   -1.4990 hn        1 BJA      0.463800
     48 H10         0.6420    2.3560   -2.4200 h1        1 BJA      0.093700
     49 H30         2.6100    0.5600   -4.0440 hc        1 BJA      0.064700
     50 H30A        1.2520    1.5520   -4.7170 hc        1 BJA      0.064700
     51 H31        -0.3630    0.2500   -3.2050 hc        1 BJA      0.050700
     52 H31A        1.0220   -0.8180   -2.7330 hc        1 BJA      0.050700
     53 H32         0.0320   -0.3010   -5.6350 h1        1 BJA      0.042700
     54 H32A        1.4380   -1.3570   -5.1640 h1        1 BJA      0.042700
     55 HN33       -0.5140   -2.4420   -3.7380 hn        1 BJA      0.398800
     56 HN36       -1.8650   -4.2970   -4.7620 hn        1 BJA      0.392800
     57 HN3A       -1.0930   -4.9910   -6.0430 hn        1 BJA      0.392800
     58 HN35        0.1860   -1.9930   -7.1820 hn        1 BJA      0.393400
     59 H13         3.6970    4.9180   -4.7020 h1        1 BJA      0.086700
     60 H14         2.1460    6.0080   -6.0380 hc        1 BJA      0.077200
     61 H14A        2.0550    7.3020   -4.7720 hc        1 BJA      0.077200
     62 H15        -0.0440    6.5670   -4.0670 hc        1 BJA      0.060200
     63 H15A       -0.0780    5.5090   -5.5340 hc        1 BJA      0.060200
     64 H16         0.1340    4.6810   -2.7260 h1        1 BJA      0.053200
     65 H16A        0.1910    3.6210   -4.2120 h1        1 BJA      0.053200
     66 HN18        4.6020    4.6840   -2.2260 hn        1 BJA      0.335500
     67 H19         4.5480    7.3260   -0.8650 h1        1 BJA      0.071200
     68 H19A        5.1530    5.7420   -0.1700 h1        1 BJA      0.071200
     69 H25         7.4630    5.3020   -0.2200 ha        1 BJA      0.148000
     70 H24         9.7680    5.9570   -0.8970 ha        1 BJA      0.144000
     71 HN38       10.1460    7.6510   -4.6310 hn        1 BJA      0.394400
     72 HN39       10.9430    8.5190   -0.8820 hn        1 BJA      0.397800
     73 HN3B       12.2350    8.5130   -1.9340 hn        1 BJA      0.397800
     74 H22         8.1260    8.9010   -3.6180 ha        1 BJA      0.144000
     75 H21         5.8140    8.2440   -2.9260 ha        1 BJA      0.148000
@<TRIPOS>BOND
     1    1    2 1   
     2    1    3 1   
     3    1   40 1   
     4    1   41 1   
     5    2    9 2   
     6    2   10 2   
     7    2   11 1   
     8    3    4 ar  
     9    3    8 ar  
    10    4    5 ar  
    11    4   42 1   
    12    5    6 ar  
    13    5   43 1   
    14    6    7 ar  
    15    6   44 1   
    16    7    8 ar  
    17    7   45 1   
    18    8   46 1   
    19   11   12 1   
    20   11   47 1   
    21   12   13 1   
    22   12   20 1   
    23   12   48 1   
    24   13   14 1   
    25   13   49 1   
    26   13   50 1   
    27   14   15 1   
    28   14   51 1   
    29   14   52 1   
    30   15   16 1   
    31   15   53 1   
    32   15   54 1   
    33   16   17 1   
    34   16   55 1   
    35   17   18 1   
    36   17   19 2   
    37   18   56 1   
    38   18   57 1   
    39   19   58 1   
    40   20   21 2   
    41   20   22 1   
    42   22   23 1   
    43   22   28 1   
    44   23   24 1   
    45   23   26 1   
    46   23   59 1   
    47   24   25 2   
    48   24   29 1   
    49   26   27 1   
    50   26   60 1   
    51   26   61 1   
    52   27   28 1   
    53   27   62 1   
    54   27   63 1   
    55   28   64 1   
    56   28   65 1   
    57   29   30 1   
    58   29   66 1   
    59   30   31 1   
    60   30   67 1   
    61   30   68 1   
    62   31   32 ar  
    63   31   39 ar  
    64   32   33 ar  
    65   32   69 1   
    66   33   34 ar  
    67   33   70 1   
    68   34   35 1   
    69   34   38 ar  
    70   35   36 2   
    71   35   37 1   
    72   36   71 1   
    73   37   72 1   
    74   37   73 1   
    75   38   39 ar  
    76   38   74 1   
    77   39   75 1   
@<TRIPOS>SUBSTRUCTURE
     1 BJA         1 TEMP              0 ****  ****    0 ROOT
