@<TRIPOS>MOLECULE
BJA
   75    77     1     0     0
SMALL
bcc


@<TRIPOS>ATOM
      1 C7         -3.6830   -1.8760   -0.4780 c3        1 BJA     -0.249300
      2 S8         -2.0550   -1.9070    0.1270 s6        1 BJA      1.448900
      3 C4         -4.4260   -3.1270   -0.1970 ca        1 BJA     -0.076300
      4 C5         -4.8110   -3.9740   -1.2430 ca        1 BJA     -0.115000
      5 C6         -5.5340   -5.1350   -0.9740 ca        1 BJA     -0.126500
      6 C1         -5.8830   -5.4560    0.3380 ca        1 BJA     -0.120000
      7 C2         -5.5020   -4.6150    1.3830 ca        1 BJA     -0.126500
      8 C3         -4.7780   -3.4540    1.1200 ca        1 BJA     -0.115000
      9 O28        -2.1150   -1.9150    1.5360 o         1 BJA     -0.642800
     10 O29        -1.3440   -2.9330   -0.5180 o         1 BJA     -0.642800
     11 N9         -1.4910   -0.4750   -0.3880 n3        1 BJA     -0.915100
     12 C10        -1.3600    0.7020    0.4230 c3        1 BJA      0.187500
     13 C30        -2.1210    1.9310   -0.1040 c3        1 BJA     -0.095400
     14 C31        -3.6160    1.7110   -0.1370 c3        1 BJA     -0.090400
     15 C32        -4.3200    3.0390   -0.4290 c3        1 BJA      0.183800
     16 N33        -5.7620    2.8940   -0.4620 nh        1 BJA     -0.796200
     17 C34        -6.5290    4.0760   -0.7700 c2        1 BJA      0.745100
     18 N36        -7.9360    3.8450   -0.9390 nh        1 BJA     -0.933800
     19 N35        -5.9420    5.2410   -0.8900 n2        1 BJA     -0.872100
     20 C11         0.1290    1.1400    0.5000 c         1 BJA      0.645100
     21 O27         0.8190    1.1740   -0.5420 o         1 BJA     -0.625100
     22 N12         0.6750    1.4580    1.7220 n         1 BJA     -0.452800
     23 C13         2.0210    2.0110    1.8470 c3        1 BJA      0.031700
     24 C17         3.1190    0.9210    1.9080 c         1 BJA      0.650100
     25 O26         3.9210    0.8710    2.8620 o         1 BJA     -0.619100
     26 C14         2.0300    2.8720    3.1280 c3        1 BJA     -0.088400
     27 C15         0.7400    2.5510    3.8740 c3        1 BJA     -0.090400
     28 C16        -0.1070    1.6880    2.9250 c3        1 BJA      0.084000
     29 N18         3.1630    0.0180    0.8710 n         1 BJA     -0.548900
     30 C19         4.1990   -0.9740    0.7700 c3        1 BJA      0.129300
     31 C20         5.4120   -0.5440   -0.0080 ca        1 BJA     -0.109300
     32 C25         5.6730   -1.0790   -1.2720 ca        1 BJA     -0.124000
     33 C24         6.8160   -0.6990   -1.9730 ca        1 BJA     -0.104000
     34 C23         7.7030    0.2240   -1.4110 ca        1 BJA     -0.139900
     35 C37         8.9350    0.6370   -2.1570 ce        1 BJA      0.650800
     36 N38         9.1710    1.9040   -2.3120 n2        1 BJA     -0.825100
     37 N39         9.6820   -0.4430   -2.6820 nh        1 BJA     -0.958800
     38 C22         7.4390    0.7730   -0.1510 ca        1 BJA     -0.104000
     39 C21         6.2980    0.3860    0.5480 ca        1 BJA     -0.124000
     40 H7         -3.6980   -1.6830   -1.5840 h1        1 BJA      0.110700
     41 H7A        -4.2540   -1.0240   -0.0150 h1        1 BJA      0.110700
     42 H5         -4.5360   -3.7290   -2.2800 ha        1 BJA      0.142500
     43 H6         -5.8290   -5.7990   -1.8000 ha        1 BJA      0.136000
     44 H1         -6.4530   -6.3730    0.5480 ha        1 BJA      0.134000
     45 H2         -5.7690   -4.8680    2.4200 ha        1 BJA      0.136000
     46 H3         -4.4620   -2.7990    1.9490 ha        1 BJA      0.142500
     47 HN9        -1.0690   -0.3720   -1.2850 hn        1 BJA      0.464800
     48 H10        -1.7500    0.4470    1.4570 h1        1 BJA      0.092700
     49 H30        -1.8810    2.7930    0.5740 hc        1 BJA      0.065700
     50 H30A       -1.7470    2.1950   -1.1290 hc        1 BJA      0.065700
     51 H31        -3.8710    0.9580   -0.9300 hc        1 BJA      0.045700
     52 H31A       -3.9660    1.3000    0.8460 hc        1 BJA      0.045700
     53 H32        -4.0670    3.7750    0.3870 h1        1 BJA      0.057200
     54 H32A       -3.9120    3.4540   -1.3970 h1        1 BJA      0.057200
     55 HN33       -6.0420    2.1180   -1.0320 hn        1 BJA      0.387800
     56 HN36       -8.2780    2.9940   -0.5480 hn        1 BJA      0.391300
     57 HN3A       -8.4980    4.6250   -0.6780 hn        1 BJA      0.391300
     58 HN35       -6.5510    6.0200   -1.0150 hn        1 BJA      0.393400
     59 H13         2.2510    2.6460    0.9400 h1        1 BJA      0.086700
     60 H14         2.9280    2.6440    3.7560 hc        1 BJA      0.076700
     61 H14A        2.0680    3.9530    2.8450 hc        1 BJA      0.076700
     62 H15         0.9570    1.9860    4.8140 hc        1 BJA      0.059700
     63 H15A        0.1900    3.4830    4.1490 hc        1 BJA      0.059700
     64 H16        -1.0700    2.2130    2.6730 h1        1 BJA      0.053700
     65 H16A       -0.3550    0.6980    3.3990 h1        1 BJA      0.053700
     66 HN18        2.6390    0.2100    0.0440 hn        1 BJA      0.335500
     67 H19         4.5280   -1.2550    1.8140 h1        1 BJA      0.069700
     68 H19A        3.7460   -1.8860    0.2820 h1        1 BJA      0.069700
     69 H25         4.9750   -1.8030   -1.7200 ha        1 BJA      0.146000
     70 H24         7.0090   -1.1160   -2.9730 ha        1 BJA      0.145500
     71 HN38       10.0010    2.1440   -2.8130 hn        1 BJA      0.381400
     72 HN39        9.5140   -1.3230   -2.2550 hn        1 BJA      0.397800
     73 HN3B       10.6380   -0.2650   -2.8870 hn        1 BJA      0.397800
     74 H22         8.1250    1.5170    0.2820 ha        1 BJA      0.145500
     75 H21         6.0810    0.8100    1.5430 ha        1 BJA      0.146000
@<TRIPOS>BOND
     1    1    2 1   
     2    1    3 1   
     3    1   40 1   
     4    1   41 1   
     5    2    9 2   
     6    2   10 2   
     7    2   11 1   
     8    3    4 ar  
     9    3    8 ar  
    10    4    5 ar  
    11    4   42 1   
    12    5    6 ar  
    13    5   43 1   
    14    6    7 ar  
    15    6   44 1   
    16    7    8 ar  
    17    7   45 1   
    18    8   46 1   
    19   11   12 1   
    20   11   47 1   
    21   12   13 1   
    22   12   20 1   
    23   12   48 1   
    24   13   14 1   
    25   13   49 1   
    26   13   50 1   
    27   14   15 1   
    28   14   51 1   
    29   14   52 1   
    30   15   16 1   
    31   15   53 1   
    32   15   54 1   
    33   16   17 1   
    34   16   55 1   
    35   17   18 1   
    36   17   19 2   
    37   18   56 1   
    38   18   57 1   
    39   19   58 1   
    40   20   21 2   
    41   20   22 1   
    42   22   23 1   
    43   22   28 1   
    44   23   24 1   
    45   23   26 1   
    46   23   59 1   
    47   24   25 2   
    48   24   29 1   
    49   26   27 1   
    50   26   60 1   
    51   26   61 1   
    52   27   28 1   
    53   27   62 1   
    54   27   63 1   
    55   28   64 1   
    56   28   65 1   
    57   29   30 1   
    58   29   66 1   
    59   30   31 1   
    60   30   67 1   
    61   30   68 1   
    62   31   32 ar  
    63   31   39 ar  
    64   32   33 ar  
    65   32   69 1   
    66   33   34 ar  
    67   33   70 1   
    68   34   35 1   
    69   34   38 ar  
    70   35   36 2   
    71   35   37 1   
    72   36   71 1   
    73   37   72 1   
    74   37   73 1   
    75   38   39 ar  
    76   38   74 1   
    77   39   75 1   
@<TRIPOS>SUBSTRUCTURE
     1 BJA         1 TEMP              0 ****  ****    0 ROOT
