@<TRIPOS>MOLECULE
BJC
   92    91     1     0     0
SMALL
bcc


@<TRIPOS>ATOM
      1 N1          6.9510    1.2790    2.9230 n         1 BJC     -0.325000
      2 C2          8.3310    1.0590    2.4670 c3        1 BJC     -0.019000
      3 C5          9.1860    0.4550    3.4540 c3        1 BJC     -0.171000
      4 C8          9.1510    1.1800    4.7880 c3        1 BJC     -0.160000
      5 C11         7.7960    1.3350    5.3190 c3        1 BJC     -0.178000
      6 C14         6.8700    1.9710    4.1890 c2        1 BJC      0.307000
      7 O15         5.8500    2.5580    4.4980 o         1 BJC     -0.385000
      8 C16         5.8660    0.3230    2.5190 c3        1 BJC      0.104000
      9 C17         4.6420    1.1290    1.9490 c3        1 BJC     -0.123000
     10 C19         3.5760    0.1340    1.4480 c3        1 BJC     -0.147000
     11 C22         2.3870    0.8310    0.7230 c3        1 BJC     -0.118000
     12 C24         2.9410    1.7630   -0.3600 c3        1 BJC     -0.148000
     13 C27         4.0110    2.7250    0.1680 c3        1 BJC     -0.157000
     14 C30         5.1190    2.0270    0.9010 c3        1 BJC     -0.153000
     15 C33         1.3510   -0.1920    0.1580 c2        1 BJC      0.307000
     16 O34         1.7170   -1.0790   -0.5800 o         1 BJC     -0.379000
     17 N35        -0.0730   -0.0590    0.4960 n         1 BJC     -0.378000
     18 C37        -1.0670   -0.5680   -0.3880 c3        1 BJC      0.039000
     19 C39        -2.1620    0.4860   -0.5880 c3        1 BJC      0.009000
     20 O41        -2.7600    0.7740    0.6450 oh        1 BJC     -0.335000
     21 C43        -3.2100   -0.0490   -1.5470 c3        1 BJC     -0.106000
     22 N46        -4.4110    0.7730   -1.4670 n3        1 BJC     -0.304000
     23 C48        -4.9870    0.9120   -2.7890 c3        1 BJC     -0.035000
     24 C51        -6.5170    1.1460   -2.6670 c2        1 BJC     -0.090000
     25 C52        -7.4130    0.2450   -3.2620 c2        1 BJC     -0.121000
     26 C54        -8.7790    0.5310   -3.2830 c1        1 BJC     -0.068000
     27 C55        -9.2540    1.7130   -2.7130 c1        1 BJC     -0.130000
     28 C57        -8.3630    2.6090   -2.1220 c1        1 BJC     -0.130000
     29 C59        -6.9910    2.3220   -2.1010 c1        1 BJC     -0.113000
     30 C61        -9.7590   -0.4600   -3.9280 c3        1 BJC     -0.070000
     31 C63       -10.7720   -0.8760   -2.9220 c3        1 BJC     -0.206000
     32 C67       -10.4500    0.1990   -5.0990 c3        1 BJC     -0.206000
     33 C71        -1.6700   -1.8040    0.1990 c3        1 BJC     -0.135000
     34 C74        -1.1040   -3.0350   -0.5090 c2        1 BJC     -0.070000
     35 C75        -1.7230   -3.5230   -1.6510 c2        1 BJC     -0.123000
     36 C77        -1.2750   -4.7150   -2.2390 c1        1 BJC     -0.127000
     37 C79        -0.2040   -5.4140   -1.6750 c1        1 BJC     -0.130000
     38 C81         0.4210   -4.9230   -0.5240 c1        1 BJC     -0.130000
     39 C83        -0.0250   -3.7370    0.0600 c1        1 BJC     -0.129000
     40 C85         5.4230   -0.4810    3.7340 c3        1 BJC     -0.224000
     41 C89         6.4020   -0.6430    1.4290 c3        1 BJC     -0.224000
     42 H2          8.3090    0.4820    1.6830 h1        1 BJC      0.079500
     43 H2A         8.7260    1.9440    2.2020 h1        1 BJC      0.079500
     44 H5         10.1140    0.4580    3.1150 hc        1 BJC      0.091500
     45 H5A         8.9040   -0.4700    3.5910 hc        1 BJC      0.091500
     46 H8          9.5490    2.0750    4.6720 hc        1 BJC      0.089500
     47 H8A         9.6870    0.6770    5.4340 hc        1 BJC      0.089500
     48 H11         7.4910    0.5480    5.8010 hc        1 BJC      0.115000
     49 H11A        7.8060    1.9960    6.0560 hc        1 BJC      0.115000
     50 H17         4.2520    1.6710    2.6760 hc        1 BJC      0.121000
     51 H19         3.2280   -0.3670    2.2140 hc        1 BJC      0.092000
     52 H19A        4.0000   -0.4950    0.8260 hc        1 BJC      0.092000
     53 H22         1.8340    1.3270    1.3580 hc        1 BJC      0.105000
     54 H24         2.1950    2.2930   -0.7360 hc        1 BJC      0.097000
     55 H24A        3.3320    1.2190   -1.0730 hc        1 BJC      0.097000
     56 H27         4.3920    3.2130   -0.5840 hc        1 BJC      0.081000
     57 H27A        3.5860    3.3650    0.7760 hc        1 BJC      0.081000
     58 H30         5.6970    2.6970    1.3040 hc        1 BJC      0.079000
     59 H30A        5.6440    1.5050    0.2550 hc        1 BJC      0.079000
     60 HN35       -0.3200    0.3150    1.2920 hn        1 BJC      0.231000
     61 H37        -0.6560   -0.7840   -1.2540 h1        1 BJC      0.129000
     62 H39        -1.7650    1.3040   -0.9590 h1        1 BJC      0.099000
     63 HO41       -2.8620    1.6480    0.7260 ho        1 BJC      0.206000
     64 H43        -3.4310   -0.9740   -1.3080 h1        1 BJC      0.081000
     65 H43A       -2.8610   -0.0230   -2.4540 h1        1 BJC      0.081000
     66 HN46       -5.0110    0.3810   -0.9150 hn        1 BJC      0.156000
     67 H48        -4.5760    1.6760   -3.2440 h1        1 BJC      0.078500
     68 H48A       -4.8220    0.0980   -3.3020 h1        1 BJC      0.078500
     69 H52        -7.0810   -0.5810   -3.6620 ha        1 BJC      0.131000
     70 H55       -10.2030    1.9110   -2.7280 ha        1 BJC      0.130750
     71 H57        -8.6950    3.4360   -1.7240 ha        1 BJC      0.130750
     72 H59        -6.3760    2.9410   -1.6920 ha        1 BJC      0.144000
     73 H61        -9.2730   -1.2370   -4.2380 hc        1 BJC      0.089000
     74 H63       -11.1980   -0.0790   -2.5390 hc        1 BJC      0.075833
     75 H63A      -11.4520   -1.4330   -3.3540 hc        1 BJC      0.075833
     76 H63B      -10.3390   -1.3810   -2.2180 hc        1 BJC      0.075833
     77 H67       -10.7740    1.0900   -4.8300 hc        1 BJC      0.075833
     78 H67A      -11.2160   -0.3570   -5.3850 hc        1 BJC      0.075833
     79 H67B       -9.8230    0.2900   -5.8360 hc        1 BJC      0.075833
     80 H71        -2.6350   -1.7790    0.0830 hc        1 BJC      0.104500
     81 H71A       -1.4550   -1.8500    1.1610 hc        1 BJC      0.104500
     82 H75        -2.4780   -3.0310   -2.0490 ha        1 BJC      0.134000
     83 H77        -1.7130   -5.0590   -3.0450 ha        1 BJC      0.131000
     84 H79         0.1080   -6.2450   -2.0850 ha        1 BJC      0.130750
     85 H81         1.1790   -5.4170   -0.1250 ha        1 BJC      0.130750
     86 H83         0.4110   -3.3950    0.8630 ha        1 BJC      0.131000
     87 H85         6.2210   -0.7330    4.2770 hc        1 BJC      0.085833
     88 H85A        4.9630   -1.2870    3.4390 hc        1 BJC      0.085833
     89 H85B        4.8240    0.0520    4.2720 hc        1 BJC      0.085833
     90 H89         7.1280   -1.2020    1.8110 hc        1 BJC      0.085833
     91 H89A        5.6670   -1.2250    1.1160 hc        1 BJC      0.085833
     92 H89B        6.7470   -0.1310    0.6840 hc        1 BJC      0.085833
@<TRIPOS>BOND
     1    1    2 1   
     2    1    6 1   
     3    1    8 1   
     4    2    3 1   
     5    2   42 1   
     6    2   43 1   
     7    3    4 1   
     8    3   44 1   
     9    3   45 1   
    10    4    5 1   
    11    4   46 1   
    12    4   47 1   
    13    5    6 1   
    14    5   48 1   
    15    5   49 1   
    16    6    7 1   
    17    8    9 1   
    18    8   40 1   
    19    8   41 1   
    20    9   10 1   
    21    9   14 1   
    22    9   50 1   
    23   10   11 1   
    24   10   51 1   
    25   10   52 1   
    26   11   12 1   
    27   11   15 1   
    28   11   53 1   
    29   12   13 1   
    30   12   54 1   
    31   12   55 1   
    32   13   14 1   
    33   13   56 1   
    34   13   57 1   
    35   14   58 1   
    36   14   59 1   
    37   15   16 1   
    38   15   17 1   
    39   17   18 1   
    40   17   60 1   
    41   18   19 1   
    42   18   33 1   
    43   18   61 1   
    44   19   20 1   
    45   19   21 1   
    46   19   62 1   
    47   20   63 1   
    48   21   22 1   
    49   21   64 1   
    50   21   65 1   
    51   22   23 1   
    52   22   66 1   
    53   23   24 1   
    54   23   67 1   
    55   23   68 1   
    56   24   25 1   
    57   24   29 1   
    58   25   26 1   
    59   25   69 1   
    60   26   30 1   
    61   27   28 1   
    62   27   70 1   
    63   28   71 1   
    64   29   72 1   
    65   30   31 1   
    66   30   32 1   
    67   30   73 1   
    68   31   74 1   
    69   31   75 1   
    70   31   76 1   
    71   32   77 1   
    72   32   78 1   
    73   32   79 1   
    74   33   34 1   
    75   33   80 1   
    76   33   81 1   
    77   34   35 1   
    78   34   39 1   
    79   35   36 1   
    80   35   82 1   
    81   36   83 1   
    82   37   38 1   
    83   37   84 1   
    84   38   85 1   
    85   39   86 1   
    86   40   87 1   
    87   40   88 1   
    88   40   89 1   
    89   41   90 1   
    90   41   91 1   
    91   41   92 1   
@<TRIPOS>SUBSTRUCTURE
     1 BJC         1 TEMP              0 ****  ****    0 ROOT
