@<TRIPOS>MOLECULE
BJC
   92    95     1     0     0
SMALL
bcc


@<TRIPOS>ATOM
      1 N1         -6.7910   -1.6650   -0.6710 n         1 BJC     -0.472800
      2 C2         -7.1400   -2.9240   -1.2850 c3        1 BJC      0.102000
      3 C5         -8.1590   -3.7710   -0.5270 c3        1 BJC     -0.093400
      4 C8         -9.2860   -2.9090   -0.0100 c3        1 BJC     -0.080400
      5 C11        -8.7320   -1.8650    0.9260 c3        1 BJC     -0.148400
      6 C14        -7.4800   -1.1660    0.4220 c         1 BJC      0.701500
      7 O15        -7.0970   -0.1410    1.0280 o         1 BJC     -0.662500
      8 C16        -5.6210   -0.9420   -1.2150 c3        1 BJC      0.144400
      9 C17        -4.4330   -0.9950   -0.2050 c3        1 BJC     -0.080700
     10 C19        -3.2260   -0.2110   -0.6990 c3        1 BJC     -0.064400
     11 C22        -2.1330   -0.1920    0.3620 c3        1 BJC     -0.129700
     12 C24        -1.7130   -1.6070    0.7340 c3        1 BJC     -0.075400
     13 C27        -2.9120   -2.4170    1.1810 c3        1 BJC     -0.076400
     14 C30        -4.0060   -2.4170    0.1310 c3        1 BJC     -0.073400
     15 C33        -0.9240    0.5800   -0.1630 c         1 BJC      0.666100
     16 O34        -0.7580    0.8100   -1.3770 o         1 BJC     -0.613100
     17 N35        -0.0180    1.0240    0.7800 n         1 BJC     -0.566900
     18 C37         1.1880    1.7370    0.4360 c3        1 BJC      0.079700
     19 C39         2.4460    0.8500    0.6610 c3        1 BJC      0.106100
     20 O41         2.7030    0.6370    2.0370 oh        1 BJC     -0.598800
     21 C43         3.6690    1.4500   -0.0540 c3        1 BJC      0.137800
     22 N46         4.7910    0.5350   -0.0770 n3        1 BJC     -0.825200
     23 C48         6.0290    1.1640   -0.4980 c3        1 BJC      0.211100
     24 C51         7.2430    0.3180   -0.2480 ca        1 BJC     -0.095300
     25 C52         7.2840   -1.0080   -0.6880 ca        1 BJC     -0.106000
     26 C54         8.4270   -1.7890   -0.4840 ca        1 BJC     -0.076300
     27 C55         9.5340   -1.2250    0.1620 ca        1 BJC     -0.122000
     28 C57         9.4950    0.0970    0.5990 ca        1 BJC     -0.132000
     29 C59         8.3530    0.8700    0.3990 ca        1 BJC     -0.128000
     30 C61         8.4560   -3.2080   -0.9580 c3        1 BJC     -0.024400
     31 C63         9.5440   -3.4140   -1.9950 c3        1 BJC     -0.088100
     32 C67         8.6410   -4.1660    0.2040 c3        1 BJC     -0.088100
     33 C71         1.3190    3.0590    1.2170 c3        1 BJC     -0.053100
     34 C74         0.2430    4.0310    0.8870 ca        1 BJC     -0.078300
     35 C75        -0.6910    4.4110    1.8570 ca        1 BJC     -0.122500
     36 C77        -1.6850    5.3390    1.5510 ca        1 BJC     -0.126000
     37 C79        -1.7550    5.8960    0.2740 ca        1 BJC     -0.129000
     38 C81        -0.8260    5.5210   -0.6970 ca        1 BJC     -0.126000
     39 C83         0.1690    4.5950   -0.3930 ca        1 BJC     -0.122500
     40 C85        -5.1780   -1.5060   -2.5770 c3        1 BJC     -0.107600
     41 C89        -5.9830    0.5390   -1.4690 c3        1 BJC     -0.107600
     42 H2         -7.5500   -2.7160   -2.3170 h1        1 BJC      0.040200
     43 H2A        -6.2030   -3.5440   -1.4030 h1        1 BJC      0.040200
     44 H5         -8.5510   -4.5550   -1.2240 hc        1 BJC      0.051200
     45 H5A        -7.6600   -4.2950    0.3290 hc        1 BJC      0.051200
     46 H8         -9.8120   -2.4170   -0.8700 hc        1 BJC      0.050200
     47 H8A       -10.0410   -3.5380    0.5290 hc        1 BJC      0.050200
     48 H11        -9.4990   -1.0710    1.1250 hc        1 BJC      0.075200
     49 H11A       -8.4640   -2.3310    1.9120 hc        1 BJC      0.075200
     50 H17        -4.7990   -0.5040    0.7450 hc        1 BJC      0.079700
     51 H19        -2.8110   -0.6670   -1.6360 hc        1 BJC      0.060700
     52 H19A       -3.5120    0.8470   -0.9340 hc        1 BJC      0.060700
     53 H22        -2.5360    0.3250    1.2790 hc        1 BJC      0.069700
     54 H24        -1.2340   -2.0980   -0.1530 hc        1 BJC      0.047200
     55 H24A       -0.9530   -1.5760    1.5580 hc        1 BJC      0.047200
     56 H27        -2.5900   -3.4720    1.3850 hc        1 BJC      0.042700
     57 H27A       -3.3140   -1.9960    2.1390 hc        1 BJC      0.042700
     58 H30        -4.8760   -3.0070    0.5200 hc        1 BJC      0.040200
     59 H30A       -3.6330   -2.9320   -0.7930 hc        1 BJC      0.040200
     60 HN35       -0.1210    0.7510    1.7280 hn        1 BJC      0.314500
     61 H37         1.1400    1.9810   -0.6700 h1        1 BJC      0.099700
     62 H39         2.2470   -0.1890    0.2630 h1        1 BJC      0.101700
     63 HO41        2.9800    1.4800    2.4170 ho        1 BJC      0.396000
     64 H43         3.3900    1.6750   -1.1210 h1        1 BJC      0.035700
     65 H43A        3.9340    2.4320    0.4430 h1        1 BJC      0.035700
     66 HN46        4.8960    0.0800    0.8110 hn        1 BJC      0.373800
     67 H48         5.9440    1.3490   -1.6100 h1        1 BJC      0.036700
     68 H48A        6.1790    2.1740   -0.0070 h1        1 BJC      0.036700
     69 H52         6.4070   -1.4380   -1.1980 ha        1 BJC      0.147000
     70 H55        10.4380   -1.8310    0.3250 ha        1 BJC      0.132000
     71 H57        10.3690    0.5320    1.1060 ha        1 BJC      0.130000
     72 H59         8.3280    1.9130    0.7480 ha        1 BJC      0.129000
     73 H61         7.4650   -3.4440   -1.4460 hc        1 BJC      0.053700
     74 H63         9.5260   -4.4690   -2.3620 hc        1 BJC      0.036367
     75 H63A        9.3890   -2.7310   -2.8630 hc        1 BJC      0.036367
     76 H63B       10.5500   -3.2080   -1.5570 hc        1 BJC      0.036367
     77 H67         7.8220   -4.0350    0.9500 hc        1 BJC      0.036367
     78 H67A        8.6240   -5.2200   -0.1640 hc        1 BJC      0.036367
     79 H67B        9.6180   -3.9830    0.7140 hc        1 BJC      0.036367
     80 H71         1.3190    2.8490    2.3210 hc        1 BJC      0.050700
     81 H71A        2.3110    3.5170    0.9590 hc        1 BJC      0.050700
     82 H75        -0.6430    3.9750    2.8660 ha        1 BJC      0.130000
     83 H77        -2.4170    5.6300    2.3190 ha        1 BJC      0.132000
     84 H79        -2.5410    6.6260    0.0330 ha        1 BJC      0.132000
     85 H81        -0.8800    5.9550   -1.7060 ha        1 BJC      0.132000
     86 H83         0.8960    4.2980   -1.1640 ha        1 BJC      0.130000
     87 H85        -6.0250   -1.4950   -3.3040 hc        1 BJC      0.047367
     88 H85A       -4.3650   -0.8580   -2.9880 hc        1 BJC      0.047367
     89 H85B       -4.7810   -2.5440   -2.4940 hc        1 BJC      0.047367
     90 H89        -6.0260    1.1050   -0.5080 hc        1 BJC      0.047367
     91 H89A       -5.2130    1.0050   -2.1290 hc        1 BJC      0.047367
     92 H89B       -6.9720    0.6210   -1.9790 hc        1 BJC      0.047367
@<TRIPOS>BOND
     1    1    2 1   
     2    1    6 1   
     3    1    8 1   
     4    2    3 1   
     5    2   42 1   
     6    2   43 1   
     7    3    4 1   
     8    3   44 1   
     9    3   45 1   
    10    4    5 1   
    11    4   46 1   
    12    4   47 1   
    13    5    6 1   
    14    5   48 1   
    15    5   49 1   
    16    6    7 2   
    17    8    9 1   
    18    8   40 1   
    19    8   41 1   
    20    9   10 1   
    21    9   14 1   
    22    9   50 1   
    23   10   11 1   
    24   10   51 1   
    25   10   52 1   
    26   11   12 1   
    27   11   15 1   
    28   11   53 1   
    29   12   13 1   
    30   12   54 1   
    31   12   55 1   
    32   13   14 1   
    33   13   56 1   
    34   13   57 1   
    35   14   58 1   
    36   14   59 1   
    37   15   16 2   
    38   15   17 1   
    39   17   18 1   
    40   17   60 1   
    41   18   19 1   
    42   18   33 1   
    43   18   61 1   
    44   19   20 1   
    45   19   21 1   
    46   19   62 1   
    47   20   63 1   
    48   21   22 1   
    49   21   64 1   
    50   21   65 1   
    51   22   23 1   
    52   22   66 1   
    53   23   24 1   
    54   23   67 1   
    55   23   68 1   
    56   24   25 ar  
    57   24   29 ar  
    58   25   26 ar  
    59   25   69 1   
    60   26   27 ar  
    61   26   30 1   
    62   27   28 ar  
    63   27   70 1   
    64   28   29 ar  
    65   28   71 1   
    66   29   72 1   
    67   30   31 1   
    68   30   32 1   
    69   30   73 1   
    70   31   74 1   
    71   31   75 1   
    72   31   76 1   
    73   32   77 1   
    74   32   78 1   
    75   32   79 1   
    76   33   34 1   
    77   33   80 1   
    78   33   81 1   
    79   34   35 ar  
    80   34   39 ar  
    81   35   36 ar  
    82   35   82 1   
    83   36   37 ar  
    84   36   83 1   
    85   37   38 ar  
    86   37   84 1   
    87   38   39 ar  
    88   38   85 1   
    89   39   86 1   
    90   40   87 1   
    91   40   88 1   
    92   40   89 1   
    93   41   90 1   
    94   41   91 1   
    95   41   92 1   
@<TRIPOS>SUBSTRUCTURE
     1 BJC         1 TEMP              0 ****  ****    0 ROOT
