@<TRIPOS>MOLECULE
BJC
   94    97     1     0     0
SMALL
bcc


@<TRIPOS>ATOM
      1 N1         -0.4170   -0.0190   -0.4210 n         1 BJC     -0.465800
      2 C2          0.8230   -0.7430   -0.2250 c3        1 BJC      0.091000
      3 C5          0.8410   -1.7060    0.9580 c3        1 BJC     -0.093400
      4 C8         -0.4190   -2.5350    1.0010 c3        1 BJC     -0.085400
      5 C11        -1.6180   -1.6250    1.1100 c3        1 BJC     -0.144400
      6 C14        -1.6160   -0.4900    0.1070 c         1 BJC      0.707500
      7 O15        -2.7070    0.0540   -0.1890 o         1 BJC     -0.700500
      8 C16        -0.4500    0.9870   -1.5000 c3        1 BJC      0.145400
      9 C17        -1.0300    2.3240   -0.9280 c3        1 BJC     -0.071700
     10 C19        -1.6970    3.1910   -1.9900 c3        1 BJC     -0.070400
     11 C22        -2.3520    4.3860   -1.2900 c3        1 BJC     -0.133700
     12 C24        -1.3090    5.2320   -0.5670 c3        1 BJC     -0.074400
     13 C27        -0.5900    4.3690    0.4530 c3        1 BJC     -0.082400
     14 C30         0.0230    3.1440   -0.1960 c3        1 BJC     -0.086400
     15 C33        -3.0790    5.2240   -2.3130 c         1 BJC      0.567100
     16 O34        -2.7020    6.2070   -2.9290 o         1 BJC     -0.446100
     17 N35        -4.5000    4.7570   -2.6120 ny        1 BJC     -0.695800
     18 C37        -5.0590    5.1880   -3.9380 c3        1 BJC      0.122500
     19 C39        -5.4170    6.7010   -3.9320 c3        1 BJC      0.099100
     20 O41        -6.2390    6.9840   -2.8120 oh        1 BJC     -0.603800
     21 C43        -6.2210    7.0570   -5.2000 c3        1 BJC      0.085800
     22 N46        -6.5650    8.5010   -5.2700 ny        1 BJC     -0.771000
     23 C48        -7.4200    8.8240   -6.4770 c3        1 BJC      0.190100
     24 C51        -7.7260   10.2770   -6.5070 ca        1 BJC     -0.211300
     25 C52        -6.8970   11.1500   -7.2240 ca        1 BJC     -0.102000
     26 C54        -7.2080   12.5100   -7.3050 ca        1 BJC     -0.049300
     27 C55        -8.3570   12.9870   -6.6560 ca        1 BJC     -0.063000
     28 C57        -9.1820   12.1180   -5.9420 ca        1 BJC     -0.114000
     29 C59        -8.8720   10.7610   -5.8640 ca        1 BJC     -0.103000
     30 C61        -6.3280   13.4380   -8.0850 c3        1 BJC     -0.033400
     31 C63        -7.0900   14.0550   -9.2440 c3        1 BJC     -0.094600
     32 C67        -5.7520   14.5210   -7.1910 c3        1 BJC     -0.094600
     33 C71        -6.2700    4.3140   -4.3160 c3        1 BJC     -0.050100
     34 C74        -6.0180    2.8630   -4.1070 ca        1 BJC     -0.183300
     35 C75        -6.4400    2.2420   -2.9230 ca        1 BJC     -0.133500
     36 C77        -6.2500    0.8730   -2.7440 ca        1 BJC     -0.105500
     37 C79        -5.6430    0.1140   -3.7480 ca        1 BJC     -0.082000
     38 C81        -5.2290    0.7270   -4.9310 ca        1 BJC     -0.105500
     39 C83        -5.4150    2.0980   -5.1120 ca        1 BJC     -0.133500
     40 C85         0.9380    1.2620   -2.1080 c3        1 BJC     -0.115100
     41 C89        -1.3120    0.4850   -2.6790 c3        1 BJC     -0.115100
     42 H2          1.6500    0.0070   -0.0610 h1        1 BJC      0.046700
     43 H2A         1.0590   -1.3230   -1.1660 h1        1 BJC      0.046700
     44 H5          0.9520   -1.1340    1.9160 hc        1 BJC      0.065200
     45 H5A         1.7410   -2.3680    0.8510 hc        1 BJC      0.065200
     46 H8         -0.4960   -3.1660    0.0770 hc        1 BJC      0.063200
     47 H8A        -0.3950   -3.2310    1.8800 hc        1 BJC      0.063200
     48 H11        -2.5670   -2.2060    0.9630 hc        1 BJC      0.083700
     49 H11A       -1.6610   -1.1590    2.1320 hc        1 BJC      0.083700
     50 H17        -1.8380    2.0580   -0.1820 hc        1 BJC      0.088700
     51 H19        -0.9400    3.5460   -2.7360 hc        1 BJC      0.057700
     52 H19A       -2.4890    2.6090   -2.5290 hc        1 BJC      0.057700
     53 H22        -3.0860    3.9980   -0.5240 hc        1 BJC      0.100700
     54 H24        -1.8040    6.0970   -0.0560 hc        1 BJC      0.064700
     55 H24A       -0.5750    5.6440   -1.3090 hc        1 BJC      0.064700
     56 H27         0.2170    4.9800    0.9380 hc        1 BJC      0.068200
     57 H27A       -1.3060    4.0570    1.2580 hc        1 BJC      0.068200
     58 H30         0.8230    3.4780   -0.9090 hc        1 BJC      0.067200
     59 H30A        0.5080    2.5080    0.5900 hc        1 BJC      0.067200
     60 HN35       -4.5130    3.7190   -2.5810 hn        1 BJC      0.478300
     61 H37        -4.2360    5.0340   -4.7000 hx        1 BJC      0.118700
     62 H39        -4.4570    7.2960   -3.9040 h1        1 BJC      0.096700
     63 HO41       -5.7790    7.6180   -2.2440 ho        1 BJC      0.441000
     64 H43        -5.6230    6.7800   -6.1140 hx        1 BJC      0.123700
     65 H43A       -7.1960    6.4860   -5.2010 hx        1 BJC      0.123700
     66 HN46       -7.0800    8.7670   -4.4190 hn        1 BJC      0.454800
     67 H48        -8.3620    8.2090   -6.3960 hx        1 BJC      0.109200
     68 H48A       -6.8440    8.5060   -7.3920 hx        1 BJC      0.109200
     69 H52        -6.0100   10.7620   -7.7490 ha        1 BJC      0.136000
     70 H55        -8.6130   14.0590   -6.7210 ha        1 BJC      0.170000
     71 H57       -10.0880   12.5030   -5.4460 ha        1 BJC      0.167000
     72 H59        -9.5400   10.0770   -5.3200 ha        1 BJC      0.137000
     73 H61        -5.4680   12.8450   -8.5130 hc        1 BJC      0.054700
     74 H63        -7.4930   13.2610   -9.9170 hc        1 BJC      0.048700
     75 H63A       -6.4070   14.7110   -9.8360 hc        1 BJC      0.048700
     76 H63B       -7.9420   14.6750   -8.8740 hc        1 BJC      0.048700
     77 H67        -5.0720   15.1780   -7.7870 hc        1 BJC      0.048700
     78 H67A       -5.1680   14.0710   -6.3540 hc        1 BJC      0.048700
     79 H67B       -6.5640   15.1550   -6.7610 hc        1 BJC      0.048700
     80 H71        -7.1640    4.6440   -3.7210 hc        1 BJC      0.084700
     81 H71A       -6.4850    4.4930   -5.4050 hc        1 BJC      0.084700
     82 H75        -6.9640    2.8230   -2.1480 ha        1 BJC      0.134000
     83 H77        -6.5860    0.3860   -1.8130 ha        1 BJC      0.165500
     84 H79        -5.5020   -0.9710   -3.6070 ha        1 BJC      0.169000
     85 H81        -4.7650    0.1270   -5.7300 ha        1 BJC      0.165500
     86 H83        -5.1040    2.5690   -6.0560 ha        1 BJC      0.134000
     87 H85         1.6900    1.5660   -1.3420 hc        1 BJC      0.049533
     88 H85A        0.8410    2.0910   -2.8510 hc        1 BJC      0.049533
     89 H85B        1.3180    0.3560   -2.6400 hc        1 BJC      0.049533
     90 H89        -0.9680   -0.5300   -2.9960 hc        1 BJC      0.049533
     91 H89A       -1.1980    1.1720   -3.5510 hc        1 BJC      0.049533
     92 H89B       -2.3890    0.4180   -2.3920 hc        1 BJC      0.049533
     93 H352       -5.1250    5.0980   -1.8700 hn        1 BJC      0.478300
     94 H462       -5.7120    9.0720   -5.3120 hn        1 BJC      0.454800
@<TRIPOS>BOND
     1    1    2 1   
     2    1    6 1   
     3    1    8 1   
     4    2    3 1   
     5    2   42 1   
     6    2   43 1   
     7    3    4 1   
     8    3   44 1   
     9    3   45 1   
    10    4    5 1   
    11    4   46 1   
    12    4   47 1   
    13    5    6 1   
    14    5   48 1   
    15    5   49 1   
    16    6    7 2   
    17    8    9 1   
    18    8   40 1   
    19    8   41 1   
    20    9   10 1   
    21    9   14 1   
    22    9   50 1   
    23   10   11 1   
    24   10   51 1   
    25   10   52 1   
    26   11   12 1   
    27   11   15 1   
    28   11   53 1   
    29   12   13 1   
    30   12   54 1   
    31   12   55 1   
    32   13   14 1   
    33   13   56 1   
    34   13   57 1   
    35   14   58 1   
    36   14   59 1   
    37   15   16 2   
    38   15   17 1   
    39   17   18 1   
    40   17   60 1   
    41   17   93 1   
    42   18   19 1   
    43   18   33 1   
    44   18   61 1   
    45   19   20 1   
    46   19   21 1   
    47   19   62 1   
    48   20   63 1   
    49   21   22 1   
    50   21   64 1   
    51   21   65 1   
    52   22   23 1   
    53   22   66 1   
    54   22   94 1   
    55   23   24 1   
    56   23   67 1   
    57   23   68 1   
    58   24   25 ar  
    59   24   29 ar  
    60   25   26 ar  
    61   25   69 1   
    62   26   27 ar  
    63   26   30 1   
    64   27   28 ar  
    65   27   70 1   
    66   28   29 ar  
    67   28   71 1   
    68   29   72 1   
    69   30   31 1   
    70   30   32 1   
    71   30   73 1   
    72   31   74 1   
    73   31   75 1   
    74   31   76 1   
    75   32   77 1   
    76   32   78 1   
    77   32   79 1   
    78   33   34 1   
    79   33   80 1   
    80   33   81 1   
    81   34   35 ar  
    82   34   39 ar  
    83   35   36 ar  
    84   35   82 1   
    85   36   37 ar  
    86   36   83 1   
    87   37   38 ar  
    88   37   84 1   
    89   38   39 ar  
    90   38   85 1   
    91   39   86 1   
    92   40   87 1   
    93   40   88 1   
    94   40   89 1   
    95   41   90 1   
    96   41   91 1   
    97   41   92 1   
@<TRIPOS>SUBSTRUCTURE
     1 BJC         1 TEMP              0 ****  ****    0 ROOT
