@<TRIPOS>MOLECULE
BJC
   94    97     1     0     0
SMALL
bcc


@<TRIPOS>ATOM
      1 N1         -0.4370   -0.0220   -0.3980 n         1 BJC     -0.465800
      2 C2          0.8040   -0.7370   -0.1800 c3        1 BJC      0.091000
      3 C5          0.8030   -1.7140    0.9920 c3        1 BJC     -0.093400
      4 C8         -0.4510   -2.5530    0.9960 c3        1 BJC     -0.085400
      5 C11        -1.6600   -1.6560    1.0860 c3        1 BJC     -0.144400
      6 C14        -1.6440   -0.5090    0.0960 c         1 BJC      0.707500
      7 O15        -2.7330    0.0280   -0.2200 o         1 BJC     -0.700500
      8 C16        -0.4530    0.9960   -1.4670 c3        1 BJC      0.145400
      9 C17        -1.0600    2.3210   -0.8950 c3        1 BJC     -0.071700
     10 C19        -1.7080    3.1940   -1.9630 c3        1 BJC     -0.070400
     11 C22        -2.3900    4.3750   -1.2660 c3        1 BJC     -0.133700
     12 C24        -1.3730    5.2220   -0.5080 c3        1 BJC     -0.074400
     13 C27        -0.6710    4.3540    0.5190 c3        1 BJC     -0.082400
     14 C30        -0.0320    3.1420   -0.1280 c3        1 BJC     -0.086400
     15 C33        -3.1010    5.2170   -2.2960 c         1 BJC      0.566100
     16 O34        -2.7190    6.2110   -2.8930 o         1 BJC     -0.446100
     17 N35        -4.5100    4.7410   -2.6350 n4        1 BJC     -0.695800
     18 C37        -5.0410    5.1840   -3.9680 c3        1 BJC      0.122500
     19 C39        -5.4150    6.6940   -3.9510 c3        1 BJC      0.099100
     20 O41        -6.2660    6.9530   -2.8480 oh        1 BJC     -0.603800
     21 C43        -6.1920    7.0590   -5.2330 c3        1 BJC      0.085800
     22 N46        -6.5490    8.4990   -5.2920 n4        1 BJC     -0.771000
     23 C48        -7.3790    8.8310   -6.5150 c3        1 BJC      0.190100
     24 C51        -7.7020   10.2800   -6.5320 ca        1 BJC     -0.211300
     25 C52        -6.8670   11.1720   -7.2180 ca        1 BJC     -0.102000
     26 C54        -7.1920   12.5300   -7.2860 ca        1 BJC     -0.049300
     27 C55        -8.3610   12.9840   -6.6560 ca        1 BJC     -0.063000
     28 C57        -9.1910   12.0950   -5.9730 ca        1 BJC     -0.114000
     29 C59        -8.8670   10.7420   -5.9070 ca        1 BJC     -0.103000
     30 C61        -6.3070   13.4800   -8.0340 c3        1 BJC     -0.033400
     31 C63        -7.0500   14.1040   -9.2010 c3        1 BJC     -0.094600
     32 C67        -5.7630   14.5560   -7.1130 c3        1 BJC     -0.094600
     33 C71        -6.2340    4.3030   -4.3870 c3        1 BJC     -0.050100
     34 C74        -5.9730    2.8530   -4.1900 ca        1 BJC     -0.183300
     35 C75        -6.4170    2.2110   -3.0240 ca        1 BJC     -0.133500
     36 C77        -6.2170    0.8420   -2.8590 ca        1 BJC     -0.105500
     37 C79        -5.5790    0.1030   -3.8570 ca        1 BJC     -0.082000
     38 C81        -5.1430    0.7350   -5.0220 ca        1 BJC     -0.105500
     39 C83        -5.3380    2.1060   -5.1900 ca        1 BJC     -0.133500
     40 C85         0.9460    1.2900   -2.0380 c3        1 BJC     -0.115100
     41 C89        -1.2830    0.4990   -2.6710 c3        1 BJC     -0.115100
     42 H2          1.0680   -1.3040   -1.1210 h1        1 BJC      0.046700
     43 H2A         1.6210    0.0180    0.0120 h1        1 BJC      0.046700
     44 H5          0.8860   -1.1510    1.9590 hc        1 BJC      0.065200
     45 H5A         1.7110   -2.3650    0.9000 hc        1 BJC      0.065200
     46 H8         -0.4410   -3.2600    1.8670 hc        1 BJC      0.063200
     47 H8A        -0.4990   -3.1750    0.0630 hc        1 BJC      0.063200
     48 H11        -2.6000   -2.2430    0.9100 hc        1 BJC      0.083700
     49 H11A       -1.7310   -1.2020    2.1120 hc        1 BJC      0.083700
     50 H17        -1.8820    2.0400   -0.1710 hc        1 BJC      0.088700
     51 H19        -2.4820    2.6110   -2.5260 hc        1 BJC      0.057700
     52 H19A       -0.9370    3.5630   -2.6860 hc        1 BJC      0.057700
     53 H22        -3.1390    3.9720   -0.5220 hc        1 BJC      0.100700
     54 H24        -0.6260    5.6480   -1.2280 hc        1 BJC      0.064700
     55 H24A       -1.8890    6.0770    0.0000 hc        1 BJC      0.064700
     56 H27        -1.4040    4.0270    1.3040 hc        1 BJC      0.068200
     57 H27A        0.1180    4.9670    1.0300 hc        1 BJC      0.068200
     58 H30         0.7820    3.4910   -0.8180 hc        1 BJC      0.067200
     59 H30A        0.4410    2.5020    0.6630 hc        1 BJC      0.067200
     60 HN35       -5.1550    5.0670   -1.9040 hn        1 BJC      0.478300
     61 H37        -4.1990    5.0480   -4.7130 hx        1 BJC      0.118700
     62 H39        -4.4630    7.2970   -3.8920 h1        1 BJC      0.096700
     63 HO41       -5.8270    7.5840   -2.2600 ho        1 BJC      0.441000
     64 H43        -7.1610    6.4780   -5.2660 hx        1 BJC      0.123700
     65 H43A       -5.5690    6.8000   -6.1360 hx        1 BJC      0.123700
     66 HN46       -5.7020    9.0800   -5.3050 hn        1 BJC      0.454800
     67 H48        -8.3150    8.2040   -6.4660 hx        1 BJC      0.109200
     68 H48A       -6.7770    8.5320   -7.4200 hx        1 BJC      0.109200
     69 H52        -5.9640   10.8030   -7.7280 ha        1 BJC      0.136000
     70 H55        -8.6280   14.0540   -6.7120 ha        1 BJC      0.170000
     71 H57       -10.1130   12.4630   -5.4920 ha        1 BJC      0.167000
     72 H59        -9.5390   10.0420   -5.3880 ha        1 BJC      0.137000
     73 H61        -5.4300   12.9020   -8.4510 hc        1 BJC      0.054700
     74 H63        -7.9170   14.7090   -8.8410 hc        1 BJC      0.048700
     75 H63A       -7.4290   13.3150   -9.8940 hc        1 BJC      0.048700
     76 H63B       -6.3620   14.7760   -9.7690 hc        1 BJC      0.048700
     77 H67        -6.5920   15.1740   -6.6910 hc        1 BJC      0.048700
     78 H67A       -5.0780   15.2290   -7.6840 hc        1 BJC      0.048700
     79 H67B       -5.1920   14.1010   -6.2690 hc        1 BJC      0.048700
     80 H71        -7.1460    4.6170   -3.8090 hc        1 BJC      0.084700
     81 H71A       -6.4250    4.4940   -5.4780 hc        1 BJC      0.084700
     82 H75        -6.9640    2.7770   -2.2550 ha        1 BJC      0.134000
     83 H77        -6.5700    0.3400   -1.9430 ha        1 BJC      0.165500
     84 H79        -5.4300   -0.9820   -3.7280 ha        1 BJC      0.169000
     85 H81        -4.6540    0.1500   -5.8180 ha        1 BJC      0.165500
     86 H83        -5.0100    2.5930   -6.1210 ha        1 BJC      0.134000
     87 H85         0.8600    2.1260   -2.7740 hc        1 BJC      0.049533
     88 H85A        1.6770    1.5920   -1.2510 hc        1 BJC      0.049533
     89 H85B        1.3470    0.3930   -2.5700 hc        1 BJC      0.049533
     90 H89        -2.3650    0.4190   -2.4110 hc        1 BJC      0.049533
     91 H89A       -1.1540    1.1960   -3.5330 hc        1 BJC      0.049533
     92 H89B       -0.9210   -0.5090   -2.9910 hc        1 BJC      0.049533
     93 H352       -4.5130    3.7020   -2.6180 hn        1 BJC      0.478300
     94 H462       -7.0870    8.7490   -4.4500 hn        1 BJC      0.454800
@<TRIPOS>BOND
     1    1    2 1   
     2    1    6 1   
     3    1    8 1   
     4    2    3 1   
     5    2   42 1   
     6    2   43 1   
     7    3    4 1   
     8    3   44 1   
     9    3   45 1   
    10    4    5 1   
    11    4   46 1   
    12    4   47 1   
    13    5    6 1   
    14    5   48 1   
    15    5   49 1   
    16    6    7 2   
    17    8    9 1   
    18    8   40 1   
    19    8   41 1   
    20    9   10 1   
    21    9   14 1   
    22    9   50 1   
    23   10   11 1   
    24   10   51 1   
    25   10   52 1   
    26   11   12 1   
    27   11   15 1   
    28   11   53 1   
    29   12   13 1   
    30   12   54 1   
    31   12   55 1   
    32   13   14 1   
    33   13   56 1   
    34   13   57 1   
    35   14   58 1   
    36   14   59 1   
    37   15   16 2   
    38   15   17 1   
    39   17   18 1   
    40   17   60 1   
    41   17   93 1   
    42   18   19 1   
    43   18   33 1   
    44   18   61 1   
    45   19   20 1   
    46   19   21 1   
    47   19   62 1   
    48   20   63 1   
    49   21   22 1   
    50   21   64 1   
    51   21   65 1   
    52   22   23 1   
    53   22   66 1   
    54   22   94 1   
    55   23   24 1   
    56   23   67 1   
    57   23   68 1   
    58   24   25 ar  
    59   24   29 ar  
    60   25   26 ar  
    61   25   69 1   
    62   26   27 ar  
    63   26   30 1   
    64   27   28 ar  
    65   27   70 1   
    66   28   29 ar  
    67   28   71 1   
    68   29   72 1   
    69   30   31 1   
    70   30   32 1   
    71   30   73 1   
    72   31   74 1   
    73   31   75 1   
    74   31   76 1   
    75   32   77 1   
    76   32   78 1   
    77   32   79 1   
    78   33   34 1   
    79   33   80 1   
    80   33   81 1   
    81   34   35 ar  
    82   34   39 ar  
    83   35   36 ar  
    84   35   82 1   
    85   36   37 ar  
    86   36   83 1   
    87   37   38 ar  
    88   37   84 1   
    89   38   39 ar  
    90   38   85 1   
    91   39   86 1   
    92   40   87 1   
    93   40   88 1   
    94   40   89 1   
    95   41   90 1   
    96   41   91 1   
    97   41   92 1   
@<TRIPOS>SUBSTRUCTURE
     1 BJC         1 TEMP              0 ****  ****    0 ROOT
