@<TRIPOS>MOLECULE
BJC
   94    97     1     0     0
SMALL
bcc


@<TRIPOS>ATOM
      1 N1         -0.4340   -0.0200   -0.4050 n         1 BJC     -0.465800
      2 C2          0.8070   -0.7400   -0.2020 c3        1 BJC      0.091000
      3 C5          0.8180   -1.7090    0.9770 c3        1 BJC     -0.093400
      4 C8         -0.4400   -2.5420    1.0040 c3        1 BJC     -0.085400
      5 C11        -1.6440   -1.6380    1.1060 c3        1 BJC     -0.144400
      6 C14        -1.6360   -0.4980    0.1080 c         1 BJC      0.707500
      7 O15        -2.7260    0.0440   -0.1950 o         1 BJC     -0.700500
      8 C16        -0.4600    0.9920   -1.4800 c3        1 BJC      0.145400
      9 C17        -1.0510    2.3230   -0.9080 c3        1 BJC     -0.072700
     10 C19        -1.7090    3.1940   -1.9720 c3        1 BJC     -0.070400
     11 C22        -2.3750    4.3830   -1.2730 c3        1 BJC     -0.133700
     12 C24        -1.3420    5.2290   -0.5350 c3        1 BJC     -0.074400
     13 C27        -0.6310    4.3620    0.4880 c3        1 BJC     -0.082400
     14 C30        -0.0080    3.1430   -0.1610 c3        1 BJC     -0.086400
     15 C33        -3.0940    5.2230   -2.2990 c         1 BJC      0.567100
     16 O34        -2.7130    6.2100   -2.9070 o         1 BJC     -0.446100
     17 N35        -4.5110    4.7540   -2.6140 n4        1 BJC     -0.695800
     18 C37        -5.0560    5.1870   -3.9450 c3        1 BJC      0.122500
     19 C39        -5.4170    6.7000   -3.9390 c3        1 BJC      0.099100
     20 O41        -6.2520    6.9780   -2.8280 oh        1 BJC     -0.603800
     21 C43        -6.2090    7.0580   -5.2150 c3        1 BJC      0.085800
     22 N46        -6.5550    8.5010   -5.2850 n4        1 BJC     -0.771000
     23 C48        -7.3980    8.8250   -6.5000 c3        1 BJC      0.189100
     24 C51        -7.7070   10.2770   -6.5310 ca        1 BJC     -0.211300
     25 C52        -6.8720   11.1530   -7.2360 ca        1 BJC     -0.102000
     26 C54        -7.1840   12.5140   -7.3170 ca        1 BJC     -0.049300
     27 C55        -8.3410   12.9860   -6.6800 ca        1 BJC     -0.063000
     28 C57        -9.1720   12.1140   -5.9770 ca        1 BJC     -0.114000
     29 C59        -8.8600   10.7580   -5.8990 ca        1 BJC     -0.103000
     30 C61        -6.2980   13.4450   -8.0860 c3        1 BJC     -0.033400
     31 C63        -7.0480   14.0630   -9.2520 c3        1 BJC     -0.094600
     32 C67        -5.7340   14.5270   -7.1840 c3        1 BJC     -0.094600
     33 C71        -6.2610    4.3120   -4.3390 c3        1 BJC     -0.050100
     34 C74        -6.0080    2.8610   -4.1300 ca        1 BJC     -0.183300
     35 C75        -6.4420    2.2360   -2.9520 ca        1 BJC     -0.133500
     36 C77        -6.2510    0.8680   -2.7740 ca        1 BJC     -0.105500
     37 C79        -5.6320    0.1120   -3.7730 ca        1 BJC     -0.082000
     38 C81        -5.2060    0.7290   -4.9500 ca        1 BJC     -0.105500
     39 C83        -5.3930    2.1000   -5.1300 ca        1 BJC     -0.133500
     40 C85         0.9330    1.2740   -2.0740 c3        1 BJC     -0.115100
     41 C89        -1.3090    0.4920   -2.6700 c3        1 BJC     -0.115100
     42 H2          1.6300    0.0110   -0.0260 h1        1 BJC      0.046700
     43 H2A         1.0540   -1.3150   -1.1430 h1        1 BJC      0.046700
     44 H5          0.9170   -1.1410    1.9390 hc        1 BJC      0.065200
     45 H5A         1.7200   -2.3670    0.8760 hc        1 BJC      0.065200
     46 H8         -0.4220   -3.2430    1.8800 hc        1 BJC      0.063200
     47 H8A        -0.5060   -3.1700    0.0760 hc        1 BJC      0.063200
     48 H11        -1.6970   -1.1770    2.1300 hc        1 BJC      0.083700
     49 H11A       -2.5890   -2.2210    0.9470 hc        1 BJC      0.083700
     50 H17        -1.8650    2.0510   -0.1720 hc        1 BJC      0.088700
     51 H19        -2.4930    2.6120   -2.5210 hc        1 BJC      0.057700
     52 H19A       -0.9450    3.5540   -2.7080 hc        1 BJC      0.057700
     53 H22        -3.1150    3.9890   -0.5160 hc        1 BJC      0.100700
     54 H24        -0.6020    5.6460   -1.2670 hc        1 BJC      0.064700
     55 H24A       -1.8460    6.0890   -0.0240 hc        1 BJC      0.064700
     56 H27         0.1690    4.9730    0.9850 hc        1 BJC      0.068200
     57 H27A       -1.3540    4.0450    1.2850 hc        1 BJC      0.068200
     58 H30         0.7980    3.4830   -0.8630 hc        1 BJC      0.067200
     59 H30A        0.4720    2.5050    0.6270 hc        1 BJC      0.067200
     60 HN35       -5.1440    5.0930   -1.8790 hn        1 BJC      0.478300
     61 H37        -4.2250    5.0370   -4.6990 hx        1 BJC      0.118700
     62 H39        -4.4600    7.2970   -3.8990 h1        1 BJC      0.096700
     63 HO41       -5.7990    7.6120   -2.2520 ho        1 BJC      0.441000
     64 H43        -7.1830    6.4850   -5.2280 hx        1 BJC      0.123700
     65 H43A       -5.6010    6.7840   -6.1230 hx        1 BJC      0.123700
     66 HN46       -5.7030    9.0730   -5.3160 hn        1 BJC      0.454800
     67 H48        -6.8110    8.5100   -7.4100 hx        1 BJC      0.109200
     68 H48A       -8.3390    8.2080   -6.4310 hx        1 BJC      0.109200
     69 H52        -5.9780   10.7690   -7.7530 ha        1 BJC      0.136000
     70 H55        -8.5990   14.0580   -6.7450 ha        1 BJC      0.170000
     71 H57       -10.0850   12.4970   -5.4900 ha        1 BJC      0.167000
     72 H59        -9.5330   10.0710   -5.3630 ha        1 BJC      0.137000
     73 H61        -5.4320   12.8550   -8.5060 hc        1 BJC      0.054700
     74 H63        -7.9050   14.6810   -8.8900 hc        1 BJC      0.048700
     75 H63A       -7.4420   13.2700   -9.9310 hc        1 BJC      0.048700
     76 H63B       -6.3600   14.7220   -9.8350 hc        1 BJC      0.048700
     77 H67        -5.0490   15.1870   -7.7700 hc        1 BJC      0.048700
     78 H67A       -5.1580   14.0760   -6.3410 hc        1 BJC      0.048700
     79 H67B       -6.5520   15.1580   -6.7610 hc        1 BJC      0.048700
     80 H71        -6.4650    4.4930   -5.4300 hc        1 BJC      0.084700
     81 H71A       -7.1620    4.6390   -3.7520 hc        1 BJC      0.084700
     82 H75        -6.9750    2.8150   -2.1820 ha        1 BJC      0.134000
     83 H77        -6.5960    0.3780   -1.8490 ha        1 BJC      0.165500
     84 H79        -5.4890   -0.9730   -3.6340 ha        1 BJC      0.169000
     85 H81        -4.7320    0.1320   -5.7460 ha        1 BJC      0.165500
     86 H83        -5.0730    2.5740   -6.0700 ha        1 BJC      0.134000
     87 H85         0.8400    2.1060   -2.8140 hc        1 BJC      0.049533
     88 H85A        1.3210    0.3720   -2.6060 hc        1 BJC      0.049533
     89 H85B        1.6760    1.5770   -1.2990 hc        1 BJC      0.049533
     90 H89        -2.3880    0.4200   -2.3930 hc        1 BJC      0.049533
     91 H89A       -0.9590   -0.5210   -2.9880 hc        1 BJC      0.049533
     92 H89B       -1.1890    1.1830   -3.5380 hc        1 BJC      0.049533
     93 H352       -4.5220    3.7160   -2.5860 hn        1 BJC      0.478300
     94 H462       -7.0800    8.7640   -4.4390 hn        1 BJC      0.454800
@<TRIPOS>BOND
     1    1    2 1   
     2    1    6 1   
     3    1    8 1   
     4    2    3 1   
     5    2   42 1   
     6    2   43 1   
     7    3    4 1   
     8    3   44 1   
     9    3   45 1   
    10    4    5 1   
    11    4   46 1   
    12    4   47 1   
    13    5    6 1   
    14    5   48 1   
    15    5   49 1   
    16    6    7 2   
    17    8    9 1   
    18    8   40 1   
    19    8   41 1   
    20    9   10 1   
    21    9   14 1   
    22    9   50 1   
    23   10   11 1   
    24   10   51 1   
    25   10   52 1   
    26   11   12 1   
    27   11   15 1   
    28   11   53 1   
    29   12   13 1   
    30   12   54 1   
    31   12   55 1   
    32   13   14 1   
    33   13   56 1   
    34   13   57 1   
    35   14   58 1   
    36   14   59 1   
    37   15   16 2   
    38   15   17 1   
    39   17   18 1   
    40   17   60 1   
    41   17   93 1   
    42   18   19 1   
    43   18   33 1   
    44   18   61 1   
    45   19   20 1   
    46   19   21 1   
    47   19   62 1   
    48   20   63 1   
    49   21   22 1   
    50   21   64 1   
    51   21   65 1   
    52   22   23 1   
    53   22   66 1   
    54   22   94 1   
    55   23   24 1   
    56   23   67 1   
    57   23   68 1   
    58   24   25 ar  
    59   24   29 ar  
    60   25   26 ar  
    61   25   69 1   
    62   26   27 ar  
    63   26   30 1   
    64   27   28 ar  
    65   27   70 1   
    66   28   29 ar  
    67   28   71 1   
    68   29   72 1   
    69   30   31 1   
    70   30   32 1   
    71   30   73 1   
    72   31   74 1   
    73   31   75 1   
    74   31   76 1   
    75   32   77 1   
    76   32   78 1   
    77   32   79 1   
    78   33   34 1   
    79   33   80 1   
    80   33   81 1   
    81   34   35 ar  
    82   34   39 ar  
    83   35   36 ar  
    84   35   82 1   
    85   36   37 ar  
    86   36   83 1   
    87   37   38 ar  
    88   37   84 1   
    89   38   39 ar  
    90   38   85 1   
    91   39   86 1   
    92   40   87 1   
    93   40   88 1   
    94   40   89 1   
    95   41   90 1   
    96   41   91 1   
    97   41   92 1   
@<TRIPOS>SUBSTRUCTURE
     1 BJC         1 TEMP              0 ****  ****    0 ROOT
