@<TRIPOS>MOLECULE
BJG
   69    73     1     0     0
SMALL
bcc


@<TRIPOS>ATOM
      1 C8         -0.9720    0.5640   -0.9220 c3        1 BJG      0.200800
      2 C9          0.4760    0.3380   -1.3990 c3        1 BJG      0.156300
      3 N10         1.2210   -0.5480   -0.5230 n3        1 BJG     -0.729600
      4 C35         2.5310   -0.8860   -1.0370 c3        1 BJG      0.151100
      5 C11         1.2600   -0.0060    0.8240 c3        1 BJG      0.156300
      6 C12        -0.1450    0.2060    1.4200 c3        1 BJG      0.200800
      7 N7         -1.1420    0.7410    0.5090 nh        1 BJG     -0.617000
      8 C16        -2.3710    1.0980    0.9980 ca        1 BJG      0.264600
      9 C17        -2.6380    1.1410    2.4050 ca        1 BJG     -0.212500
     10 C18        -3.8410    1.5930    2.8990 ca        1 BJG     -0.028000
     11 C15        -3.4450    1.4810    0.1290 ca        1 BJG     -0.212500
     12 C14        -4.6490    1.9320    0.6240 ca        1 BJG     -0.028000
     13 C13        -4.8540    2.0210    2.0160 ca        1 BJG     -0.192400
     14 N34        -6.1000    2.5680    2.5400 n4        1 BJG     -0.577100
     15 C23        -7.0780    1.4920    2.9150 ca        1 BJG      0.732900
     16 N24        -8.1070    1.2630    2.0410 nb        1 BJG     -0.688000
     17 N22        -6.8290    0.8350    4.0960 nb        1 BJG     -0.651000
     18 C21        -7.7020   -0.1410    4.4080 ca        1 BJG      0.474200
     19 C20        -8.7970   -0.4720    3.5860 ca        1 BJG     -0.314600
     20 C19        -8.9690    0.2650    2.3910 ca        1 BJG      0.542800
     21 C29       -10.0860   -0.0750    1.5120 cc        1 BJG     -0.183800
     22 N25       -10.7540    0.8160    0.6430 na        1 BJG      0.003900
     23 C33       -10.4730    2.2170    0.4840 c3        1 BJG      0.000600
     24 C28       -10.6680   -1.3450    1.3860 cd        1 BJG     -0.115000
     25 C27       -11.7240   -1.2350    0.4180 cd        1 BJG     -0.308600
     26 C30       -12.6090   -2.2460   -0.0630 c         1 BJG      0.610700
     27 O31       -13.5510   -2.2080   -0.8400 o         1 BJG     -0.409100
     28 N32       -12.3460   -3.6540    0.4810 n4        1 BJG     -0.765400
     29 C26       -11.7530    0.1310   -0.0200 cc        1 BJG      0.149700
     30 C1        -12.6320    0.7370   -1.0180 ca        1 BJG     -0.122000
     31 C2        -12.2180    0.7140   -2.3590 ca        1 BJG     -0.098000
     32 C3        -13.0400    1.2590   -3.3450 ca        1 BJG      0.011400
     33 CL1       -12.5430    1.2280   -4.9620 cl        1 BJG     -0.037400
     34 C4        -14.2730    1.8310   -2.9990 ca        1 BJG     -0.071000
     35 C5        -14.6700    1.8550   -1.6680 ca        1 BJG     -0.118000
     36 C6        -13.8600    1.3140   -0.6570 ca        1 BJG     -0.030300
     37 C36       -14.3330    1.3750    0.7450 c3        1 BJG     -0.071800
     38 H81C       -1.3400    1.4950   -1.4440 h1        1 BJG      0.058200
     39 H82C       -1.6030   -0.3100   -1.2550 h1        1 BJG      0.058200
     40 H91C        0.4190   -0.1330   -2.4210 h1        1 BJG      0.057700
     41 H92C        0.9790    1.3440   -1.5090 h1        1 BJG      0.057700
     42 H351        2.4080   -1.3630   -2.0440 h1        1 BJG      0.048700
     43 H352        3.2100    0.0040   -1.1390 h1        1 BJG      0.048700
     44 H353        3.0080   -1.6260   -0.3430 h1        1 BJG      0.048700
     45 H111        1.8200    0.9740    0.8680 h1        1 BJG      0.057700
     46 H112        1.7960   -0.7400    1.4890 h1        1 BJG      0.057700
     47 H121       -0.5190   -0.7800    1.8240 h1        1 BJG      0.058200
     48 H122       -0.0230    0.9260    2.2810 h1        1 BJG      0.058200
     49 H17        -1.8760    0.8090    3.1300 ha        1 BJG      0.165000
     50 H15        -3.3260    1.4230   -0.9650 ha        1 BJG      0.165000
     51 H18        -3.9990    1.6150    3.9920 ha        1 BJG      0.149500
     52 H14        -5.4420    2.2260   -0.0850 ha        1 BJG      0.149500
     53 H34        -5.8900    3.1180    3.3870 hn        1 BJG      0.474300
     54 H21        -7.5080   -0.6690    5.3650 h4        1 BJG      0.079100
     55 H20        -9.5000   -1.2650    3.8770 ha        1 BJG      0.182000
     56 H28       -10.3580   -2.2370    1.9250 ha        1 BJG      0.158000
     57 H331      -10.4130    2.7070    1.4920 h1        1 BJG      0.084700
     58 H332       -9.5010    2.3480   -0.0620 h1        1 BJG      0.084700
     59 H333      -11.2990    2.6960   -0.1120 h1        1 BJG      0.084700
     60 H321      -13.0170   -4.3110    0.0620 hn        1 BJG      0.464467
     61 H322      -12.4590   -3.6620    1.4970 hn        1 BJG      0.464467
     62 H2        -11.2520    0.2630   -2.6320 ha        1 BJG      0.151000
     63 H4        -14.9250    2.2580   -3.7800 ha        1 BJG      0.177000
     64 H5        -15.6400    2.3040   -1.3950 ha        1 BJG      0.166000
     65 H361      -13.6710    0.8010    1.4370 hc        1 BJG      0.058700
     66 H362      -15.3690    0.9570    0.8210 hc        1 BJG      0.058700
     67 H363      -14.3680    2.4400    1.0910 hc        1 BJG      0.058700
     68 H342       -6.5250    3.1800    1.8300 hn        1 BJG      0.474300
     69 H323      -11.3960   -3.9460    0.2460 hn        1 BJG      0.464467
@<TRIPOS>BOND
     1    1    2 1   
     2    1    7 1   
     3    1   38 1   
     4    1   39 1   
     5    2    3 1   
     6    2   40 1   
     7    2   41 1   
     8    3    4 1   
     9    3    5 1   
    10    4   42 1   
    11    4   43 1   
    12    4   44 1   
    13    5    6 1   
    14    5   45 1   
    15    5   46 1   
    16    6    7 1   
    17    6   47 1   
    18    6   48 1   
    19    7    8 1   
    20    8    9 ar  
    21    8   11 ar  
    22    9   10 ar  
    23    9   49 1   
    24   10   13 ar  
    25   10   51 1   
    26   11   12 ar  
    27   11   50 1   
    28   12   13 ar  
    29   12   52 1   
    30   13   14 1   
    31   14   15 1   
    32   14   53 1   
    33   14   68 1   
    34   15   16 ar  
    35   15   17 ar  
    36   16   20 ar  
    37   17   18 ar  
    38   18   19 ar  
    39   18   54 1   
    40   19   20 ar  
    41   19   55 1   
    42   20   21 1   
    43   21   22 1   
    44   21   24 2   
    45   22   23 1   
    46   22   29 1   
    47   23   57 1   
    48   23   58 1   
    49   23   59 1   
    50   24   25 1   
    51   24   56 1   
    52   25   26 1   
    53   25   29 2   
    54   26   27 2   
    55   26   28 1   
    56   28   60 1   
    57   28   61 1   
    58   28   69 1   
    59   29   30 1   
    60   30   31 ar  
    61   30   36 ar  
    62   31   32 ar  
    63   31   62 1   
    64   32   33 1   
    65   32   34 ar  
    66   34   35 ar  
    67   34   63 1   
    68   35   36 ar  
    69   35   64 1   
    70   36   37 1   
    71   37   65 1   
    72   37   66 1   
    73   37   67 1   
@<TRIPOS>SUBSTRUCTURE
     1 BJG         1 TEMP              0 ****  ****    0 ROOT
