@<TRIPOS>MOLECULE
BJG
   68    72     1     0     0
SMALL
bcc


@<TRIPOS>ATOM
      1 C8          0.4150   -0.2260    0.2370 c3        1 BJG      0.188800
      2 C9          1.9230    0.0930    0.2960 c3        1 BJG      0.163800
      3 N10         2.3420    0.6070    1.5910 n3        1 BJG     -0.732600
      4 C35         3.7580    0.8910    1.6450 c3        1 BJG      0.155100
      5 C11         1.5270    1.7360    2.0130 c3        1 BJG      0.163800
      6 C12         0.0160    1.4320    1.9700 c3        1 BJG      0.188800
      7 N7         -0.4110    0.8790    0.6940 nh        1 BJG     -0.639000
      8 C16        -1.8020    0.7540    0.5010 ca        1 BJG      0.165600
      9 C17        -2.6570    1.8550    0.7640 ca        1 BJG     -0.170000
     10 C18        -4.0150    1.7880    0.5020 ca        1 BJG     -0.093500
     11 C15        -2.3920   -0.4110   -0.0400 ca        1 BJG     -0.170000
     12 C14        -3.7520   -0.4750   -0.3190 ca        1 BJG     -0.093500
     13 C13        -4.5880    0.6220   -0.0490 ca        1 BJG      0.062600
     14 N34        -5.9670    0.6020   -0.3830 nu        1 BJG     -0.694300
     15 C23        -6.8650   -0.2910    0.2000 ca        1 BJG      0.895900
     16 N24        -8.2200   -0.0110    0.0270 nb        1 BJG     -0.778000
     17 N22        -6.3770   -1.4280    0.8540 nb        1 BJG     -0.707000
     18 C21        -7.2900   -2.2870    1.3080 ca        1 BJG      0.478200
     19 C20        -8.6830   -2.1060    1.1580 ca        1 BJG     -0.418600
     20 C19        -9.0920   -0.9330    0.4950 ca        1 BJG      0.527800
     21 C29       -10.5300   -0.7230    0.2860 cc        1 BJG     -0.120800
     22 N25       -11.1750    0.5320    0.2330 na        1 BJG      0.008900
     23 C33       -10.5390    1.8120    0.3890 c3        1 BJG      0.001600
     24 C28       -11.4820   -1.7250    0.0860 cd        1 BJG     -0.160000
     25 C27       -12.7560   -1.0740   -0.0970 cd        1 BJG     -0.315600
     26 C30       -14.0190   -1.6760   -0.3340 c         1 BJG      0.616700
     27 O31       -15.1570   -1.2380   -0.4280 o         1 BJG     -0.443100
     28 N32       -13.9600   -3.2020   -0.5180 nz        1 BJG     -0.767400
     29 C26       -12.5210    0.3370    0.0040 cc        1 BJG      0.118700
     30 C1        -13.4950    1.4170   -0.1320 ca        1 BJG     -0.098000
     31 C2        -13.8550    1.8310   -1.4220 ca        1 BJG     -0.091000
     32 C3        -14.8000    2.8450   -1.5830 ca        1 BJG      0.010400
     33 Cl1       -15.2370    3.3440   -3.1420 cl        1 BJG     -0.054400
     34 C4        -15.3860    3.4490   -0.4630 ca        1 BJG     -0.083000
     35 C5        -15.0180    3.0360    0.8130 ca        1 BJG     -0.120000
     36 C6        -14.0680    2.0220    0.9990 ca        1 BJG     -0.036300
     37 C36       -13.6820    1.6240    2.3720 c3        1 BJG     -0.067800
     38 H81C        0.1580   -0.4380   -0.8390 h1        1 BJG      0.045950
     39 H82C        0.2190   -1.1590    0.8420 h1        1 BJG      0.045950
     40 H91C        2.1740    0.8080   -0.5410 h1        1 BJG      0.042950
     41 H92C        2.4790   -0.8680    0.1090 h1        1 BJG      0.042950
     42 H351        4.0760    1.7060    0.9380 h1        1 BJG      0.037033
     43 H352        4.0230    1.2000    2.6890 h1        1 BJG      0.037033
     44 H353        4.3220   -0.0430    1.3900 h1        1 BJG      0.037033
     45 H111        1.7300    2.6550    1.3890 h1        1 BJG      0.042950
     46 H112        1.7940    1.9750    3.0800 h1        1 BJG      0.042950
     47 H121       -0.2360    0.7260    2.8140 h1        1 BJG      0.045950
     48 H122       -0.5250    2.4010    2.1520 h1        1 BJG      0.045950
     49 H17        -2.2490    2.7940    1.1700 ha        1 BJG      0.143500
     50 H15        -1.7830   -1.3030   -0.2540 ha        1 BJG      0.143500
     51 H18        -4.6410    2.6680    0.7200 ha        1 BJG      0.138500
     52 H14        -4.1650   -1.4020   -0.7470 ha        1 BJG      0.138500
     53 H34        -6.3420    1.4790   -0.6780 hn        1 BJG      0.446800
     54 H21        -6.8890   -3.1780    1.8300 h4        1 BJG      0.041100
     55 H20        -9.3970   -2.8340    1.5520 ha        1 BJG      0.150000
     56 H28       -11.2730   -2.7910    0.0740 ha        1 BJG      0.156000
     57 H331       -9.9410    2.0510   -0.5330 h1        1 BJG      0.085700
     58 H332      -11.3250    2.6000    0.5430 h1        1 BJG      0.085700
     59 H333       -9.8540    1.7850    1.2780 h1        1 BJG      0.085700
     60 H321      -13.6010   -3.6370    0.3340 hn        1 BJG      0.459133
     61 H322      -13.3360   -3.4290   -1.2940 hn        1 BJG      0.459133
     62 H2        -13.3920    1.3600   -2.3040 ha        1 BJG      0.154000
     63 H4        -16.1360    4.2480   -0.5920 ha        1 BJG      0.167000
     64 H5        -15.4790    3.5120    1.6930 ha        1 BJG      0.157000
     65 H361      -14.5130    1.8230    3.0950 hc        1 BJG      0.056367
     66 H362      -12.7870    2.2120    2.7010 hc        1 BJG      0.056367
     67 H363      -13.4260    0.5370    2.4230 hc        1 BJG      0.056367
     68 H323      -14.9000   -3.5600   -0.7150 hn        1 BJG      0.459133
@<TRIPOS>BOND
     1    1    2 1   
     2    1    7 1   
     3    1   38 1   
     4    1   39 1   
     5    2    3 1   
     6    2   40 1   
     7    2   41 1   
     8    3    4 1   
     9    3    5 1   
    10    4   42 1   
    11    4   43 1   
    12    4   44 1   
    13    5    6 1   
    14    5   45 1   
    15    5   46 1   
    16    6    7 1   
    17    6   47 1   
    18    6   48 1   
    19    7    8 1   
    20    8    9 ar  
    21    8   11 ar  
    22    9   10 ar  
    23    9   49 1   
    24   10   13 ar  
    25   10   51 1   
    26   11   12 ar  
    27   11   50 1   
    28   12   13 ar  
    29   12   52 1   
    30   13   14 1   
    31   14   15 1   
    32   14   53 1   
    33   15   16 ar  
    34   15   17 ar  
    35   16   20 ar  
    36   17   18 ar  
    37   18   19 ar  
    38   18   54 1   
    39   19   20 ar  
    40   19   55 1   
    41   20   21 1   
    42   21   22 1   
    43   21   24 2   
    44   22   23 1   
    45   22   29 1   
    46   23   57 1   
    47   23   58 1   
    48   23   59 1   
    49   24   25 1   
    50   24   56 1   
    51   25   26 1   
    52   25   29 2   
    53   26   27 2   
    54   26   28 1   
    55   28   60 1   
    56   28   61 1   
    57   28   68 1   
    58   29   30 1   
    59   30   31 ar  
    60   30   36 ar  
    61   31   32 ar  
    62   31   62 1   
    63   32   33 1   
    64   32   34 ar  
    65   34   35 ar  
    66   34   63 1   
    67   35   36 ar  
    68   35   64 1   
    69   36   37 1   
    70   37   65 1   
    71   37   66 1   
    72   37   67 1   
@<TRIPOS>SUBSTRUCTURE
     1 BJG         1 TEMP              0 ****  ****    0 ROOT
