@<TRIPOS>MOLECULE
BJG
   68    72     1     0     0
SMALL
bcc


@<TRIPOS>ATOM
      1 C8          0.4160   -0.2090    0.2310 c3        1 BJG      0.188800
      2 C9          1.9230    0.1120    0.2910 c3        1 BJG      0.163800
      3 N10         2.3420    0.6210    1.5880 n3        1 BJG     -0.732600
      4 C35         3.7570    0.9080    1.6430 c3        1 BJG      0.155100
      5 C11         1.5250    1.7470    2.0150 c3        1 BJG      0.163800
      6 C12         0.0150    1.4400    1.9710 c3        1 BJG      0.188800
      7 N7         -0.4120    0.8920    0.6930 nh        1 BJG     -0.639000
      8 C16        -1.8030    0.7650    0.5000 ca        1 BJG      0.165600
      9 C17        -2.6600    1.8630    0.7690 ca        1 BJG     -0.170000
     10 C18        -4.0180    1.7940    0.5060 ca        1 BJG     -0.093500
     11 C15        -2.3910   -0.3990   -0.0470 ca        1 BJG     -0.170000
     12 C14        -3.7500   -0.4640   -0.3260 ca        1 BJG     -0.093500
     13 C13        -4.5890    0.6300   -0.0510 ca        1 BJG      0.062600
     14 N34        -5.9670    0.6080   -0.3840 nh        1 BJG     -0.694300
     15 C23        -6.8640   -0.2890    0.1940 ca        1 BJG      0.895900
     16 N24        -8.2190   -0.0110    0.0220 nb        1 BJG     -0.778000
     17 N22        -6.3730   -1.4290    0.8420 nb        1 BJG     -0.707000
     18 C21        -7.2840   -2.2930    1.2910 ca        1 BJG      0.478200
     19 C20        -8.6770   -2.1140    1.1410 ca        1 BJG     -0.418600
     20 C19        -9.0890   -0.9390    0.4850 ca        1 BJG      0.527800
     21 C29       -10.5270   -0.7300    0.2770 cc        1 BJG     -0.120800
     22 N25       -11.1750    0.5240    0.2300 na        1 BJG      0.008900
     23 C33       -10.5420    1.8040    0.3920 c3        1 BJG      0.001600
     24 C28       -11.4780   -1.7340    0.0710 cd        1 BJG     -0.160000
     25 C27       -12.7530   -1.0850   -0.1090 cd        1 BJG     -0.315600
     26 C30       -14.0140   -1.6880   -0.3490 c         1 BJG      0.616700
     27 O31       -15.1530   -1.2520   -0.4410 o         1 BJG     -0.443100
     28 N32       -13.9520   -3.2130   -0.5410 n4        1 BJG     -0.767400
     29 C26       -12.5210    0.3260   -0.0000 cc        1 BJG      0.118700
     30 C1        -13.4980    1.4050   -0.1310 ca        1 BJG     -0.098000
     31 C2        -13.8610    1.8220   -1.4190 ca        1 BJG     -0.091000
     32 C3        -14.8090    2.8350   -1.5750 ca        1 BJG      0.010400
     33 CL1       -15.2510    3.3380   -3.1310 cl        1 BJG     -0.054400
     34 C4        -15.3940    3.4340   -0.4520 ca        1 BJG     -0.083000
     35 C5        -15.0210    3.0180    0.8220 ca        1 BJG     -0.120000
     36 C6        -14.0690    2.0060    1.0030 ca        1 BJG     -0.036300
     37 C36       -13.6780    1.6040    2.3740 c3        1 BJG     -0.067800
     38 H81C        0.2220   -1.1450    0.8310 h1        1 BJG      0.045950
     39 H82C        0.1600   -0.4160   -0.8460 h1        1 BJG      0.045950
     40 H91C        2.1730    0.8320   -0.5420 h1        1 BJG      0.042950
     41 H92C        2.4810   -0.8470    0.0990 h1        1 BJG      0.042950
     42 H351        4.0740    1.7270    0.9400 h1        1 BJG      0.037033
     43 H352        4.0220    1.2130    2.6890 h1        1 BJG      0.037033
     44 H353        4.3240   -0.0250    1.3840 h1        1 BJG      0.037033
     45 H111        1.7920    1.9820    3.0830 h1        1 BJG      0.042950
     46 H112        1.7260    2.6700    1.3950 h1        1 BJG      0.042950
     47 H121       -0.2360    0.7300    2.8120 h1        1 BJG      0.045950
     48 H122       -0.5280    2.4080    2.1570 h1        1 BJG      0.045950
     49 H17        -2.2540    2.8000    1.1790 ha        1 BJG      0.143500
     50 H15        -1.7790   -1.2880   -0.2650 ha        1 BJG      0.143500
     51 H18        -4.6460    2.6720    0.7290 ha        1 BJG      0.138500
     52 H14        -4.1610   -1.3900   -0.7580 ha        1 BJG      0.138500
     53 H34        -6.3450    1.4870   -0.6750 hn        1 BJG      0.446800
     54 H21        -6.8810   -3.1860    1.8080 h4        1 BJG      0.041100
     55 H20        -9.3900   -2.8450    1.5310 ha        1 BJG      0.150000
     56 H28       -11.2650   -2.7990    0.0530 ha        1 BJG      0.156000
     57 H331       -9.8570    1.7740    1.2820 h1        1 BJG      0.086033
     58 H332       -9.9440    2.0490   -0.5280 h1        1 BJG      0.086033
     59 H333      -11.3300    2.5900    0.5500 h1        1 BJG      0.086033
     60 H321      -14.8910   -3.5720   -0.7410 hn        1 BJG      0.459133
     61 H322      -13.3280   -3.4340   -1.3190 hn        1 BJG      0.459133
     62 H2        -13.4000    1.3550   -2.3030 ha        1 BJG      0.154000
     63 H4        -16.1450    4.2320   -0.5760 ha        1 BJG      0.167000
     64 H5        -15.4810    3.4910    1.7060 ha        1 BJG      0.157000
     65 H361      -13.4300    0.5150    2.4220 hc        1 BJG      0.056367
     66 H362      -14.5030    1.8080    3.1010 hc        1 BJG      0.056367
     67 H363      -12.7770    2.1850    2.6980 hc        1 BJG      0.056367
     68 H323      -13.5920   -3.6510    0.3080 hn        1 BJG      0.459133
@<TRIPOS>BOND
     1    1    2 1   
     2    1    7 1   
     3    1   38 1   
     4    1   39 1   
     5    2    3 1   
     6    2   40 1   
     7    2   41 1   
     8    3    4 1   
     9    3    5 1   
    10    4   42 1   
    11    4   43 1   
    12    4   44 1   
    13    5    6 1   
    14    5   45 1   
    15    5   46 1   
    16    6    7 1   
    17    6   47 1   
    18    6   48 1   
    19    7    8 1   
    20    8    9 ar  
    21    8   11 ar  
    22    9   10 ar  
    23    9   49 1   
    24   10   13 ar  
    25   10   51 1   
    26   11   12 ar  
    27   11   50 1   
    28   12   13 ar  
    29   12   52 1   
    30   13   14 1   
    31   14   15 1   
    32   14   53 1   
    33   15   16 ar  
    34   15   17 ar  
    35   16   20 ar  
    36   17   18 ar  
    37   18   19 ar  
    38   18   54 1   
    39   19   20 ar  
    40   19   55 1   
    41   20   21 1   
    42   21   22 1   
    43   21   24 2   
    44   22   23 1   
    45   22   29 1   
    46   23   57 1   
    47   23   58 1   
    48   23   59 1   
    49   24   25 1   
    50   24   56 1   
    51   25   26 1   
    52   25   29 2   
    53   26   27 2   
    54   26   28 1   
    55   28   60 1   
    56   28   61 1   
    57   28   68 1   
    58   29   30 1   
    59   30   31 ar  
    60   30   36 ar  
    61   31   32 ar  
    62   31   62 1   
    63   32   33 1   
    64   32   34 ar  
    65   34   35 ar  
    66   34   63 1   
    67   35   36 ar  
    68   35   64 1   
    69   36   37 1   
    70   37   65 1   
    71   37   66 1   
    72   37   67 1   
@<TRIPOS>SUBSTRUCTURE
     1 BJG         1 TEMP              0 ****  ****    0 ROOT
