@<TRIPOS>MOLECULE
BJM
   49    53     1     0     0
SMALL
bcc


@<TRIPOS>ATOM
      1 C1          0.0540    0.0440    0.1820 c3        1 BJM     -0.061000
      2 C2         -0.4490   -0.0770   -1.2800 c3        1 BJM      0.051500
      3 C3          1.5860    0.0520    0.1870 c3        1 BJM     -0.080400
      4 C8          2.0910    0.1020    1.6400 c3        1 BJM      0.162800
      5 C9          0.0420    1.3490    2.3160 c3        1 BJM     -0.055700
      6 C10         0.0720   -1.1380    2.3930 c3        1 BJM     -0.055700
      7 C13         1.5650    1.3710    2.3240 c3        1 BJM     -0.108400
      8 C14         1.5940   -1.1310    2.4020 c3        1 BJM     -0.108400
      9 C16        -0.4570    0.1220    3.0690 c3        1 BJM     -0.080400
     10 C19        -4.2200   -3.1790   -1.9440 cx        1 BJM     -0.122700
     11 C20        -4.6280   -2.1450   -2.9590 cx        1 BJM     -0.112400
     12 C21        -2.8790   -3.8400   -2.1540 c3        1 BJM     -0.055400
     13 C22        -0.9960   -2.6000   -3.1980 c1        1 BJM      0.160700
     14 N23        -0.3470   -2.5350   -4.1590 n1        1 BJM     -0.316800
     15 C4         -0.4610    1.3090    0.8750 c3        1 BJM     -0.076400
     16 C5         -0.4330   -1.1900    0.9550 c3        1 BJM     -0.076400
     17 C6         -1.9910   -0.2590   -1.3430 c         1 BJM      0.652100
     18 N7         -0.1230    1.1480   -2.0880 n4        1 BJM     -0.836600
     19 N11        -2.5280   -1.4700   -1.6660 n         1 BJM     -0.420800
     20 O12        -2.6970    0.7490   -1.1290 o         1 BJM     -0.586100
     21 O15         3.5060    0.1200    1.5420 oh        1 BJM     -0.589800
     22 C17        -3.9590   -1.6970   -1.6740 cx        1 BJM      0.023700
     23 C18        -1.8110   -2.7090   -1.9860 c3        1 BJM      0.157800
     24 H2          0.0960   -0.9420   -1.7650 hx        1 BJM      0.117700
     25 H3          1.9890   -0.8700   -0.3050 hc        1 BJM      0.053700
     26 H3A         2.0000    0.9460   -0.3450 hc        1 BJM      0.053700
     27 H9         -0.3500    2.2790    2.8100 hc        1 BJM      0.078700
     28 H10        -0.3010   -2.0450    2.9420 hc        1 BJM      0.078700
     29 H13         1.9500    2.2750    1.7900 hc        1 BJM      0.064200
     30 H13A        1.9410    1.4120    3.3790 hc        1 BJM      0.064200
     31 H14         1.9960   -2.0590    1.9200 hc        1 BJM      0.064200
     32 H14A        1.9710   -1.1010    3.4560 hc        1 BJM      0.064200
     33 H16        -0.1020    0.1600    4.1310 hc        1 BJM      0.062700
     34 H16A       -1.5770    0.1090    3.0810 hc        1 BJM      0.062700
     35 H19        -4.9740   -3.7630   -1.3940 hc        1 BJM      0.123700
     36 H21        -2.8080   -4.3060   -3.1680 hc        1 BJM      0.087700
     37 H21A       -2.6980   -4.6300   -1.3840 hc        1 BJM      0.087700
     38 H4         -0.0910    2.2260    0.3470 hc        1 BJM      0.054200
     39 H4A        -1.5830    1.3230    0.8600 hc        1 BJM      0.054200
     40 H5         -1.5530   -1.2200    0.9590 hc        1 BJM      0.054200
     41 H5A        -0.0480   -2.1200    0.4610 hc        1 BJM      0.054200
     42 HN7        -0.2620    0.9620   -3.0840 hn        1 BJM      0.470467
     43 HN7A       -0.7560    1.9100   -1.7960 hn        1 BJM      0.470467
     44 HO15        3.8530    0.1230    2.4430 ho        1 BJM      0.421000
     45 H17        -4.5050   -1.0770   -0.9370 h1        1 BJM      0.138700
     46 H18        -1.1210   -2.9680   -1.1250 h1        1 BJM      0.091700
     47 H20        -5.7030   -1.9100   -3.0710 hc        1 BJM      0.096200
     48 H73         0.8490    1.4270   -1.9180 hn        1 BJM      0.470467
     49 H20A       -4.0920   -2.0920   -3.9240 hc        1 BJM      0.096200
@<TRIPOS>BOND
     1    1    2 1   
     2    1    3 1   
     3    1   15 1   
     4    1   16 1   
     5    2   17 1   
     6    2   18 1   
     7    2   24 1   
     8    3    4 1   
     9    3   25 1   
    10    3   26 1   
    11    4    7 1   
    12    4    8 1   
    13    4   21 1   
    14    5    7 1   
    15    5    9 1   
    16    5   15 1   
    17    5   27 1   
    18    6    8 1   
    19    6    9 1   
    20    6   16 1   
    21    6   28 1   
    22    7   29 1   
    23    7   30 1   
    24    8   31 1   
    25    8   32 1   
    26    9   33 1   
    27    9   34 1   
    28   10   11 1   
    29   10   12 1   
    30   10   22 1   
    31   10   35 1   
    32   11   22 1   
    33   11   47 1   
    34   11   49 1   
    35   12   23 1   
    36   12   36 1   
    37   12   37 1   
    38   13   14 3   
    39   13   23 1   
    40   15   38 1   
    41   15   39 1   
    42   16   40 1   
    43   16   41 1   
    44   17   19 1   
    45   17   20 2   
    46   18   42 1   
    47   18   43 1   
    48   18   48 1   
    49   19   22 1   
    50   19   23 1   
    51   21   44 1   
    52   22   45 1   
    53   23   46 1   
@<TRIPOS>SUBSTRUCTURE
     1 BJM         1 TEMP              0 ****  ****    0 ROOT
