@<TRIPOS>MOLECULE
BJM
   49    53     1     0     0
SMALL
bcc


@<TRIPOS>ATOM
      1 C1          0.0530    0.0420    0.1770 c3        1 BJM     -0.061000
      2 C2         -0.4490   -0.0860   -1.2840 c3        1 BJM      0.051500
      3 C3          1.5850    0.0450    0.1850 c3        1 BJM     -0.080400
      4 C8          2.0880    0.1030    1.6370 c3        1 BJM      0.162800
      5 C9          0.0430    1.3610    2.3020 c3        1 BJM     -0.055700
      6 C10         0.0640   -1.1250    2.3970 c3        1 BJM     -0.055700
      7 C13         1.5660    1.3780    2.3130 c3        1 BJM     -0.108400
      8 C14         1.5860   -1.1240    2.4070 c3        1 BJM     -0.108400
      9 C16        -0.4610    0.1410    3.0640 c3        1 BJM     -0.080400
     10 C19        -4.2320   -3.1770   -1.9310 cx        1 BJM     -0.122700
     11 C20        -4.6340   -2.1480   -2.9540 cx        1 BJM     -0.112400
     12 C21        -2.8940   -3.8450   -2.1350 c3        1 BJM     -0.055400
     13 C22        -1.0040   -2.6200   -3.1840 c1        1 BJM      0.160700
     14 N23        -0.3530   -2.5660   -4.1460 n1        1 BJM     -0.316800
     15 C4         -0.4580    1.3140    0.8610 c3        1 BJM     -0.076400
     16 C5         -0.4390   -1.1850    0.9580 c3        1 BJM     -0.076400
     17 C6         -1.9910   -0.2620   -1.3480 c         1 BJM      0.652100
     18 N7         -0.1160    1.1320   -2.1000 n4        1 BJM     -0.836600
     19 N11        -2.5330   -1.4730   -1.6630 n         1 BJM     -0.420800
     20 O12        -2.6930    0.7510   -1.1420 o         1 BJM     -0.586100
     21 O15         3.5040    0.1160    1.5410 oh        1 BJM     -0.589800
     22 C17        -3.9650   -1.6940   -1.6710 cx        1 BJM      0.023700
     23 C18        -1.8210   -2.7170   -1.9730 c3        1 BJM      0.157800
     24 H2          0.0940   -0.9570   -1.7620 hx        1 BJM      0.117700
     25 H3          1.9860   -0.8810   -0.3010 hc        1 BJM      0.053700
     26 H3A         2.0030    0.9330   -0.3530 hc        1 BJM      0.053700
     27 H9         -0.3460    2.2960    2.7900 hc        1 BJM      0.078700
     28 H10        -0.3130   -2.0270    2.9510 hc        1 BJM      0.078700
     29 H13         1.9410    1.4250    3.3670 hc        1 BJM      0.064200
     30 H13A        1.9560    2.2780    1.7730 hc        1 BJM      0.064200
     31 H14         1.9860   -2.0560    1.9320 hc        1 BJM      0.064200
     32 H14A        1.9620   -1.0880    3.4610 hc        1 BJM      0.064200
     33 H16        -0.1080    0.1850    4.1260 hc        1 BJM      0.062700
     34 H16A       -1.5810    0.1330    3.0740 hc        1 BJM      0.062700
     35 H20A       -4.0970   -2.1050   -3.9180 hc        1 BJM      0.096200
     36 H21        -2.7170   -4.6300   -1.3590 hc        1 BJM      0.087700
     37 H21A       -2.8230   -4.3180   -3.1450 hc        1 BJM      0.087700
     38 H4         -1.5790    1.3320    0.8450 hc        1 BJM      0.054200
     39 H4A        -0.0840    2.2260    0.3280 hc        1 BJM      0.054200
     40 H5         -0.0570   -2.1190    0.4710 hc        1 BJM      0.054200
     41 H5A        -1.5600   -1.2110    0.9610 hc        1 BJM      0.054200
     42 HN7        -0.2550    0.9390   -3.0950 hn        1 BJM      0.470467
     43 HN7A        0.8560    1.4080   -1.9310 hn        1 BJM      0.470467
     44 HO15        3.8500    0.1230    2.4430 ho        1 BJM      0.421000
     45 H17        -4.5100   -1.0670   -0.9400 h1        1 BJM      0.138700
     46 H18        -1.1330   -2.9740   -1.1090 h1        1 BJM      0.091700
     47 H19        -4.9890   -3.7530   -1.3780 hc        1 BJM      0.123700
     48 H73        -0.7470    1.8990   -1.8140 hn        1 BJM      0.470467
     49 H20        -5.7080   -1.9100   -3.0690 hc        1 BJM      0.096200
@<TRIPOS>BOND
     1    1    2 1   
     2    1    3 1   
     3    1   15 1   
     4    1   16 1   
     5    2   17 1   
     6    2   18 1   
     7    2   24 1   
     8    3    4 1   
     9    3   25 1   
    10    3   26 1   
    11    4    7 1   
    12    4    8 1   
    13    4   21 1   
    14    5    7 1   
    15    5    9 1   
    16    5   15 1   
    17    5   27 1   
    18    6    8 1   
    19    6    9 1   
    20    6   16 1   
    21    6   28 1   
    22    7   29 1   
    23    7   30 1   
    24    8   31 1   
    25    8   32 1   
    26    9   33 1   
    27    9   34 1   
    28   10   11 1   
    29   10   12 1   
    30   10   22 1   
    31   10   47 1   
    32   11   22 1   
    33   11   35 1   
    34   11   49 1   
    35   12   23 1   
    36   12   36 1   
    37   12   37 1   
    38   13   14 3   
    39   13   23 1   
    40   15   38 1   
    41   15   39 1   
    42   16   40 1   
    43   16   41 1   
    44   17   19 1   
    45   17   20 2   
    46   18   42 1   
    47   18   43 1   
    48   18   48 1   
    49   19   22 1   
    50   19   23 1   
    51   21   44 1   
    52   22   45 1   
    53   23   46 1   
@<TRIPOS>SUBSTRUCTURE
     1 BJM         1 TEMP              0 ****  ****    0 ROOT
