@<TRIPOS>MOLECULE
BJM
   49    53     1     0     0
SMALL
bcc


@<TRIPOS>ATOM
      1 C1          0.0480    0.0440    0.1820 c3        1 BJM     -0.061000
      2 C2         -0.4530   -0.0790   -1.2810 c3        1 BJM      0.051500
      3 C3          1.5800    0.0560    0.1890 c3        1 BJM     -0.080400
      4 C8          2.0830    0.1100    1.6410 c3        1 BJM      0.162800
      5 C9          0.0310    1.3510    2.3140 c3        1 BJM     -0.055700
      6 C10         0.0670   -1.1350    2.3940 c3        1 BJM     -0.055700
      7 C13         1.5540    1.3770    2.3240 c3        1 BJM     -0.108400
      8 C14         1.5890   -1.1250    2.4040 c3        1 BJM     -0.108400
      9 C16        -0.4660    0.1240    3.0690 c3        1 BJM     -0.080400
     10 C19        -4.2150   -3.1910   -1.9450 cx        1 BJM     -0.122700
     11 C20        -4.6250   -2.1590   -2.9620 cx        1 BJM     -0.112400
     12 C21        -2.8730   -3.8490   -2.1530 c3        1 BJM     -0.055400
     13 C22        -0.9920   -2.6050   -3.1960 c1        1 BJM      0.160700
     14 N23        -0.3420   -2.5390   -4.1570 n1        1 BJM     -0.316800
     15 C4         -0.4700    1.3090    0.8730 c3        1 BJM     -0.076400
     16 C5         -0.4360   -1.1900    0.9550 c3        1 BJM     -0.076400
     17 C6         -1.9940   -0.2650   -1.3450 c         1 BJM      0.652100
     18 N7         -0.1290    1.1460   -2.0890 nz        1 BJM     -0.836600
     19 N11        -2.5280   -1.4770   -1.6670 n         1 BJM     -0.420800
     20 O12        -2.7030    0.7420   -1.1320 o         1 BJM     -0.586100
     21 O15         3.4990    0.1310    1.5450 oh        1 BJM     -0.589800
     22 C17        -3.9580   -1.7080   -1.6760 cx        1 BJM      0.023700
     23 C18        -1.8080   -2.7150   -1.9850 c3        1 BJM      0.157800
     24 H2          0.0950   -0.9430   -1.7640 hx        1 BJM      0.117700
     25 H3          1.9860   -0.8640   -0.3030 hc        1 BJM      0.053700
     26 H3A         1.9920    0.9510   -0.3450 hc        1 BJM      0.053700
     27 H9         -0.3640    2.2800    2.8080 hc        1 BJM      0.078700
     28 H10        -0.3040   -2.0430    2.9430 hc        1 BJM      0.078700
     29 H13         1.9380    2.2820    1.7890 hc        1 BJM      0.064200
     30 H13A        1.9290    1.4200    3.3790 hc        1 BJM      0.064200
     31 H14         1.9940   -2.0510    1.9240 hc        1 BJM      0.064200
     32 H14A        1.9660   -1.0920    3.4590 hc        1 BJM      0.064200
     33 H16        -0.1120    0.1630    4.1310 hc        1 BJM      0.062700
     34 H16A       -1.5860    0.1080    3.0800 hc        1 BJM      0.062700
     35 H20A       -4.0890   -2.1060   -3.9250 hc        1 BJM      0.096200
     36 H21        -2.6910   -4.6380   -1.3820 hc        1 BJM      0.087700
     37 H21A       -2.8000   -4.3150   -3.1670 hc        1 BJM      0.087700
     38 H4         -0.1020    2.2270    0.3450 hc        1 BJM      0.054200
     39 H4A        -1.5920    1.3200    0.8570 hc        1 BJM      0.054200
     40 H5         -0.0480   -2.1190    0.4630 hc        1 BJM      0.054200
     41 H5A        -1.5560   -1.2230    0.9580 hc        1 BJM      0.054200
     42 HN7        -0.2670    0.9590   -3.0860 hn        1 BJM      0.470467
     43 HN7A       -0.7650    1.9070   -1.7980 hn        1 BJM      0.470467
     44 HO15        3.8450    0.1360    2.4470 ho        1 BJM      0.421000
     45 H17        -4.5070   -1.0890   -0.9410 h1        1 BJM      0.138700
     46 H18        -1.1180   -2.9720   -1.1230 h1        1 BJM      0.091700
     47 H19        -4.9690   -3.7760   -1.3950 hc        1 BJM      0.123700
     48 H73         0.8410    1.4280   -1.9180 hn        1 BJM      0.470467
     49 H20        -5.7010   -1.9270   -3.0750 hc        1 BJM      0.096200
@<TRIPOS>BOND
     1    1    2 1   
     2    1    3 1   
     3    1   15 1   
     4    1   16 1   
     5    2   17 1   
     6    2   18 1   
     7    2   24 1   
     8    3    4 1   
     9    3   25 1   
    10    3   26 1   
    11    4    7 1   
    12    4    8 1   
    13    4   21 1   
    14    5    7 1   
    15    5    9 1   
    16    5   15 1   
    17    5   27 1   
    18    6    8 1   
    19    6    9 1   
    20    6   16 1   
    21    6   28 1   
    22    7   29 1   
    23    7   30 1   
    24    8   31 1   
    25    8   32 1   
    26    9   33 1   
    27    9   34 1   
    28   10   11 1   
    29   10   12 1   
    30   10   22 1   
    31   10   47 1   
    32   11   22 1   
    33   11   35 1   
    34   11   49 1   
    35   12   23 1   
    36   12   36 1   
    37   12   37 1   
    38   13   14 3   
    39   13   23 1   
    40   15   38 1   
    41   15   39 1   
    42   16   40 1   
    43   16   41 1   
    44   17   19 1   
    45   17   20 2   
    46   18   42 1   
    47   18   43 1   
    48   18   48 1   
    49   19   22 1   
    50   19   23 1   
    51   21   44 1   
    52   22   45 1   
    53   23   46 1   
@<TRIPOS>SUBSTRUCTURE
     1 BJM         1 TEMP              0 ****  ****    0 ROOT
