@<TRIPOS>MOLECULE
BJZ
   55    59     1     0     0
SMALL
bcc


@<TRIPOS>ATOM
      1 C1         -0.0430    0.4050   -0.4010 ca        1 BJZ      0.038400
      2 C2          1.3230    0.5380   -0.1540 ca        1 BJZ     -0.141000
      3 C4          1.8550    0.0970    1.0790 ca        1 BJZ      0.096600
      4 C5          0.9870   -0.4680    2.0390 ca        1 BJZ     -0.141000
      5 C7         -0.3750   -0.5790    1.7590 ca        1 BJZ      0.038400
      6 C8         -0.9100   -0.1490    0.5430 ca        1 BJZ     -0.142000
      7 CL10       -1.4100   -1.2590    2.9260 cl        1 BJZ     -0.090400
      8 N11         3.2290    0.2270    1.3560 n         1 BJZ     -0.428600
      9 C12         4.2650    0.2510    0.3540 c         1 BJZ      0.802500
     10 N13         5.5280    0.2470    0.9880 n         1 BJZ     -0.440800
     11 C14         5.3690    0.3630    2.4440 c3        1 BJZ      0.023400
     12 C15         3.8230    0.2910    2.6430 c         1 BJZ      0.708500
     13 O16         3.2120    0.3390    3.7110 o         1 BJZ     -0.571500
     14 C17         5.8660    1.7050    3.0980 c3        1 BJZ      0.155800
     15 N20         6.7250    1.4050    4.2450 nh        1 BJZ     -0.679300
     16 C21         6.5930   -0.0290    4.5190 c3        1 BJZ      0.165800
     17 C24         6.1470   -0.7410    3.2220 c3        1 BJZ     -0.044400
     18 C26         5.4250   -2.0230    3.4330 ca        1 BJZ     -0.052300
     19 C27         5.7550   -3.1190    2.6190 ca        1 BJZ     -0.123500
     20 C29         5.1400   -4.3540    2.8010 ca        1 BJZ     -0.095000
     21 C31         4.1800   -4.5130    3.8090 ca        1 BJZ     -0.026000
     22 C32         3.8400   -3.4250    4.6240 ca        1 BJZ     -0.095000
     23 C34         4.4590   -2.1920    4.4330 ca        1 BJZ     -0.123500
     24 C36         3.5530   -5.7740    4.0040 cg        1 BJZ      0.243800
     25 N37         3.0400   -6.8060    4.1630 n1        1 BJZ     -0.381800
     26 C38         8.1010    1.8300    4.0580 ca        1 BJZ      0.494200
     27 N39         8.8710    1.2740    3.0690 nb        1 BJZ     -0.746000
     28 C40        10.1330    1.7060    2.9540 ca        1 BJZ      0.414200
     29 C42        10.7160    2.6930    3.7800 ca        1 BJZ     -0.220900
     30 C43         9.9220    3.2480    4.7810 ca        1 BJZ     -0.088000
     31 C45         8.6000    2.8220    4.9340 ca        1 BJZ     -0.222300
     32 C47        12.1590    3.1230    3.5640 c         1 BJZ      0.913200
     33 O48        12.6280    4.0020    4.3380 o         1 BJZ     -0.819300
     34 O49        12.7930    2.5730    2.6220 o         1 BJZ     -0.819300
     35 C51         6.6870    0.7340    0.3020 c3        1 BJZ      0.073300
     36 O55         4.0750    0.2260   -0.8730 o         1 BJZ     -0.615500
     37 CL56       -0.6710    0.9380   -1.8910 cl        1 BJZ     -0.090400
     38 H2          1.9810    0.9710   -0.9280 ha        1 BJZ      0.180500
     39 H5          1.3740   -0.8100    3.0150 ha        1 BJZ      0.180500
     40 H8         -1.9850   -0.2450    0.3340 ha        1 BJZ      0.158000
     41 H17         6.3780    2.3570    2.3420 h1        1 BJZ      0.073200
     42 H17A        4.9760    2.2610    3.5040 h1        1 BJZ      0.073200
     43 H21         7.5500   -0.4740    4.8980 h1        1 BJZ      0.068200
     44 H21A        5.8090   -0.1310    5.3180 h1        1 BJZ      0.068200
     45 H24         7.0880   -0.9610    2.6330 hc        1 BJZ      0.099700
     46 H27         6.5120   -3.0020    1.8270 ha        1 BJZ      0.155000
     47 H29         5.4080   -5.2030    2.1550 ha        1 BJZ      0.142500
     48 H32         3.0840   -3.5430    5.4150 ha        1 BJZ      0.142500
     49 H34         4.1640   -1.3380    5.0670 ha        1 BJZ      0.155000
     50 H40        10.7500    1.2510    2.1530 h4        1 BJZ      0.043100
     51 H43        10.3560    4.0190    5.4390 ha        1 BJZ      0.162000
     52 H45         7.9610    3.2480    5.7190 ha        1 BJZ      0.134000
     53 H51         6.6940    0.2940   -0.7310 h1        1 BJZ      0.064367
     54 H51A        7.6030    0.4070    0.8630 h1        1 BJZ      0.064367
     55 H51B        6.6910    1.8550    0.2170 h1        1 BJZ      0.064367
@<TRIPOS>BOND
     1    1    2 ar  
     2    1    6 ar  
     3    1   37 1   
     4    2    3 ar  
     5    2   38 1   
     6    3    4 ar  
     7    3    8 1   
     8    4    5 ar  
     9    4   39 1   
    10    5    6 ar  
    11    5    7 1   
    12    6   40 1   
    13    8    9 1   
    14    8   12 1   
    15    9   10 1   
    16    9   36 2   
    17   10   11 1   
    18   10   35 1   
    19   11   12 1   
    20   11   14 1   
    21   11   17 1   
    22   12   13 2   
    23   14   15 1   
    24   14   41 1   
    25   14   42 1   
    26   15   16 1   
    27   15   26 1   
    28   16   17 1   
    29   16   43 1   
    30   16   44 1   
    31   17   18 1   
    32   17   45 1   
    33   18   19 ar  
    34   18   23 ar  
    35   19   20 ar  
    36   19   46 1   
    37   20   21 ar  
    38   20   47 1   
    39   21   22 ar  
    40   21   24 1   
    41   22   23 ar  
    42   22   48 1   
    43   23   49 1   
    44   24   25 3   
    45   26   27 ar  
    46   26   31 ar  
    47   27   28 ar  
    48   28   29 ar  
    49   28   50 1   
    50   29   30 ar  
    51   29   32 1   
    52   30   31 ar  
    53   30   51 1   
    54   31   52 1   
    55   32   33 1   
    56   32   34 1   
    57   35   53 1   
    58   35   54 1   
    59   35   55 1   
@<TRIPOS>SUBSTRUCTURE
     1 BJZ         1 TEMP              0 ****  ****    0 ROOT
