@<TRIPOS>MOLECULE
BJZ
   55    59     1     0     0
SMALL
bcc


@<TRIPOS>ATOM
      1 C1         -4.8960    2.7650    0.2080 ca        1 BJZ      0.038400
      2 C2         -3.5700    2.5410   -0.1620 ca        1 BJZ     -0.141000
      3 C4         -2.9300    1.3410    0.2240 ca        1 BJZ      0.096600
      4 C5         -3.6510    0.3920    0.9850 ca        1 BJZ     -0.141000
      5 C7         -4.9730    0.6550    1.3420 ca        1 BJZ      0.038400
      6 C8         -5.6140    1.8350    0.9620 ca        1 BJZ     -0.142000
      7 CL10       -5.8270   -0.4960    2.2600 cl        1 BJZ     -0.090400
      8 N11        -1.5910    1.0950   -0.1310 n         1 BJZ     -0.428600
      9 C12        -0.9390    1.6470   -1.2920 c         1 BJZ      0.802500
     10 N13         0.3490    1.0790   -1.4180 n         1 BJZ     -0.440800
     11 C14         0.6500    0.2310   -0.2570 c3        1 BJZ      0.023400
     12 C15        -0.6900    0.2290    0.5420 c         1 BJZ      0.708500
     13 O16        -0.9210   -0.3620    1.5970 o         1 BJZ     -0.571500
     14 C17         1.7760    0.7450    0.7130 c3        1 BJZ      0.155800
     15 N20         2.7350   -0.3320    0.9690 nh        1 BJZ     -0.679300
     16 C21         2.1490   -1.5660    0.4370 c3        1 BJZ      0.165800
     17 C24         1.1310   -1.1940   -0.6650 c3        1 BJZ     -0.044400
     18 C26         0.0630   -2.2040   -0.8910 ca        1 BJZ     -0.052300
     19 C27        -0.2820   -2.5280   -2.2130 ca        1 BJZ     -0.123500
     20 C29        -1.2450   -3.4950   -2.4830 ca        1 BJZ     -0.095000
     21 C31        -1.8790   -4.1620   -1.4260 ca        1 BJZ     -0.026000
     22 C32        -1.5440   -3.8440   -0.1030 ca        1 BJZ     -0.095000
     23 C34        -0.5820   -2.8710    0.1580 ca        1 BJZ     -0.123500
     24 C36        -2.8590   -5.1560   -1.6950 cg        1 BJZ      0.243800
     25 N37        -3.6600   -5.9710   -1.9150 n1        1 BJZ     -0.381800
     26 C38         4.0620   -0.0550    0.4470 ca        1 BJZ      0.494200
     27 N39         4.2610    0.0870   -0.9020 nb        1 BJZ     -0.746000
     28 C40         5.5100    0.3370   -1.3180 ca        1 BJZ      0.414200
     29 C42         6.6250    0.4630   -0.4590 ca        1 BJZ     -0.220900
     30 C43         6.4070    0.3150    0.9090 ca        1 BJZ     -0.088000
     31 C45         5.1180    0.0530    1.3810 ca        1 BJZ     -0.222300
     32 C47         8.0050    0.7550   -1.0280 c         1 BJZ      0.913200
     33 O48         8.9640    0.8480   -0.2140 o         1 BJZ     -0.819300
     34 O49         8.1000    0.8870   -2.2800 o         1 BJZ     -0.819300
     35 C51         1.3710    1.7550   -2.1590 c3        1 BJZ      0.073300
     36 O55        -1.4520    2.4540   -2.0840 o         1 BJZ     -0.615500
     37 CL56       -5.6550    4.2120   -0.2650 cl        1 BJZ     -0.090400
     38 H2         -3.0360    3.2930   -0.7680 ha        1 BJZ      0.180500
     39 H5         -3.1720   -0.5470    1.3100 ha        1 BJZ      0.180500
     40 H8         -6.6590    2.0270    1.2490 ha        1 BJZ      0.158000
     41 H17         2.2700    1.6660    0.3050 h1        1 BJZ      0.073200
     42 H17A        1.3110    0.9990    1.7060 h1        1 BJZ      0.073200
     43 H21         2.9300   -2.2590    0.0270 h1        1 BJZ      0.068200
     44 H21A        1.6350   -2.0730    1.2980 h1        1 BJZ      0.068200
     45 H24         1.7180   -1.0840   -1.6260 hc        1 BJZ      0.099700
     46 H27         0.2150   -2.0110   -3.0500 ha        1 BJZ      0.155000
     47 H29        -1.5060   -3.7380   -3.5240 ha        1 BJZ      0.142500
     48 H32        -2.0420   -4.3600    0.7320 ha        1 BJZ      0.142500
     49 H34        -0.3460   -2.6150    1.2040 ha        1 BJZ      0.155000
     50 H40         5.6640    0.4490   -2.4090 h4        1 BJZ      0.043100
     51 H43         7.2630    0.4080    1.5980 ha        1 BJZ      0.162000
     52 H45         4.9290   -0.0680    2.4560 ha        1 BJZ      0.134000
     53 H51         0.9280    2.1030   -3.1310 h1        1 BJZ      0.064367
     54 H51A        1.7760    2.6470   -1.6080 h1        1 BJZ      0.064367
     55 H51B        2.2100    1.0360   -2.3570 h1        1 BJZ      0.064367
@<TRIPOS>BOND
     1    1    2 ar  
     2    1    6 ar  
     3    1   37 1   
     4    2    3 ar  
     5    2   38 1   
     6    3    4 ar  
     7    3    8 1   
     8    4    5 ar  
     9    4   39 1   
    10    5    6 ar  
    11    5    7 1   
    12    6   40 1   
    13    8    9 1   
    14    8   12 1   
    15    9   10 1   
    16    9   36 2   
    17   10   11 1   
    18   10   35 1   
    19   11   12 1   
    20   11   14 1   
    21   11   17 1   
    22   12   13 2   
    23   14   15 1   
    24   14   41 1   
    25   14   42 1   
    26   15   16 1   
    27   15   26 1   
    28   16   17 1   
    29   16   43 1   
    30   16   44 1   
    31   17   18 1   
    32   17   45 1   
    33   18   19 ar  
    34   18   23 ar  
    35   19   20 ar  
    36   19   46 1   
    37   20   21 ar  
    38   20   47 1   
    39   21   22 ar  
    40   21   24 1   
    41   22   23 ar  
    42   22   48 1   
    43   23   49 1   
    44   24   25 3   
    45   26   27 ar  
    46   26   31 ar  
    47   27   28 ar  
    48   28   29 ar  
    49   28   50 1   
    50   29   30 ar  
    51   29   32 1   
    52   30   31 ar  
    53   30   51 1   
    54   31   52 1   
    55   32   33 1   
    56   32   34 1   
    57   35   53 1   
    58   35   54 1   
    59   35   55 1   
@<TRIPOS>SUBSTRUCTURE
     1 BJZ         1 TEMP              0 ****  ****    0 ROOT
