@<TRIPOS>MOLECULE
BJZ
   55    59     1     0     0
SMALL
bcc


@<TRIPOS>ATOM
      1 C1         -0.0510    0.3660   -0.3860 ca        1 BJZ      0.038400
      2 C2          1.3160    0.5020   -0.1460 ca        1 BJZ     -0.141000
      3 C4          1.8540    0.0750    1.0890 ca        1 BJZ      0.096600
      4 C5          0.9890   -0.4790    2.0600 ca        1 BJZ     -0.141000
      5 C7         -0.3730   -0.5930    1.7860 ca        1 BJZ      0.038400
      6 C8         -0.9130   -0.1770    0.5680 ca        1 BJZ     -0.142000
      7 CL10       -1.4030   -1.2600    2.9660 cl        1 BJZ     -0.090400
      8 N11         3.2290    0.2080    1.3590 n         1 BJZ     -0.428600
      9 C12         4.2610    0.2200    0.3520 c         1 BJZ      0.802500
     10 N13         5.5260    0.2230    0.9810 n         1 BJZ     -0.440800
     11 C14         5.3740    0.3560    2.4370 c3        1 BJZ      0.023400
     12 C15         3.8290    0.2870    2.6420 c         1 BJZ      0.708500
     13 O16         3.2220    0.3480    3.7120 o         1 BJZ     -0.571500
     14 C17         5.8740    1.7040    3.0730 c3        1 BJZ      0.155800
     15 N20         6.7380    1.4170    4.2190 nh        1 BJZ     -0.679300
     16 C21         6.6070   -0.0140    4.5110 c3        1 BJZ      0.165800
     17 C24         6.1540   -0.7400    3.2230 c3        1 BJZ     -0.044400
     18 C26         5.4320   -2.0190    3.4520 ca        1 BJZ     -0.052300
     19 C27         5.7580   -3.1240    2.6500 ca        1 BJZ     -0.123500
     20 C29         5.1420   -4.3560    2.8470 ca        1 BJZ     -0.095000
     21 C31         4.1860   -4.5040    3.8620 ca        1 BJZ     -0.026000
     22 C32         3.8510   -3.4060    4.6660 ca        1 BJZ     -0.095000
     23 C34         4.4700   -2.1750    4.4580 ca        1 BJZ     -0.123500
     24 C36         3.5590   -5.7610    4.0740 cg        1 BJZ      0.243800
     25 N37         3.0460   -6.7910    4.2470 n1        1 BJZ     -0.381800
     26 C38         8.1140    1.8380    4.0210 ca        1 BJZ      0.494200
     27 N39         8.8780    1.2710    3.0350 nb        1 BJZ     -0.746000
     28 C40        10.1400    1.7000    2.9090 ca        1 BJZ      0.414200
     29 C42        10.7280    2.6970    3.7210 ca        1 BJZ     -0.220900
     30 C43         9.9390    3.2640    4.7200 ca        1 BJZ     -0.088000
     31 C45         8.6170    2.8400    4.8840 ca        1 BJZ     -0.222300
     32 C47        12.1710    3.1230    3.4940 c         1 BJZ      0.913200
     33 O48        12.6440    4.0090    4.2560 o         1 BJZ     -0.819300
     34 O49        12.8000    2.5620    2.5540 o         1 BJZ     -0.819300
     35 C51         6.6820    0.7010    0.2850 c3        1 BJZ      0.073300
     36 O55         4.0650    0.1820   -0.8740 o         1 BJZ     -0.615500
     37 CL56       -0.6860    0.8810   -1.8790 cl        1 BJZ     -0.090400
     38 H2          1.9700    0.9260   -0.9280 ha        1 BJZ      0.180500
     39 H5          1.3810   -0.8090    3.0370 ha        1 BJZ      0.180500
     40 H8         -1.9900   -0.2760    0.3650 ha        1 BJZ      0.158000
     41 H17         6.3830    2.3480    2.3070 h1        1 BJZ      0.073200
     42 H17A        4.9860    2.2660    3.4770 h1        1 BJZ      0.073200
     43 H21         7.5650   -0.4550    4.8900 h1        1 BJZ      0.068200
     44 H21A        5.8250   -0.1060    5.3140 h1        1 BJZ      0.068200
     45 H24         7.0920   -0.9680    2.6320 hc        1 BJZ      0.099700
     46 H27         6.5100   -3.0170    1.8520 ha        1 BJZ      0.155000
     47 H29         5.4070   -5.2130    2.2100 ha        1 BJZ      0.142500
     48 H32         3.0980   -3.5140    5.4610 ha        1 BJZ      0.142500
     49 H34         4.1780   -1.3150    5.0830 ha        1 BJZ      0.155000
     50 H40        10.7530    1.2360    2.1110 h4        1 BJZ      0.043100
     51 H43        10.3770    4.0410    5.3670 ha        1 BJZ      0.162000
     52 H45         7.9820    3.2750    5.6670 ha        1 BJZ      0.134000
     53 H51         6.6840    0.2510   -0.7440 h1        1 BJZ      0.064367
     54 H51A        7.6010    0.3800    0.8450 h1        1 BJZ      0.064367
     55 H51B        6.6860    1.8210    0.1870 h1        1 BJZ      0.064367
@<TRIPOS>BOND
     1    1    2 ar  
     2    1    6 ar  
     3    1   37 1   
     4    2    3 ar  
     5    2   38 1   
     6    3    4 ar  
     7    3    8 1   
     8    4    5 ar  
     9    4   39 1   
    10    5    6 ar  
    11    5    7 1   
    12    6   40 1   
    13    8    9 1   
    14    8   12 1   
    15    9   10 1   
    16    9   36 2   
    17   10   11 1   
    18   10   35 1   
    19   11   12 1   
    20   11   14 1   
    21   11   17 1   
    22   12   13 2   
    23   14   15 1   
    24   14   41 1   
    25   14   42 1   
    26   15   16 1   
    27   15   26 1   
    28   16   17 1   
    29   16   43 1   
    30   16   44 1   
    31   17   18 1   
    32   17   45 1   
    33   18   19 ar  
    34   18   23 ar  
    35   19   20 ar  
    36   19   46 1   
    37   20   21 ar  
    38   20   47 1   
    39   21   22 ar  
    40   21   24 1   
    41   22   23 ar  
    42   22   48 1   
    43   23   49 1   
    44   24   25 3   
    45   26   27 ar  
    46   26   31 ar  
    47   27   28 ar  
    48   28   29 ar  
    49   28   50 1   
    50   29   30 ar  
    51   29   32 1   
    52   30   31 ar  
    53   30   51 1   
    54   31   52 1   
    55   32   33 1   
    56   32   34 1   
    57   35   53 1   
    58   35   54 1   
    59   35   55 1   
@<TRIPOS>SUBSTRUCTURE
     1 BJZ         1 TEMP              0 ****  ****    0 ROOT
