@<TRIPOS>MOLECULE
BJZ
   55    52     1     0     0
SMALL
bcc


@<TRIPOS>ATOM
      1 C1         -5.4660    0.9900   -1.1540 c1        1 BJZ     -0.040000
      2 C2         -4.0670    0.9370   -1.0620 c2        1 BJZ     -0.144000
      3 C4         -3.4070   -0.2770   -1.2000 c1        1 BJZ      0.104000
      4 C5         -4.1390   -1.4490   -1.4310 c2        1 BJZ     -0.139000
      5 C7         -5.5380   -1.3960   -1.5230 c1        1 BJZ     -0.040000
      6 C8         -6.1970   -0.1800   -1.3850 c1        1 BJZ     -0.141000
      7 CL10       -6.4530   -2.8660   -1.6860 cl        1 BJZ     -0.012000
      8 N11        -1.9450   -0.3170   -1.1980 n2        1 BJZ     -0.302000
      9 C12        -1.0830   -0.4630   -2.3910 c2        1 BJZ      0.392000
     10 N13         0.3280   -0.3300   -1.9560 n         1 BJZ     -0.298000
     11 C14         0.3320   -0.0180   -0.5900 c3        1 BJZ      0.036000
     12 C15        -1.1090   -0.0200   -0.0930 c2        1 BJZ      0.317000
     13 O16        -1.4790    0.3270    0.9990 o         1 BJZ     -0.297000
     14 C17         1.0270    1.4580   -0.3310 c3        1 BJZ     -0.081000
     15 N20         1.4230    1.4650    0.9250 n3        1 BJZ     -0.170000
     16 C21         1.6790   -0.0310    1.2710 c3        1 BJZ     -0.071000
     17 C24         1.0350   -0.8690    0.0660 c3        1 BJZ     -0.091000
     18 C26         0.1070   -2.0310    0.6340 c2        1 BJZ     -0.045000
     19 C27         0.0130   -3.2430   -0.0480 c2        1 BJZ     -0.122000
     20 C29        -0.7160   -4.2980    0.4990 c1        1 BJZ     -0.096000
     21 C31        -1.3470   -4.1410    1.7220 c1        1 BJZ     -0.022000
     22 C32        -1.2520   -2.9260    2.4040 c1        1 BJZ     -0.092000
     23 C34        -0.5240   -1.8750    1.8570 c1        1 BJZ     -0.124000
     24 C36        -2.1190   -5.3160    2.3470 c1        1 BJZ     -0.085000
     25 N37        -2.6990   -6.2010    2.8170 n1        1 BJZ     -0.057000
     26 C38         2.6740    2.2180    1.0410 c2        1 BJZ     -0.027000
     27 N39         3.6640    2.0450    0.1100 n2        1 BJZ     -0.220000
     28 C40         4.7870    2.8370    0.1410 c1        1 BJZ     -0.051000
     29 C42         4.9210    3.8170    1.1180 c1        1 BJZ     -0.135000
     30 C43         3.9290    3.9940    2.0550 c1        1 BJZ     -0.088000
     31 C45         2.8040    3.1990    2.0220 c1        1 BJZ     -0.158000
     32 C47         6.1260    4.7740    1.0840 c2        1 BJZ      0.362000
     33 O48         6.0320    5.8840    0.4950 o         1 BJZ     -0.554000
     34 O49         7.2340    4.4170    1.5910 o         1 BJZ     -0.554000
     35 C51         1.4980   -0.4460   -2.8070 c3        1 BJZ     -0.083000
     36 O55        -1.4670   -0.5750   -3.5360 o         1 BJZ     -0.339000
     37 CL56       -6.2940    2.5260   -1.0030 cl        1 BJZ     -0.013000
     38 H2         -3.5550    1.7570   -0.9000 ha        1 BJZ      0.179000
     39 H5         -3.6690   -2.3120   -1.5290 ha        1 BJZ      0.183000
     40 H8         -7.1670   -0.1430   -1.4490 ha        1 BJZ      0.158000
     41 H17         0.3680    2.1740   -0.4830 h1        1 BJZ      0.112000
     42 H17A        1.7910    1.5740   -0.9230 h1        1 BJZ      0.112000
     43 H21         2.6350   -0.2040    1.3270 h1        1 BJZ      0.108000
     44 H21A        1.2430   -0.2620    2.1150 h1        1 BJZ      0.108000
     45 H24         1.7370   -1.2400   -0.5030 hc        1 BJZ      0.139000
     46 H27         0.4610   -3.3530   -0.9160 ha        1 BJZ      0.147000
     47 H29        -0.8460   -5.1150   -0.0120 ha        1 BJZ      0.142000
     48 H32        -1.6980   -2.8140    3.2690 ha        1 BJZ      0.143000
     49 H34        -0.4380   -1.0380    2.3450 ha        1 BJZ      0.163000
     50 H40         5.4930    2.6980   -0.5030 ha        1 BJZ      0.180000
     51 H43         3.9920    4.7240    2.7010 ha        1 BJZ      0.162000
     52 H45         2.0660    3.3600    2.6610 ha        1 BJZ      0.134000
     53 H51         1.5540    0.3340   -3.3900 h1        1 BJZ      0.103667
     54 H51A        1.4240   -1.2640   -3.3580 h1        1 BJZ      0.103667
     55 H51B        2.3010   -0.4970   -2.2540 h1        1 BJZ      0.103667
@<TRIPOS>BOND
     1    1    2 1   
     2    1    6 1   
     3    2    3 1   
     4    2   38 1   
     5    3    4 1   
     6    4    5 1   
     7    4   39 1   
     8    5    7 1   
     9    6   40 1   
    10    8    9 1   
    11    8   12 1   
    12    9   10 1   
    13    9   36 1   
    14   10   11 1   
    15   10   35 1   
    16   11   12 1   
    17   11   14 1   
    18   11   17 1   
    19   12   13 1   
    20   14   15 1   
    21   14   41 1   
    22   14   42 1   
    23   15   16 1   
    24   15   26 1   
    25   16   17 1   
    26   16   43 1   
    27   16   44 1   
    28   17   18 1   
    29   17   45 1   
    30   18   19 1   
    31   18   23 1   
    32   19   20 1   
    33   19   46 1   
    34   20   47 1   
    35   21   22 1   
    36   21   24 1   
    37   22   48 1   
    38   23   49 1   
    39   24   25 1   
    40   26   27 1   
    41   26   31 1   
    42   27   28 1   
    43   28   50 1   
    44   29   30 1   
    45   29   32 1   
    46   30   51 1   
    47   31   52 1   
    48   32   33 1   
    49   32   34 1   
    50   35   53 1   
    51   35   54 1   
    52   35   55 1   
@<TRIPOS>SUBSTRUCTURE
     1 BJZ         1 TEMP              0 ****  ****    0 ROOT
