@<TRIPOS>MOLECULE
BJZ
   55    59     1     0     0
SMALL
bcc


@<TRIPOS>ATOM
      1 C1         -0.0570    0.4040   -0.3770 ca        1 BJZ      0.038400
      2 C2          1.3110    0.5360   -0.1370 ca        1 BJZ     -0.141000
      3 C4          1.8480    0.0980    1.0950 ca        1 BJZ      0.096600
      4 C5          0.9830   -0.4640    2.0610 ca        1 BJZ     -0.141000
      5 C7         -0.3800   -0.5730    1.7870 ca        1 BJZ      0.038400
      6 C8         -0.9190   -0.1460    0.5730 ca        1 BJZ     -0.142000
      7 Cl10       -1.4100   -1.2480    2.9610 cl        1 BJZ     -0.090400
      8 N11         3.2240    0.2260    1.3650 n         1 BJZ     -0.428600
      9 C12         4.2550    0.2460    0.3580 c         1 BJZ      0.802500
     10 N13         5.5210    0.2420    0.9870 n         1 BJZ     -0.440800
     11 C14         5.3690    0.3630    2.4430 c3        1 BJZ      0.023400
     12 C15         3.8240    0.2930    2.6490 c         1 BJZ      0.708500
     13 O16         3.2180    0.3450    3.7200 o         1 BJZ     -0.571500
     14 C17         5.8710    1.7050    3.0910 c3        1 BJZ      0.155800
     15 N20         6.7350    1.4080    4.2340 nh        1 BJZ     -0.679300
     16 C21         6.6020   -0.0250    4.5140 c3        1 BJZ      0.165800
     17 C24         6.1480   -0.7400    3.2200 c3        1 BJZ     -0.044400
     18 C26         5.4260   -2.0210    3.4380 ca        1 BJZ     -0.052300
     19 C27         5.7510   -3.1190    2.6270 ca        1 BJZ     -0.123500
     20 C29         5.1350   -4.3530    2.8140 ca        1 BJZ     -0.095000
     21 C31         4.1790   -4.5080    3.8280 ca        1 BJZ     -0.026000
     22 C32         3.8450   -3.4170    4.6410 ca        1 BJZ     -0.095000
     23 C34         4.4640   -2.1850    4.4430 ca        1 BJZ     -0.123500
     24 C36         3.5510   -5.7670    4.0290 cg        1 BJZ      0.243800
     25 N37         3.0380   -6.7980    4.1940 n1        1 BJZ     -0.381800
     26 C38         8.1110    1.8300    4.0390 ca        1 BJZ      0.494200
     27 N39         8.8750    1.2700    3.0490 nb        1 BJZ     -0.746000
     28 C40        10.1370    1.7000    2.9260 ca        1 BJZ      0.414200
     29 C42        10.7250    2.6890    3.7470 ca        1 BJZ     -0.220900
     30 C43         9.9370    3.2480    4.7500 ca        1 BJZ     -0.088000
     31 C45         8.6150    2.8240    4.9110 ca        1 BJZ     -0.222300
     32 C47        12.1680    3.1160    3.5220 c         1 BJZ      0.913200
     33 O48        12.6420    3.9960    4.2920 o         1 BJZ     -0.819300
     34 O49        12.7970    2.5630    2.5780 o         1 BJZ     -0.819300
     35 C51         6.6770    0.7250    0.2940 c3        1 BJZ      0.073300
     36 O55         4.0590    0.2180   -0.8680 o         1 BJZ     -0.615500
     37 Cl56       -0.6910    0.9330   -1.8650 cl        1 BJZ     -0.090400
     38 H2          1.9660    0.9650   -0.9150 ha        1 BJZ      0.180500
     39 H5          1.3740   -0.8030    3.0350 ha        1 BJZ      0.180500
     40 H8         -1.9960   -0.2410    0.3690 ha        1 BJZ      0.158000
     41 H17         4.9830    2.2640    3.5000 h1        1 BJZ      0.073200
     42 H17A        6.3800    2.3550    2.3300 h1        1 BJZ      0.073200
     43 H21         5.8210   -0.1240    5.3160 h1        1 BJZ      0.068200
     44 H21A        7.5610   -0.4710    4.8890 h1        1 BJZ      0.068200
     45 H24         7.0870   -0.9640    2.6270 hc        1 BJZ      0.099700
     46 H27         6.5030   -3.0060    1.8300 ha        1 BJZ      0.155000
     47 H29         5.3990   -5.2040    2.1690 ha        1 BJZ      0.142500
     48 H32         3.0920   -3.5310    5.4360 ha        1 BJZ      0.142500
     49 H34         4.1730   -1.3300    5.0760 ha        1 BJZ      0.155000
     50 H40        10.7490    1.2430    2.1230 h4        1 BJZ      0.043100
     51 H43        10.3750    4.0200    5.4040 ha        1 BJZ      0.162000
     52 H45         7.9810    3.2530    5.6970 ha        1 BJZ      0.134000
     53 H51         7.5960    0.3980    0.8510 h1        1 BJZ      0.064367
     54 H51A        6.6820    1.8460    0.2050 h1        1 BJZ      0.064367
     55 H51B        6.6780    0.2830   -0.7380 h1        1 BJZ      0.064367
@<TRIPOS>BOND
     1    1    2 ar  
     2    1    6 ar  
     3    1   37 1   
     4    2    3 ar  
     5    2   38 1   
     6    3    4 ar  
     7    3    8 1   
     8    4    5 ar  
     9    4   39 1   
    10    5    6 ar  
    11    5    7 1   
    12    6   40 1   
    13    8    9 1   
    14    8   12 1   
    15    9   10 1   
    16    9   36 2   
    17   10   11 1   
    18   10   35 1   
    19   11   12 1   
    20   11   14 1   
    21   11   17 1   
    22   12   13 2   
    23   14   15 1   
    24   14   41 1   
    25   14   42 1   
    26   15   16 1   
    27   15   26 1   
    28   16   17 1   
    29   16   43 1   
    30   16   44 1   
    31   17   18 1   
    32   17   45 1   
    33   18   19 ar  
    34   18   23 ar  
    35   19   20 ar  
    36   19   46 1   
    37   20   21 ar  
    38   20   47 1   
    39   21   22 ar  
    40   21   24 1   
    41   22   23 ar  
    42   22   48 1   
    43   23   49 1   
    44   24   25 3   
    45   26   27 ar  
    46   26   31 ar  
    47   27   28 ar  
    48   28   29 ar  
    49   28   50 1   
    50   29   30 ar  
    51   29   32 1   
    52   30   31 ar  
    53   30   51 1   
    54   31   52 1   
    55   32   33 1   
    56   32   34 1   
    57   35   53 1   
    58   35   54 1   
    59   35   55 1   
@<TRIPOS>SUBSTRUCTURE
     1 BJZ         1 TEMP              0 ****  ****    0 ROOT
