@<TRIPOS>MOLECULE
BK1
   44    47     1     0     0
SMALL
bcc


@<TRIPOS>ATOM
      1 N1         -0.9630    1.5510    2.1990 n2        1 BK1     -0.220000
      2 C2          0.1790    2.3100    2.2380 c1        1 BK1      0.095000
      3 N3          1.3600    1.8020    2.7270 nh        1 BK1     -0.173000
      4 C4          1.4110    0.4990    3.1820 c2        1 BK1      0.073000
      5 C5          0.2100   -0.3490    3.1410 c2        1 BK1     -0.256000
      6 C6         -0.9530    0.2880    2.6350 c2        1 BK1      0.108000
      7 CAA         4.3320   -0.1460    5.3400 c3        1 BK1     -0.234000
      8 CAB         4.7610   -0.5270    2.9100 c3        1 BK1     -0.234000
      9 NAC        -2.2300   -0.4600    2.5930 n4        1 BK1     -0.045000
     10 CAD        -3.0520   -0.8260    7.5180 ca        1 BK1     -0.155000
     11 CAE        -1.6790   -1.0360    7.3980 ca        1 BK1     -0.052000
     12 CAF        -3.8400   -3.4410    3.4650 c3        1 BK1     -0.226000
     13 CAG        -2.3760   -3.4760    3.2540 c2        1 BK1     -0.172000
     14 CAH        -3.9160   -1.2860    6.5260 ca        1 BK1      0.003000
     15 CAI        -4.3400   -2.5280    4.4810 c1        1 BK1     -0.053000
     16 CAJ        -1.1540   -1.6880    6.2780 ca        1 BK1     -0.147000
     17 NAO         1.9780   -1.5160    4.0200 n2        1 BK1     -0.013000
     18 CAQ        -1.5110   -2.8420    4.0840 c2        1 BK1     -0.129000
     19 CAR         0.6640   -1.6200    3.6870 c2        1 BK1     -0.052000
     20 CAS        -3.4110   -1.9680    5.4030 ca        1 BK1     -0.207000
     21 CAT        -2.0030   -2.1520    5.2720 ca        1 BK1     -0.035000
     22 NAX         2.4250   -0.2780    3.7400 na        1 BK1     -0.113000
     23 H2          2.1700    2.3900    2.7450 hn        1 BK1      0.286000
     24 HAA         4.3870   -1.2440    5.5380 hc        1 BK1      0.105833
     25 HAAA        3.6710    0.3260    6.1060 hc        1 BK1      0.105833
     26 HAAB        5.3580    0.2860    5.4390 hc        1 BK1      0.105833
     27 HAB         3.8410    1.2530    3.7570 h1        1 BK1      0.100000
     28 HABA        4.4420   -0.3120    1.8630 hc        1 BK1      0.105833
     29 HABB        5.7910   -0.1170    3.0590 hc        1 BK1      0.105833
     30 HNAC       -2.0650   -1.3880    2.1790 hn        1 BK1      0.274667
     31 HNAA       -2.5770   -0.5880    3.5590 hn        1 BK1      0.274667
     32 HAF        -4.3780   -3.2580    2.4900 hc        1 BK1      0.176000
     33 HAG        -2.0150   -4.0670    2.3960 ha        1 BK1      0.149000
     34 HAH        -5.0080   -1.1470    6.6150 ha        1 BK1      0.176000
     35 HAI        -4.1960   -4.4700    3.8020 hc        1 BK1      0.176000
     36 HAJ        -0.0660   -1.8480    6.2070 ha        1 BK1      0.151000
     37 CAL        -0.0470   -2.9210    3.8260 c3        1 BK1     -0.080000
     38 CAW         3.8340    0.1340    3.9250 c3        1 BK1      0.057000
     39 HAD        -3.4560   -0.3080    8.4040 ha        1 BK1      0.163000
     40 HAL         0.4190   -3.5180    4.6660 hc        1 BK1      0.136500
     41 HALA        0.1450   -3.5060    2.8800 hc        1 BK1      0.136500
     42 HAW         4.7940   -1.6330    3.0580 hc        1 BK1      0.105833
     43 HAC3       -2.9350    0.0510    2.0430 hn        1 BK1      0.274667
     44 HAE        -0.9980   -0.6920    8.1940 ha        1 BK1      0.156000
@<TRIPOS>BOND
     1    1    2 1   
     2    1    6 1   
     3    2    3 1   
     4    3    4 1   
     5    3   23 1   
     6    4    5 1   
     7    4   22 1   
     8    5    6 1   
     9    5   19 1   
    10    6    9 1   
    11    7   24 1   
    12    7   25 1   
    13    7   26 1   
    14    7   38 1   
    15    8   28 1   
    16    8   29 1   
    17    8   38 1   
    18    8   42 1   
    19    9   30 1   
    20    9   31 1   
    21    9   43 1   
    22   10   11 1   
    23   10   14 1   
    24   10   39 1   
    25   11   16 1   
    26   11   44 1   
    27   12   13 1   
    28   12   15 1   
    29   12   32 1   
    30   12   35 1   
    31   13   18 1   
    32   13   33 1   
    33   14   20 1   
    34   14   34 1   
    35   15   20 1   
    36   16   21 1   
    37   16   36 1   
    38   17   19 1   
    39   17   22 1   
    40   18   21 1   
    41   18   37 1   
    42   19   37 1   
    43   20   21 1   
    44   22   38 1   
    45   27   38 1   
    46   37   40 1   
    47   37   41 1   
@<TRIPOS>SUBSTRUCTURE
     1 BK1         1 TEMP              0 ****  ****    0 ROOT
