@<TRIPOS>MOLECULE
BK1
   43    45     1     0     0
SMALL
bcc


@<TRIPOS>ATOM
      1 N1         -0.1920    1.7680    1.0560 n2        1 BK1     -0.308000
      2 C2          1.0630    2.1240    1.3520 c1        1 BK1      0.004000
      3 N3          1.8980    1.3630    2.1660 nh        1 BK1     -0.218000
      4 C4          1.4190    0.1800    2.6800 c2        1 BK1      0.087000
      5 C5          0.0660   -0.2500    2.3870 c2        1 BK1     -0.305000
      6 C6         -0.7360    0.6070    1.5480 c2        1 BK1      0.272000
      7 CAA         3.1870   -0.2960    5.5850 c3        1 BK1     -0.229000
      8 CAB         4.0760   -2.0600    4.0650 c3        1 BK1     -0.229000
      9 NAC        -2.0180    0.2470    1.2350 n3        1 BK1     -0.355000
     10 CAD        -1.3830   -1.0850    7.9960 c2        1 BK1     -0.227000
     11 CAE        -1.4640   -0.0070    7.0730 c1        1 BK1     -0.079000
     12 CAF        -2.0450   -5.1590    6.7340 c1        1 BK1      0.211000
     13 CAG        -3.6010   -1.8620    3.4340 c2        1 BK1     -0.220000
     14 CAH        -1.6190   -2.3730    7.6250 c2        1 BK1     -0.018000
     15 CAI        -2.1970   -4.1110    5.9490 c2        1 BK1     -0.443000
     16 CAJ        -1.7960   -0.3090    5.6900 c3        1 BK1     -0.200000
     17 NAO         1.1050   -1.8220    3.7030 n2        1 BK1     -0.056000
     18 CAQ        -2.3570   -1.9910    3.9090 c2        1 BK1     -0.082000
     19 CAR        -0.0560   -1.5280    3.0640 c2        1 BK1     -0.060000
     20 CAS        -1.9570   -2.7150    6.2580 c2        1 BK1     -0.034000
     21 CAT        -2.0390   -1.7290    5.3170 c2        1 BK1     -0.033000
     22 NAX         1.9960   -0.8350    3.4630 na        1 BK1     -0.150000
     23 H2          2.8180    1.6800    2.3630 hn        1 BK1      0.251000
     24 HAA         2.6350   -1.0520    6.1940 hc        1 BK1      0.093833
     25 HAAA        4.2170   -0.1830    6.0030 hc        1 BK1      0.093833
     26 HAAB        2.6580    0.6830    5.6670 hc        1 BK1      0.093833
     27 HAB         5.0970   -1.8860    4.4820 hc        1 BK1      0.093833
     28 HABA        3.8800    0.0350    3.5540 h1        1 BK1      0.094000
     29 HABB        4.1750   -2.4180    3.0120 hc        1 BK1      0.093833
     30 HNAC       -2.5890    0.8580    0.7010 hn        1 BK1      0.238000
     31 HNAA       -2.4370   -0.5090    1.7160 hn        1 BK1      0.238000
     32 HAE        -2.7030    0.3120    5.4210 hc        1 BK1      0.170500
     33 HAF        -3.8590   -2.0690    2.3870 ha        1 BK1      0.124000
     34 HAG        -4.4440   -1.5600    4.0710 ha        1 BK1      0.124000
     35 HAH        -1.5620   -3.2040    8.3500 ha        1 BK1      0.135000
     36 HAI        -2.5560   -4.3150    4.9140 ha        1 BK1      0.198000
     37 HAJ        -0.9500    0.0960    5.0520 hc        1 BK1      0.170500
     38 CAL        -1.2260   -2.4440    3.0400 c3        1 BK1     -0.067000
     39 CAW         3.2990   -0.7470    4.1300 c3        1 BK1      0.060000
     40 HAD        -1.1230   -0.8410    9.0390 ha        1 BK1      0.150000
     41 HAL        -0.9180   -3.4720    3.3880 hc        1 BK1      0.112000
     42 HALA       -1.5690   -2.5470    1.9740 hc        1 BK1      0.112000
     43 HAW         3.5720   -2.8540    4.6670 hc        1 BK1      0.093833
@<TRIPOS>BOND
     1    1    2 1   
     2    1    6 1   
     3    2    3 1   
     4    3    4 1   
     5    3   23 1   
     6    4    5 1   
     7    4   22 1   
     8    5    6 1   
     9    5   19 1   
    10    6    9 1   
    11    7   24 1   
    12    7   25 1   
    13    7   26 1   
    14    7   39 1   
    15    8   27 1   
    16    8   29 1   
    17    8   39 1   
    18    8   43 1   
    19    9   30 1   
    20    9   31 1   
    21   10   11 1   
    22   10   14 1   
    23   10   40 1   
    24   11   16 1   
    25   12   15 1   
    26   13   18 1   
    27   13   33 1   
    28   13   34 1   
    29   14   20 1   
    30   14   35 1   
    31   15   20 1   
    32   15   36 1   
    33   16   21 1   
    34   16   32 1   
    35   16   37 1   
    36   17   19 1   
    37   17   22 1   
    38   18   21 1   
    39   18   38 1   
    40   19   38 1   
    41   20   21 1   
    42   22   39 1   
    43   28   39 1   
    44   38   41 1   
    45   38   42 1   
@<TRIPOS>SUBSTRUCTURE
     1 BK1         1 TEMP              0 ****  ****    0 ROOT
