@<TRIPOS>MOLECULE
BK1
   43    46     1     0     0
SMALL
bcc


@<TRIPOS>ATOM
      1 N1         -3.7050    2.4110    0.2870 nb        1 BK1     -0.798000
      2 C2         -4.3590    1.3010    0.7250 ca        1 BK1      0.691900
      3 N3         -3.9700    0.0090    0.7090 nb        1 BK1     -0.737000
      4 C4         -2.7290   -0.1650    0.1540 ca        1 BK1      0.468800
      5 C5         -1.9080    0.9230   -0.3660 ca        1 BK1     -0.485500
      6 C6         -2.4660    2.2360   -0.2790 ca        1 BK1      0.747200
      7 CAA        -2.3250   -3.7210   -0.7190 c3        1 BK1     -0.109100
      8 CAB        -1.5550   -3.1600    1.5850 c3        1 BK1     -0.109100
      9 NAC        -1.8060    3.3310   -0.8060 nh        1 BK1     -0.946500
     10 CAD         4.5480   -1.9780    0.0510 ca        1 BK1     -0.124000
     11 CAE         3.4620   -2.2160   -0.8230 ca        1 BK1     -0.130000
     12 CAF         2.8660    2.4780    0.9640 ca        1 BK1     -0.128000
     13 CAG         1.7810    2.2550    0.0860 ca        1 BK1     -0.128000
     14 CAH         4.6550   -0.7730    0.6980 ca        1 BK1     -0.122000
     15 CAI         3.8000    1.4950    1.1680 ca        1 BK1     -0.113000
     16 CAJ         2.5110   -1.2480   -1.0340 ca        1 BK1     -0.109000
     17 NAO        -0.8090   -1.0740   -0.6360 nc        1 BK1     -0.514100
     18 CAQ         1.6290    1.0540   -0.5760 ca        1 BK1     -0.060300
     19 CAR        -0.7080    0.2620   -0.8500 cd        1 BK1      0.381900
     20 CAS         3.6840    0.2470    0.4980 ca        1 BK1     -0.036000
     21 CAT         2.5920    0.0150   -0.3810 ca        1 BK1     -0.021000
     22 NAX        -1.9950   -1.3450   -0.0630 na        1 BK1      0.004200
     23 H2         -5.3600    1.4950    1.1690 h5        1 BK1      0.052100
     24 HAA        -2.7340   -4.6840   -0.3270 hc        1 BK1      0.049867
     25 HAAA       -2.9350   -3.4050   -1.5980 hc        1 BK1      0.049867
     26 HAAB       -1.2740   -3.8870   -1.0530 hc        1 BK1      0.049867
     27 HAB        -1.9550   -4.1450    1.9240 hc        1 BK1      0.049867
     28 HABA       -0.4840   -3.2860    1.2960 hc        1 BK1      0.049867
     29 HABB       -1.6150   -2.4390    2.4340 hc        1 BK1      0.049867
     30 HNAC       -0.8250    3.2510   -0.9160 hn        1 BK1      0.428300
     31 HNAA       -2.1660    4.2370   -0.6130 hn        1 BK1      0.428300
     32 HAE         3.3880   -3.1890   -1.3320 ha        1 BK1      0.133000
     33 HAF         2.9470    3.4480    1.4770 ha        1 BK1      0.133000
     34 HAG         1.0570    3.0700   -0.0590 ha        1 BK1      0.116000
     35 HAH         5.4930   -0.5730    1.3840 ha        1 BK1      0.132000
     36 HAI         4.6510    1.6540    1.8480 ha        1 BK1      0.134000
     37 HAJ         1.6650   -1.4550   -1.7080 ha        1 BK1      0.145000
     38 CAL         0.4760    0.8780   -1.5100 c3        1 BK1     -0.046400
     39 CAW        -2.3900   -2.6800    0.3980 c3        1 BK1      0.079000
     40 HAD         5.2970   -2.7690    0.2040 ha        1 BK1      0.132000
     41 HAL         0.1820    1.8710   -1.9440 hc        1 BK1      0.063700
     42 HALA        0.7910    0.2440   -2.3860 hc        1 BK1      0.063700
     43 HAW        -3.4670   -2.5810    0.7320 h1        1 BK1      0.086700
@<TRIPOS>BOND
     1    1    2 ar  
     2    1    6 ar  
     3    2    3 ar  
     4    2   23 1   
     5    3    4 ar  
     6    4    5 ar  
     7    4   22 1   
     8    5    6 ar  
     9    5   19 1   
    10    6    9 1   
    11    7   24 1   
    12    7   25 1   
    13    7   26 1   
    14    7   39 1   
    15    8   27 1   
    16    8   28 1   
    17    8   29 1   
    18    8   39 1   
    19    9   30 1   
    20    9   31 1   
    21   10   11 ar  
    22   10   14 ar  
    23   10   40 1   
    24   11   16 ar  
    25   11   32 1   
    26   12   13 ar  
    27   12   15 ar  
    28   12   33 1   
    29   13   18 ar  
    30   13   34 1   
    31   14   20 ar  
    32   14   35 1   
    33   15   20 ar  
    34   15   36 1   
    35   16   21 ar  
    36   16   37 1   
    37   17   19 2   
    38   17   22 1   
    39   18   21 ar  
    40   18   38 1   
    41   19   38 1   
    42   20   21 ar  
    43   22   39 1   
    44   38   41 1   
    45   38   42 1   
    46   39   43 1   
@<TRIPOS>SUBSTRUCTURE
     1 BK1         1 TEMP              0 ****  ****    0 ROOT
