@<TRIPOS>MOLECULE
BK1
   43    36     1     0     0
SMALL
bcc


@<TRIPOS>ATOM
      1 N1          0.4940    0.7230   -4.4880 n1        1 BK1     -0.272000
      2 C2          1.8570    0.6870   -4.4670 c1        1 BK1      0.029000
      3 N3          2.5200    0.6020   -3.2800 n1        1 BK1     -0.211000
      4 C4          1.8210    0.5510   -2.1100 c1        1 BK1     -0.097000
      5 C5          0.4760    0.5870   -2.1290 c1        1 BK1     -0.097000
      6 C6         -0.1970    0.6740   -3.3380 c1        1 BK1      0.226000
      7 CAA         3.9390    1.8340    0.1540 c3        1 BK1     -0.227000
      8 CAB         3.9860   -0.6240    0.4010 c3        1 BK1     -0.227000
      9 NAC        -1.3850    0.7020   -4.1210 n3        1 BK1     -0.344000
     10 CAD        -2.8790   -0.7790    4.6490 c1        1 BK1     -0.121000
     11 CAE        -2.2680    0.4110    4.2640 c1        1 BK1     -0.121000
     12 CAF        -2.7310   -2.3410    0.0670 c1        1 BK1     -0.121000
     13 CAG        -2.1210   -1.1510   -0.3190 c1        1 BK1     -0.128000
     14 CAH        -3.1450   -1.7610    3.7050 c1        1 BK1     -0.121000
     15 CAI        -3.0700   -2.5480    1.3980 c1        1 BK1     -0.121000
     16 CAJ        -1.9250    0.6160    2.9340 c1        1 BK1     -0.121000
     17 CAL        -1.2300    0.9870   -0.1190 c3        1 BK1     -0.057000
     18 NAO         1.1050    0.4460   -0.0130 n2        1 BK1     -0.047000
     19 CAQ        -1.8510   -0.1700    0.6270 c2        1 BK1     -0.053000
     20 CAR         0.0280    0.5210   -0.8170 c1        1 BK1     -0.065000
     21 CAS        -2.7970   -1.5540    2.3560 c1        1 BK1     -0.036000
     22 CAT        -2.1950   -0.3790    1.9750 c1        1 BK1     -0.021000
     23 CAW         3.6130    0.5190   -0.5190 c3        1 BK1      0.059000
     24 NAX         2.2240    0.4640   -0.8010 n2        1 BK1     -0.131000
     25 H2          2.3580    0.7230   -5.3030 ha        1 BK1      0.189000
     26 HAA         3.5810    1.8330    1.0660 hc        1 BK1      0.089167
     27 HAAA        3.5370    2.5700   -0.3540 hc        1 BK1      0.089167
     28 HAAB        4.9120    1.9530    0.1860 hc        1 BK1      0.089167
     29 HAB         3.5750   -0.4840    1.2790 hc        1 BK1      0.089167
     30 HABA        3.6650   -1.4680    0.0200 hc        1 BK1      0.089167
     31 HABB        4.9600   -0.6590    0.4990 hc        1 BK1      0.089167
     32 HNAC       -1.3330    0.6520   -5.0340 hn        1 BK1      0.223500
     33 HNAA       -2.1990    0.7750   -3.7120 hn        1 BK1      0.223500
     34 HAD        -3.1190   -0.9230    5.5840 ha        1 BK1      0.134833
     35 HAE        -2.0810    1.1020    4.9280 ha        1 BK1      0.134833
     36 HAF        -2.9200   -3.0290   -0.5980 ha        1 BK1      0.134833
     37 HAG        -1.8820   -1.0060   -1.2540 ha        1 BK1      0.116000
     38 HAH        -3.5730   -2.5960    3.9760 ha        1 BK1      0.134833
     39 HAI        -3.4980   -3.3820    1.6680 ha        1 BK1      0.134833
     40 HAJ        -1.4970    1.4510    2.6640 ha        1 BK1      0.134833
     41 HAL        -1.8650    1.3260   -0.7820 hc        1 BK1      0.103000
     42 HALA       -1.0070    1.7000    0.5130 hc        1 BK1      0.103000
     43 HAW         4.1180    0.4450   -1.3520 h1        1 BK1      0.126000
@<TRIPOS>BOND
     1    1    6 1   
     2    2    3 1   
     3    2   25 1   
     4    4    5 1   
     5    6    9 1   
     6    7   23 1   
     7    7   26 1   
     8    7   27 1   
     9    7   28 1   
    10    8   23 1   
    11    8   29 1   
    12    8   30 1   
    13    8   31 1   
    14    9   32 1   
    15    9   33 1   
    16   10   14 1   
    17   10   34 1   
    18   11   16 1   
    19   11   35 1   
    20   12   15 1   
    21   12   36 1   
    22   13   19 1   
    23   13   37 1   
    24   14   38 1   
    25   15   39 1   
    26   16   40 1   
    27   17   19 1   
    28   17   20 1   
    29   17   41 1   
    30   17   42 1   
    31   18   20 1   
    32   18   24 1   
    33   19   22 1   
    34   21   22 1   
    35   23   24 1   
    36   23   43 1   
@<TRIPOS>SUBSTRUCTURE
     1 BK1         1 TEMP              0 ****  ****    0 ROOT
