@<TRIPOS>MOLECULE
BK1
   43    45     1     0     0
SMALL
bcc


@<TRIPOS>ATOM
      1 N1         -0.3750    0.8660    0.0660 n2        1 BK1     -0.309000
      2 C2          0.7440    1.5760    0.2440 c1        1 BK1      0.003000
      3 N3          1.6150    1.3620    1.3090 nu        1 BK1     -0.220000
      4 C4          1.3260    0.3590    2.2060 c2        1 BK1      0.087000
      5 C5          0.1300   -0.4470    2.0510 c2        1 BK1     -0.299000
      6 C6         -0.7330   -0.1350    0.9360 c2        1 BK1      0.271000
      7 CAA         2.8370    1.3390    5.1440 c3        1 BK1     -0.228000
      8 CAB         4.2240   -0.5810    4.3680 c3        1 BK1     -0.228000
      9 NAC        -1.8900   -0.8380    0.7380 n8        1 BK1     -0.353000
     10 CAD        -1.2150   -3.6750    8.3640 ca        1 BK1     -0.039000
     11 CAE        -0.3370   -3.6430    7.2150 ca        1 BK1     -0.193000
     12 CAF        -5.2550   -1.7720    6.3330 c1        1 BK1      0.151000
     13 CAG        -2.6730   -1.0310    4.0880 c3        1 BK1     -0.211000
     14 CAH        -2.4520   -3.1610    8.0560 ca        1 BK1     -0.179000
     15 CAI        -4.0790   -2.2130    6.5120 c1        1 BK1     -0.592000
     16 CAJ        -1.0750   -3.9730    6.0870 ca        1 BK1     -0.112000
     17 NAO         1.3180   -1.1690    3.8830 n2        1 BK1     -0.060000
     18 CAQ        -1.7760   -2.1510    4.4490 c2        1 BK1      0.010000
     19 CAR         0.2030   -1.4000    3.1440 c2        1 BK1     -0.053000
     20 CAS        -2.8490   -2.6890    6.7180 ca        1 BK1      0.292000
     21 CAT        -1.8670   -2.8500    5.5920 ca        1 BK1     -0.109000
     22 NAX         2.0060   -0.1500    3.3260 na        1 BK1     -0.150000
     23 H2          2.4260    1.9260    1.4040 hn        1 BK1      0.250000
     24 HAA         2.3890    0.7310    5.9660 hc        1 BK1      0.092667
     25 HAAA        3.6500    1.1090    3.1430 h1        1 BK1      0.094000
     26 HAAB        2.1140    2.1410    4.8580 hc        1 BK1      0.092667
     27 HAB         3.8390   -1.2160    5.2010 hc        1 BK1      0.092667
     28 HABA        5.1390   -0.0440    4.7180 hc        1 BK1      0.092667
     29 HABB        4.5020   -1.2430    3.5130 hc        1 BK1      0.092667
     30 HNAC       -2.4990   -0.5900   -0.0050 hn        1 BK1      0.238500
     31 HNAA       -2.2300   -1.4240    1.4580 hn        1 BK1      0.238500
     32 HAE        -1.5560   -4.9640    6.0060 ha        1 BK1      0.137000
     33 HAF        -2.1070   -0.2380    3.5370 hc        1 BK1      0.104667
     34 HAG        -3.5000   -1.4080    3.4330 hc        1 BK1      0.104667
     35 HAH        -3.2030   -3.0020    8.8480 ha        1 BK1      0.160000
     36 HAI        -3.1420   -0.5690    4.9940 hc        1 BK1      0.104667
     37 HAJ         0.5490   -2.9980    7.2210 ha        1 BK1      0.166000
     38 CAL        -0.7320   -2.5170    3.4400 c3        1 BK1     -0.078000
     39 CAW         3.1870    0.4580    3.9460 c3        1 BK1      0.060000
     40 HAD        -0.8940   -3.9250    9.3810 ha        1 BK1      0.151000
     41 HAL        -1.2380   -2.8450    2.4920 hc        1 BK1      0.115000
     42 HALA       -0.1440   -3.4070    3.8100 hc        1 BK1      0.115000
     43 HAW         3.7720    1.8180    5.5200 hc        1 BK1      0.092667
@<TRIPOS>BOND
     1    1    2 1   
     2    1    6 1   
     3    2    3 1   
     4    3    4 1   
     5    3   23 1   
     6    4    5 1   
     7    4   22 1   
     8    5    6 1   
     9    5   19 1   
    10    6    9 1   
    11    7   24 1   
    12    7   26 1   
    13    7   39 1   
    14    7   43 1   
    15    8   27 1   
    16    8   28 1   
    17    8   29 1   
    18    8   39 1   
    19    9   30 1   
    20    9   31 1   
    21   10   11 1   
    22   10   14 1   
    23   10   40 1   
    24   11   16 1   
    25   11   37 1   
    26   12   15 1   
    27   13   18 1   
    28   13   33 1   
    29   13   34 1   
    30   13   36 1   
    31   14   20 1   
    32   14   35 1   
    33   15   20 1   
    34   16   21 1   
    35   16   32 1   
    36   17   19 1   
    37   17   22 1   
    38   18   21 1   
    39   18   38 1   
    40   19   38 1   
    41   20   21 1   
    42   22   39 1   
    43   25   39 1   
    44   38   41 1   
    45   38   42 1   
@<TRIPOS>SUBSTRUCTURE
     1 BK1         1 TEMP              0 ****  ****    0 ROOT
