@<TRIPOS>MOLECULE
BK2
   43    46     1     0     0
SMALL
bcc


@<TRIPOS>ATOM
      1 N1          2.3370   -3.1680   -0.6890 nb        1 BK2     -0.800000
      2 C2          3.5070   -2.4740   -0.6540 ca        1 BK2      0.691900
      3 N3          3.7360   -1.1650   -0.4130 nb        1 BK2     -0.743000
      4 C4          2.5890   -0.4580   -0.1610 ca        1 BK2      0.474800
      5 C5          1.2670   -1.0670   -0.1450 ca        1 BK2     -0.494500
      6 C6          1.1840   -2.4660   -0.4250 ca        1 BK2      0.757200
      7 CAA         4.2480    2.0390   -1.0860 c3        1 BK2     -0.105433
      8 CAB         4.4280    1.5660    1.3600 c3        1 BK2     -0.105433
      9 CAC         2.8800    3.3240    0.5380 c3        1 BK2     -0.105433
     10 NAD        -0.0300   -3.1130   -0.3920 nh        1 BK2     -0.956500
     11 CAE        -6.1030    0.4830   -0.0780 ca        1 BK2     -0.122000
     12 CAF        -5.5420    1.3670   -1.0310 ca        1 BK2     -0.127000
     13 CAH        -1.6490   -0.9200    1.2480 ca        1 BK2     -0.124000
     14 CAI        -5.2910   -0.2930    0.7130 ca        1 BK2     -0.120000
     15 CAJ        -4.1790    1.4580   -1.1750 ca        1 BK2     -0.113000
     16 CAK        -3.0100   -1.0050    1.3930 ca        1 BK2     -0.122000
     17 CAL        -1.9010    0.7440   -0.5000 ca        1 BK2     -0.086000
     18 NAO         1.0800    1.1770    0.2880 nc        1 BK2     -0.500100
     19 CAQ        -1.0820   -0.0420    0.2830 ca        1 BK2     -0.104900
     20 CAR         0.3670    0.0290    0.1500 cd        1 BK2      0.414500
     21 CAS        -3.8770   -0.2190    0.5850 ca        1 BK2     -0.034000
     22 CAT        -3.3140    0.6660   -0.3700 ca        1 BK2     -0.043000
     23 NAW         2.3870    0.9110    0.1050 na        1 BK2      0.004200
     24 CAX         3.4560    1.9320    0.2270 c3        1 BK2      0.099700
     25 H2          4.4120   -3.0840   -0.8640 h5        1 BK2      0.050100
     26 HAA         5.0130    2.8460   -0.9710 hc        1 BK2      0.051922
     27 HAAA        4.7760    1.0860   -1.3230 hc        1 BK2      0.051922
     28 HAAB        3.5750    2.3040   -1.9350 hc        1 BK2      0.051922
     29 HAB         5.1940    2.3730    1.4420 hc        1 BK2      0.051922
     30 HABA        3.8880    1.4860    2.3330 hc        1 BK2      0.051922
     31 HABB        4.9510    0.6030    1.1530 hc        1 BK2      0.051922
     32 HAC         2.1920    3.6640   -0.2710 hc        1 BK2      0.051922
     33 HACA        2.3290    3.3220    1.5080 hc        1 BK2      0.051922
     34 HACB        3.7290    4.0460    0.6120 hc        1 BK2      0.051922
     35 HNAD       -0.0960   -4.0460   -0.7190 hn        1 BK2      0.440300
     36 HNAA       -0.8480   -2.5530   -0.3860 hn        1 BK2      0.440300
     37 HAE        -7.1980    0.4290    0.0190 ha        1 BK2      0.134000
     38 HAF        -6.2130    1.9790   -1.6510 ha        1 BK2      0.134000
     39 HAH        -0.9760   -1.5160    1.8840 ha        1 BK2      0.147000
     40 HAI        -5.7180   -0.9810    1.4570 ha        1 BK2      0.134000
     41 HAJ        -3.7330    2.1440   -1.9110 ha        1 BK2      0.136000
     42 HAK        -3.4540   -1.6770    2.1420 ha        1 BK2      0.137000
     43 HAL        -1.4740    1.4440   -1.2350 ha        1 BK2      0.146000
@<TRIPOS>BOND
     1    1    2 ar  
     2    1    6 ar  
     3    2    3 ar  
     4    2   25 1   
     5    3    4 ar  
     6    4    5 ar  
     7    4   23 1   
     8    5    6 ar  
     9    5   20 1   
    10    6   10 1   
    11    7   24 1   
    12    7   26 1   
    13    7   27 1   
    14    7   28 1   
    15    8   24 1   
    16    8   29 1   
    17    8   30 1   
    18    8   31 1   
    19    9   24 1   
    20    9   32 1   
    21    9   33 1   
    22    9   34 1   
    23   10   35 1   
    24   10   36 1   
    25   11   12 ar  
    26   11   14 ar  
    27   11   37 1   
    28   12   15 ar  
    29   12   38 1   
    30   13   16 ar  
    31   13   19 ar  
    32   13   39 1   
    33   14   21 ar  
    34   14   40 1   
    35   15   22 ar  
    36   15   41 1   
    37   16   21 ar  
    38   16   42 1   
    39   17   19 ar  
    40   17   22 ar  
    41   17   43 1   
    42   18   20 2   
    43   18   23 1   
    44   19   20 1   
    45   21   22 ar  
    46   23   24 1   
@<TRIPOS>SUBSTRUCTURE
     1 BK2         1 TEMP              0 ****  ****    0 ROOT
