@<TRIPOS>MOLECULE
BK2
   43    46     1     0     0
SMALL
bcc


@<TRIPOS>ATOM
      1 N1         -0.0420    0.1880   -0.1220 nb        1 BK2     -0.800000
      2 C2          1.3150    0.1650   -0.0250 ca        1 BK2      0.691900
      3 N3          2.1080    0.1010    1.0660 nb        1 BK2     -0.743000
      4 C4          1.4020    0.0450    2.2390 ca        1 BK2      0.474800
      5 C5         -0.0530    0.0410    2.2920 ca        1 BK2     -0.494500
      6 C6         -0.7560    0.1190    1.0510 ca        1 BK2      0.757200
      7 CAA         4.0130    1.1920    3.5480 c3        1 BK2     -0.105433
      8 CAB         3.9490   -1.3030    3.4590 c3        1 BK2     -0.105433
      9 CAC         3.3640   -0.1140    5.5560 c3        1 BK2     -0.105433
     10 NAD        -2.1310    0.0850    1.0250 nh        1 BK2     -0.956500
     11 CAE        -5.9360    0.7680    6.9390 ca        1 BK2     -0.122000
     12 CAF        -5.0330    1.7940    7.3110 ca        1 BK2     -0.127000
     13 CAH        -2.5940   -1.0880    3.9460 ca        1 BK2     -0.124000
     14 CAI        -5.5620   -0.1880    6.0260 ca        1 BK2     -0.120000
     15 CAJ        -3.7750    1.8450    6.7630 ca        1 BK2     -0.113000
     16 CAK        -3.8480   -1.1380    4.5000 ca        1 BK2     -0.122000
     17 CAL        -2.0650    0.9000    5.2350 ca        1 BK2     -0.086000
     18 NAO         0.7900   -0.0430    4.4230 nc        1 BK2     -0.500100
     19 CAQ        -1.6890   -0.0510    4.3090 ca        1 BK2     -0.104900
     20 CAR        -0.3630   -0.0210    3.7060 cd        1 BK2      0.414500
     21 CAS        -4.2660   -0.1590    5.4430 ca        1 BK2     -0.034000
     22 CAT        -3.3620    0.8690    5.8140 ca        1 BK2     -0.043000
     23 NAW         1.8380   -0.0030    3.5790 na        1 BK2      0.004200
     24 CAX         3.2520   -0.0560    4.0230 c3        1 BK2      0.099700
     25 H2          1.8490    0.2130   -0.9990 h5        1 BK2      0.050100
     26 HAA         5.0570    1.1380    3.9390 hc        1 BK2      0.051922
     27 HAAA        3.5340    2.1210    3.9380 hc        1 BK2      0.051922
     28 HAAB        4.0560    1.2440    2.4350 hc        1 BK2      0.051922
     29 HAB         3.4290   -2.2330    3.7900 hc        1 BK2      0.051922
     30 HABA        4.9980   -1.3250    3.8420 hc        1 BK2      0.051922
     31 HABB        3.9820   -1.2820    2.3440 hc        1 BK2      0.051922
     32 HAC         2.8670   -1.0270    5.9620 hc        1 BK2      0.051922
     33 HACA        2.9050    0.7880    6.0270 hc        1 BK2      0.051922
     34 HACB        4.4460   -0.1460    5.8280 hc        1 BK2      0.051922
     35 HNAD       -2.6100    0.2230    1.8830 hn        1 BK2      0.440300
     36 HNAA       -2.6100    0.2760    0.1790 hn        1 BK2      0.440300
     37 HAE        -6.9380    0.7480    7.3920 ha        1 BK2      0.134000
     38 HAF        -5.3560    2.5470    8.0450 ha        1 BK2      0.134000
     39 HAH        -2.2630   -1.8540    3.2280 ha        1 BK2      0.147000
     40 HAI        -6.2550   -0.9900    5.7320 ha        1 BK2      0.134000
     41 HAJ        -3.0660    2.6370    7.0470 ha        1 BK2      0.136000
     42 HAK        -4.5490   -1.9420    4.2280 ha        1 BK2      0.137000
     43 HAL        -1.3660    1.6940    5.5400 ha        1 BK2      0.146000
@<TRIPOS>BOND
     1    1    2 ar  
     2    1    6 ar  
     3    2    3 ar  
     4    2   25 1   
     5    3    4 ar  
     6    4    5 ar  
     7    4   23 1   
     8    5    6 ar  
     9    5   20 1   
    10    6   10 1   
    11    7   24 1   
    12    7   26 1   
    13    7   27 1   
    14    7   28 1   
    15    8   24 1   
    16    8   29 1   
    17    8   30 1   
    18    8   31 1   
    19    9   24 1   
    20    9   32 1   
    21    9   33 1   
    22    9   34 1   
    23   10   35 1   
    24   10   36 1   
    25   11   12 ar  
    26   11   14 ar  
    27   11   37 1   
    28   12   15 ar  
    29   12   38 1   
    30   13   16 ar  
    31   13   19 ar  
    32   13   39 1   
    33   14   21 ar  
    34   14   40 1   
    35   15   22 ar  
    36   15   41 1   
    37   16   21 ar  
    38   16   42 1   
    39   17   19 ar  
    40   17   22 ar  
    41   17   43 1   
    42   18   20 2   
    43   18   23 1   
    44   19   20 1   
    45   21   22 ar  
    46   23   24 1   
@<TRIPOS>SUBSTRUCTURE
     1 BK2         1 TEMP              0 ****  ****    0 ROOT
