@<TRIPOS>MOLECULE
BK2
   44    47     1     0     0
SMALL
bcc


@<TRIPOS>ATOM
      1 N1         -0.0880    0.2190   -0.0760 nb        1 BK2     -0.699000
      2 C2          1.2850    0.1910   -0.0180 ca        1 BK2      0.678900
      3 N3          2.0810    0.1130    1.0670 nb        1 BK2     -0.625000
      4 C4          1.4140    0.0500    2.2570 ca        1 BK2      0.461800
      5 C5         -0.0610    0.0570    2.3330 ca        1 BK2     -0.430500
      6 C6         -0.7360    0.1550    1.1080 ca        1 BK2      0.555200
      7 CAA         4.0280    1.1900    3.5500 c3        1 BK2     -0.112767
      8 CAB         3.9790   -1.3100    3.4200 c3        1 BK2     -0.112767
      9 CAC         3.4110   -0.1550    5.5480 c3        1 BK2     -0.112767
     10 NAD        -2.2140    0.2010    1.1070 n4        1 BK2     -0.834300
     11 CAE        -5.9760    0.7860    6.8690 ca        1 BK2     -0.099000
     12 CAF        -5.1060    1.8520    7.2000 ca        1 BK2     -0.104000
     13 CAH        -2.5420   -1.1400    4.0290 ca        1 BK2     -0.190000
     14 CAI        -5.5670   -0.2050    6.0080 ca        1 BK2     -0.121000
     15 CAJ        -3.8410    1.9110    6.6650 ca        1 BK2     -0.115000
     16 CAK        -3.8020   -1.1940    4.5690 ca        1 BK2     -0.093000
     17 CAL        -2.0850    0.9310    5.2150 ca        1 BK2     -0.058000
     18 NAO         0.8250   -0.0660    4.4380 nc        1 BK2     -0.422100
     19 CAQ        -1.6750   -0.0550    4.3440 ca        1 BK2     -0.161900
     20 CAR        -0.3460   -0.0240    3.7500 cd        1 BK2      0.402500
     21 CAS        -4.2650   -0.1700    5.4420 ca        1 BK2     -0.036000
     22 CAT        -3.3930    0.9000    5.7730 ca        1 BK2     -0.044000
     23 NAW         1.8590   -0.0230    3.5870 na        1 BK2      0.039200
     24 CAX         3.2950   -0.0740    4.0190 c3        1 BK2      0.091700
     25 H2          1.7960    0.2420   -1.0080 h5        1 BK2      0.097100
     26 HAA         4.0630    1.2580    2.4370 hc        1 BK2      0.063367
     27 HAAA        3.5460    2.1090    3.9600 hc        1 BK2      0.063367
     28 HAAB        5.0780    1.1410    3.9290 hc        1 BK2      0.063367
     29 HAB         3.4640   -2.2470    3.7390 hc        1 BK2      0.063367
     30 HABA        4.0090   -1.2660    2.3060 hc        1 BK2      0.063367
     31 HABB        5.0310   -1.3390    3.7960 hc        1 BK2      0.063367
     32 HAC         2.9230   -1.0780    5.9440 hc        1 BK2      0.063367
     33 HACA        4.4970   -0.1890    5.8110 hc        1 BK2      0.063367
     34 HACB        2.9560    0.7380    6.0370 hc        1 BK2      0.063367
     35 HNAD       -2.5540   -0.0450    2.0530 hn        1 BK2      0.477800
     36 HNAA       -2.5910   -0.4600    0.4170 hn        1 BK2      0.477800
     37 HAE        -6.9840    0.7590    7.3140 ha        1 BK2      0.153000
     38 HAF        -5.4560    2.6310    7.8960 ha        1 BK2      0.153000
     39 HAH        -2.1600   -1.9700    3.4140 ha        1 BK2      0.137000
     40 HAI        -6.2350   -1.0420    5.7520 ha        1 BK2      0.147000
     41 HAJ        -3.1570    2.7330    6.9240 ha        1 BK2      0.147000
     42 HAK        -4.4710   -2.0440    4.3540 ha        1 BK2      0.150000
     43 HAL        -1.4070    1.7530    5.4980 ha        1 BK2      0.155000
     44 HAD3       -2.5250    1.1490    0.8630 hn        1 BK2      0.477800
@<TRIPOS>BOND
     1    1    2 ar  
     2    1    6 ar  
     3    2    3 ar  
     4    2   25 1   
     5    3    4 ar  
     6    4    5 ar  
     7    4   23 1   
     8    5    6 ar  
     9    5   20 1   
    10    6   10 1   
    11    7   24 1   
    12    7   26 1   
    13    7   27 1   
    14    7   28 1   
    15    8   24 1   
    16    8   29 1   
    17    8   30 1   
    18    8   31 1   
    19    9   24 1   
    20    9   32 1   
    21    9   33 1   
    22    9   34 1   
    23   10   35 1   
    24   10   36 1   
    25   10   44 1   
    26   11   12 ar  
    27   11   14 ar  
    28   11   37 1   
    29   12   15 ar  
    30   12   38 1   
    31   13   16 ar  
    32   13   19 ar  
    33   13   39 1   
    34   14   21 ar  
    35   14   40 1   
    36   15   22 ar  
    37   15   41 1   
    38   16   21 ar  
    39   16   42 1   
    40   17   19 ar  
    41   17   22 ar  
    42   17   43 1   
    43   18   20 2   
    44   18   23 1   
    45   19   20 1   
    46   21   22 ar  
    47   23   24 1   
@<TRIPOS>SUBSTRUCTURE
     1 BK2         1 TEMP              0 ****  ****    0 ROOT
