@<TRIPOS>MOLECULE
BK2
   43    46     1     0     0
SMALL
bcc


@<TRIPOS>ATOM
      1 N1         -0.0410    0.1890   -0.1230 nb        1 BK2     -0.800000
      2 C2          1.3170    0.1660   -0.0250 ca        1 BK2      0.691900
      3 N3          2.1090    0.1020    1.0660 nb        1 BK2     -0.743000
      4 C4          1.4030    0.0450    2.2390 ca        1 BK2      0.474800
      5 C5         -0.0520    0.0410    2.2910 ca        1 BK2     -0.494500
      6 C6         -0.7550    0.1200    1.0490 ca        1 BK2      0.757200
      7 CAA         4.0120    1.1930    3.5500 c3        1 BK2     -0.105433
      8 CAB         3.9500   -1.3020    3.4580 c3        1 BK2     -0.105433
      9 CAC         3.3630   -0.1150    5.5570 c3        1 BK2     -0.105433
     10 NAD        -2.1300    0.0860    1.0240 nv        1 BK2     -0.956500
     11 CAE        -5.9360    0.7680    6.9370 ca        1 BK2     -0.122000
     12 CAF        -5.0330    1.7940    7.3100 ca        1 BK2     -0.127000
     13 CAH        -2.5940   -1.0870    3.9440 ca        1 BK2     -0.124000
     14 CAI        -5.5620   -0.1870    6.0240 ca        1 BK2     -0.120000
     15 CAJ        -3.7750    1.8440    6.7620 ca        1 BK2     -0.113000
     16 CAK        -3.8480   -1.1370    4.4970 ca        1 BK2     -0.122000
     17 CAL        -2.0650    0.9000    5.2340 ca        1 BK2     -0.086000
     18 NAO         0.7900   -0.0430    4.4230 nc        1 BK2     -0.500100
     19 CAQ        -1.6900   -0.0510    4.3070 ca        1 BK2     -0.104900
     20 CAR        -0.3630   -0.0210    3.7050 cd        1 BK2      0.414500
     21 CAS        -4.2660   -0.1590    5.4410 ca        1 BK2     -0.034000
     22 CAT        -3.3620    0.8690    5.8130 ca        1 BK2     -0.043000
     23 NAW         1.8380   -0.0030    3.5790 na        1 BK2      0.004200
     24 CAX         3.2520   -0.0560    4.0240 c3        1 BK2      0.099700
     25 H2          1.8510    0.2150   -1.0000 h5        1 BK2      0.050100
     26 HAA         5.0570    1.1390    3.9410 hc        1 BK2      0.051922
     27 HAAA        4.0550    1.2470    2.4370 hc        1 BK2      0.051922
     28 HAAB        3.5320    2.1220    3.9420 hc        1 BK2      0.051922
     29 HAB         3.9840   -1.2790    2.3430 hc        1 BK2      0.051922
     30 HABA        3.4290   -2.2320    3.7870 hc        1 BK2      0.051922
     31 HABB        4.9980   -1.3240    3.8420 hc        1 BK2      0.051922
     32 HAC         4.4450   -0.1480    5.8290 hc        1 BK2      0.051922
     33 HACA        2.8660   -1.0290    5.9600 hc        1 BK2      0.051922
     34 HACB        2.9040    0.7860    6.0280 hc        1 BK2      0.051922
     35 HNAD       -2.6090    0.2250    1.8810 hn        1 BK2      0.440300
     36 HNAA       -2.6090    0.2780    0.1770 hn        1 BK2      0.440300
     37 HAE        -6.9380    0.7490    7.3910 ha        1 BK2      0.134000
     38 HAF        -5.3550    2.5460    8.0450 ha        1 BK2      0.134000
     39 HAH        -2.2630   -1.8530    3.2250 ha        1 BK2      0.147000
     40 HAI        -6.2560   -0.9890    5.7290 ha        1 BK2      0.134000
     41 HAJ        -3.0660    2.6360    7.0470 ha        1 BK2      0.136000
     42 HAK        -4.5500   -1.9400    4.2250 ha        1 BK2      0.137000
     43 HAL        -1.3660    1.6930    5.5390 ha        1 BK2      0.146000
@<TRIPOS>BOND
     1    1    2 ar  
     2    1    6 ar  
     3    2    3 ar  
     4    2   25 1   
     5    3    4 ar  
     6    4    5 ar  
     7    4   23 1   
     8    5    6 ar  
     9    5   20 1   
    10    6   10 1   
    11    7   24 1   
    12    7   26 1   
    13    7   27 1   
    14    7   28 1   
    15    8   24 1   
    16    8   29 1   
    17    8   30 1   
    18    8   31 1   
    19    9   24 1   
    20    9   32 1   
    21    9   33 1   
    22    9   34 1   
    23   10   35 1   
    24   10   36 1   
    25   11   12 ar  
    26   11   14 ar  
    27   11   37 1   
    28   12   15 ar  
    29   12   38 1   
    30   13   16 ar  
    31   13   19 ar  
    32   13   39 1   
    33   14   21 ar  
    34   14   40 1   
    35   15   22 ar  
    36   15   41 1   
    37   16   21 ar  
    38   16   42 1   
    39   17   19 ar  
    40   17   22 ar  
    41   17   43 1   
    42   18   20 2   
    43   18   23 1   
    44   19   20 1   
    45   21   22 ar  
    46   23   24 1   
@<TRIPOS>SUBSTRUCTURE
     1 BK2         1 TEMP              0 ****  ****    0 ROOT
