@<TRIPOS>MOLECULE
BK2
   43    34     1     0     0
SMALL
bcc


@<TRIPOS>ATOM
      1 N1          0.3340    0.1740   -4.1350 n1        1 BK2     -0.274000
      2 C2          1.7140    0.1870   -4.1380 c1        1 BK2      0.029000
      3 N3          2.3940    0.2020   -2.9700 n1        1 BK2     -0.217000
      4 C4          1.7110    0.2040   -1.7700 c1        1 BK2     -0.098500
      5 C5          0.3870    0.1920   -1.7620 c1        1 BK2     -0.098500
      6 C6         -0.3260    0.1770   -2.9920 c1        1 BK2      0.236000
      7 CAA         4.3470    1.4750   -0.5950 c3        1 BK2     -0.223333
      8 CAB         4.1820   -1.0970   -0.3710 c3        1 BK2     -0.223333
      9 CAC         3.4750    0.3460    1.5760 c3        1 BK2     -0.223333
     10 NAD        -1.6000    0.1820   -3.6350 n3        1 BK2     -0.354000
     11 CAE        -5.3230   -0.8290    3.1810 c1        1 BK2     -0.120500
     12 CAF        -4.7460   -2.0620    2.8840 c1        1 BK2     -0.120500
     13 CAH        -1.7810    1.4540    0.6340 c1        1 BK2     -0.124000
     14 CAI        -4.7400    0.3560    2.7000 c1        1 BK2     -0.120500
     15 CAJ        -3.5860   -2.1240    2.1060 c1        1 BK2     -0.120500
     16 CAK        -2.9520    1.5190    1.4130 c1        1 BK2     -0.104000
     17 CAL        -1.7860   -0.9910    0.8130 c1        1 BK2     -0.104000
     18 NAO         1.0690    0.2940    0.3290 n2        1 BK2     -0.033000
     19 CAQ        -1.1960    0.1950    0.3320 c1        1 BK2     -0.021000
     20 CAR        -0.0270    0.2480   -0.4480 c1        1 BK2     -0.041000
     21 CAS        -3.5610    0.2980    1.9090 c1        1 BK2     -0.038500
     22 CAT        -2.9910   -0.9260    1.6150 c1        1 BK2     -0.038500
     23 NAW         2.1460    0.2680   -0.4710 n1        1 BK2     -0.131000
     24 CAX         3.5040    0.2390    0.0360 c2        1 BK2      0.119000
     25 H2          2.1860    0.1860   -4.9590 ha        1 BK2      0.187000
     26 HAA         4.6370    1.2360   -1.5210 hc        1 BK2      0.091222
     27 HAAA        3.8110    2.2420   -0.6260 hc        1 BK2      0.091222
     28 HAAB        5.1450    1.6510   -0.0320 hc        1 BK2      0.091222
     29 HAB         5.0530   -1.2200    0.1730 hc        1 BK2      0.091222
     30 HABA        3.5400   -1.8820   -0.1760 hc        1 BK2      0.091222
     31 HABB        4.3900   -1.0800   -1.3080 hc        1 BK2      0.091222
     32 HAC         3.1250    1.2520    1.8430 hc        1 BK2      0.091222
     33 HACA        4.3210    0.2330    1.9070 hc        1 BK2      0.091222
     34 HACB        2.8540   -0.3910    1.9600 hc        1 BK2      0.091222
     35 HNAD       -1.6550    0.1980   -4.6210 hn        1 BK2      0.235500
     36 HNAA       -2.3490    0.2560   -3.1420 hn        1 BK2      0.235500
     37 HAE        -6.1090   -0.7900    3.7100 ha        1 BK2      0.134500
     38 HAF        -5.1680   -2.9140    3.2330 ha        1 BK2      0.134500
     39 HAH        -1.3650    2.2940    0.2900 ha        1 BK2      0.147000
     40 HAI        -5.1660    1.2550    2.9170 ha        1 BK2      0.134500
     41 HAJ        -3.1550   -3.0540    1.8820 ha        1 BK2      0.134500
     42 HAK        -3.3680    2.4220    1.6300 ha        1 BK2      0.141500
     43 HAL        -1.3760   -1.8730    0.5990 ha        1 BK2      0.141500
@<TRIPOS>BOND
     1    1    6 1   
     2    2    3 1   
     3    2   25 1   
     4    4    5 1   
     5    6   10 1   
     6    7   24 1   
     7    7   26 1   
     8    7   27 1   
     9    7   28 1   
    10    8   24 1   
    11    8   29 1   
    12    8   30 1   
    13    8   31 1   
    14    9   24 1   
    15    9   32 1   
    16    9   33 1   
    17    9   34 1   
    18   10   35 1   
    19   10   36 1   
    20   11   14 1   
    21   11   37 1   
    22   12   15 1   
    23   12   38 1   
    24   13   19 1   
    25   13   39 1   
    26   14   40 1   
    27   15   41 1   
    28   16   21 1   
    29   16   42 1   
    30   17   22 1   
    31   17   43 1   
    32   18   20 1   
    33   18   23 1   
    34   21   22 1   
@<TRIPOS>SUBSTRUCTURE
     1 BK2         1 TEMP              0 ****  ****    0 ROOT
