@<TRIPOS>MOLECULE
BK3
   52    56     1     0     0
SMALL
bcc


@<TRIPOS>ATOM
      1 N1          0.6290    4.3620   -0.0890 nb        1 BK3     -0.797000
      2 C2          1.6920    3.9150   -0.8110 ca        1 BK3      0.692900
      3 N3          2.0760    2.6500   -1.0870 nb        1 BK3     -0.736000
      4 C4          1.2470    1.7130   -0.5310 ca        1 BK3      0.466800
      5 C5          0.0740    2.0320    0.2760 ca        1 BK3     -0.487500
      6 C6         -0.1970    3.4210    0.4770 ca        1 BK3      0.748200
      7 NAA        -1.2440    3.8380    1.2760 nh        1 BK3     -0.947500
      8 NBB         1.2940    0.3080   -0.6150 na        1 BK3      0.004200
      9 NAR         0.3000   -0.2480    0.1040 nc        1 BK3     -0.516100
     10 NAS         5.7880   -2.2750    0.7570 n3        1 BK3     -0.796200
     11 CAB        -3.7330   -3.8890   -0.5500 ca        1 BK3     -0.124000
     12 CAC        -2.5610   -3.6190    0.1930 ca        1 BK3     -0.129000
     13 CAD        -4.9250    0.8110   -0.4230 ca        1 BK3     -0.129000
     14 CAE        -3.7600    1.0910    0.3260 ca        1 BK3     -0.127000
     15 CAG        -4.5870   -2.8660   -0.8790 ca        1 BK3     -0.122000
     16 CAH        -5.1940   -0.4740   -0.8190 ca        1 BK3     -0.112000
     17 CAI        -2.2670   -2.3380    0.5920 ca        1 BK3     -0.109000
     18 CAJ         6.0040   -1.4110   -0.3870 c3        1 BK3      0.150300
     19 CAK         4.6660   -1.8440    1.5680 c3        1 BK3      0.150300
     20 CAL         4.7610   -1.1200   -1.2310 c3        1 BK3     -0.112400
     21 CAM         3.3710   -1.5680    0.8010 c3        1 BK3     -0.112400
     22 CAO         2.3770   -0.4390   -1.2290 c3        1 BK3      0.065300
     23 CAU        -2.8690    0.0950    0.6690 ca        1 BK3     -0.062300
     24 CAV        -0.4700    0.7330    0.6390 cd        1 BK3      0.386900
     25 CAW        -4.3070   -1.5310   -0.4780 ca        1 BK3     -0.036000
     26 CAX        -3.1310   -1.2530    0.2700 ca        1 BK3     -0.020000
     27 CBA         3.6250   -0.6120   -0.3530 c3        1 BK3     -0.085700
     28 H2          2.3330    4.7160   -1.2390 h5        1 BK3      0.053100
     29 HNAA       -1.4760    4.8030    1.2870 hn        1 BK3      0.429300
     30 HNAB       -1.9840    3.1940    1.4190 hn        1 BK3      0.429300
     31 HNAS        5.6350   -3.2170    0.4430 hn        1 BK3      0.347800
     32 HAC        -1.8850   -4.4490    0.4460 ha        1 BK3      0.133000
     33 HAD        -5.6060    1.6350   -0.6800 ha        1 BK3      0.133000
     34 HAE        -3.5820    2.1320    0.6340 ha        1 BK3      0.116000
     35 HAG        -5.5020   -3.0590   -1.4590 ha        1 BK3      0.132000
     36 HAH        -6.0970   -0.7090   -1.4030 ha        1 BK3      0.134000
     37 HAI        -1.3440   -2.1440    1.1590 ha        1 BK3      0.144000
     38 HAJ         6.4110   -0.4340    0.0020 h1        1 BK3      0.053700
     39 HAJA        6.7910   -1.8780   -1.0410 h1        1 BK3      0.053700
     40 HAK         4.4700   -2.6310    2.3490 h1        1 BK3      0.053700
     41 HAKA        4.9780   -0.9010    2.0990 h1        1 BK3      0.053700
     42 HAL         5.0170   -0.3510   -2.0040 hc        1 BK3      0.048700
     43 HALA        4.4380   -2.0490   -1.7680 hc        1 BK3      0.048700
     44 HAM         2.9460   -2.5290    0.4090 hc        1 BK3      0.048700
     45 HAMA        2.6200   -1.1290    1.5060 hc        1 BK3      0.048700
     46 HAO         1.9860   -1.4560   -1.5230 h1        1 BK3      0.075200
     47 HAOA        2.6640    0.1240   -2.1640 h1        1 BK3      0.075200
     48 HBA         3.9260    0.3890    0.0680 hc        1 BK3      0.071700
     49 CAN        -1.6630    0.4430    1.4800 c3        1 BK3     -0.046400
     50 HAB        -3.9470   -4.9230   -0.8590 ha        1 BK3      0.132000
     51 HAN        -1.8830    1.3330    2.1280 hc        1 BK3      0.063700
     52 HANA       -1.4280   -0.3990    2.1910 hc        1 BK3      0.063700
@<TRIPOS>BOND
     1    1    2 ar  
     2    1    6 ar  
     3    2    3 ar  
     4    2   28 1   
     5    3    4 ar  
     6    4    5 ar  
     7    4    8 1   
     8    5    6 ar  
     9    5   24 1   
    10    6    7 1   
    11    7   29 1   
    12    7   30 1   
    13    8    9 1   
    14    8   22 1   
    15    9   24 2   
    16   10   18 1   
    17   10   19 1   
    18   10   31 1   
    19   11   12 ar  
    20   11   15 ar  
    21   11   50 1   
    22   12   17 ar  
    23   12   32 1   
    24   13   14 ar  
    25   13   16 ar  
    26   13   33 1   
    27   14   23 ar  
    28   14   34 1   
    29   15   25 ar  
    30   15   35 1   
    31   16   25 ar  
    32   16   36 1   
    33   17   26 ar  
    34   17   37 1   
    35   18   20 1   
    36   18   38 1   
    37   18   39 1   
    38   19   21 1   
    39   19   40 1   
    40   19   41 1   
    41   20   27 1   
    42   20   42 1   
    43   20   43 1   
    44   21   27 1   
    45   21   44 1   
    46   21   45 1   
    47   22   27 1   
    48   22   46 1   
    49   22   47 1   
    50   23   26 ar  
    51   23   49 1   
    52   24   49 1   
    53   25   26 ar  
    54   27   48 1   
    55   49   51 1   
    56   49   52 1   
@<TRIPOS>SUBSTRUCTURE
     1 BK3         1 TEMP              0 ****  ****    0 ROOT
