@<TRIPOS>MOLECULE
BK3
   52    74     1     0     0
SMALL
bcc


@<TRIPOS>ATOM
      1 N1          0.0000    0.0000    0.0000 n2        1 BK3     -0.307000
      2 C2          1.3220    0.0000    0.0000 c2        1 BK3     -0.049000
      3 N3          2.0310    0.0000    1.1070 n2        1 BK3     -0.138000
      4 C4          1.4340    0.0000    2.2980 c2        1 BK3     -0.086000
      5 C5          0.0260    0.0010    2.3510 c2        1 BK3     -0.458000
      6 C6         -0.6880    0.0000    1.1370 c3        1 BK3      0.218000
      7 NAA        -2.0690    0.0000    1.1290 n8        1 BK3     -0.195000
      8 NBB         1.8710    0.0000    3.5880 na        1 BK3      0.255000
      9 NAR         0.7520    0.0000    4.4310 n2        1 BK3     -0.235000
     10 NAS         4.9620    3.4960    5.8050 ny        1 BK3      0.412000
     11 CAB        -1.1950   -3.2300    8.1850 c2        1 BK3     -0.123000
     12 CAC        -0.7830   -1.9250    7.9240 c2        1 BK3     -0.225000
     13 CAD        -3.2930   -3.4250    3.8910 c3        1 BK3     -0.045000
     14 CAE        -2.8900   -2.1160    3.6350 c2        1 BK3     -0.424000
     15 CAG        -1.9110   -3.9360    7.2670 c2        1 BK3     -0.024000
     16 CAH        -2.9860   -4.0350    5.0690 c3        1 BK3     -0.293000
     17 CAI        -1.0910   -1.3150    6.7460 c2        1 BK3     -0.228000
     18 CAJ         5.7230    2.8860    4.7090 c3        1 BK3     -0.239000
     19 CAK         3.5270    3.5480    5.4920 DU        1 BK3      0.261000
     20 CAL         5.2550    1.4440    4.5010 DU        1 BK3     -0.283000
     21 CAM         2.9930    2.1260    5.3060 c3        1 BK3     -0.291000
     22 CAO         3.2710   -0.0010    4.0200 DU        1 BK3     -0.061000
     23 CAU        -2.1700   -1.4130    4.5500 DU        1 BK3      0.047000
     24 CAV        -0.3360    0.0010    3.7160 DU        1 BK3      0.182000
     25 CAW        -2.2470   -3.3390    6.0400 c3        1 BK3      0.055000
     26 CAX        -1.8330   -2.0090    5.7780 c3        1 BK3     -0.074000
     27 CBA         3.7590    1.4420    4.1710 DU        1 BK3     -0.979000
     28 H2          0.8450   -0.3240    0.9170 h5        1 BK3      0.346000
     29 HNAA       -1.1860    0.0000    0.6580 DU        1 BK3      0.163000
     30 HNAB       -2.5670   -0.6670    0.5730 hn        1 BK3      0.148000
     31 HNAS        4.1280    3.1850    5.3470 DU        1 BK3     -0.348500
     32 HAC        -0.0510   -1.1610    7.6890 ha        1 BK3      0.264000
     33 HAD        -2.7410   -3.0590    4.7480 DU        1 BK3      0.443000
     34 HAE        -3.3830   -3.0480    3.3860 DU        1 BK3      0.219000
     35 HAG        -2.1660   -3.4660    6.3240 ha        1 BK3     -0.221000
     36 HAH        -2.6810   -4.4050    6.0400 DU        1 BK3      0.297000
     37 HAI        -1.6130   -2.1970    6.3950 DU        1 BK3      0.145000
     38 HAJ         4.7810    2.4240    4.9780 DU        1 BK3      0.183000
     39 HAJA        5.5610    3.4520    3.8000 hx        1 BK3      0.088000
     40 HAK         4.5760    3.3360    5.3210 DU        1 BK3     -0.348500
     41 HAKA        3.3790    4.1100    4.5780 hx        1 BK3      0.052000
     42 HAL         4.6240    2.1660    5.0060 DU        1 BK3      0.291000
     43 HALA        5.8060    1.0020    3.6800 ha        1 BK3      0.136000
     44 HAM         3.9560    1.6300    5.3480 DU        1 BK3      0.289000
     45 HAMA        1.9400    2.1660    5.0570 hc        1 BK3      0.163000
     46 HAO         3.2160    0.6240    4.9030 DU        1 BK3      0.304500
     47 HAOA        3.8760   -0.5120    3.2820 ha        1 BK3      0.180000
     48 HBA         3.5560    0.4580    4.5760 DU        1 BK3      0.304500
     49 CAN        -1.7440    0.0020    4.2540 c3        1 BK3      0.034000
     50 HAB        -0.9370   -3.6930    9.1310 ha        1 BK3      0.166000
     51 HAN        -1.0370   -0.7920    4.4630 DU        1 BK3      0.015500
     52 HANA       -1.3090   -0.8560    3.7550 DU        1 BK3      0.015500
@<TRIPOS>BOND
     1    1    2 1   
     2    1    6 1   
     3    2    3 1   
     4    2   28 1   
     5    3    4 1   
     6    4    5 1   
     7    4    8 1   
     8    5    6 1   
     9    5   24 1   
    10    6    7 1   
    11    6   29 1   
    12    7   29 1   
    13    7   30 1   
    14    8    9 1   
    15    8   22 1   
    16    9   24 1   
    17   10   18 1   
    18   10   19 1   
    19   10   31 1   
    20   10   40 1   
    21   11   12 1   
    22   11   15 1   
    23   11   50 1   
    24   12   17 1   
    25   12   32 1   
    26   13   14 1   
    27   13   16 1   
    28   13   33 1   
    29   13   34 1   
    30   14   23 1   
    31   14   34 1   
    32   15   25 1   
    33   15   35 1   
    34   16   25 1   
    35   16   33 1   
    36   16   36 1   
    37   17   26 1   
    38   17   37 1   
    39   18   20 1   
    40   18   38 1   
    41   18   39 1   
    42   19   21 1   
    43   19   31 1   
    44   19   40 1   
    45   19   41 1   
    46   20   27 1   
    47   20   38 1   
    48   20   42 1   
    49   20   43 1   
    50   21   27 1   
    51   21   44 1   
    52   21   45 1   
    53   22   27 1   
    54   22   46 1   
    55   22   47 1   
    56   22   48 1   
    57   23   26 1   
    58   23   49 1   
    59   23   51 1   
    60   23   52 1   
    61   24   49 1   
    62   24   51 1   
    63   24   52 1   
    64   25   26 1   
    65   25   36 1   
    66   26   37 1   
    67   27   44 1   
    68   27   46 1   
    69   27   48 1   
    70   31   40 1   
    71   38   42 1   
    72   46   48 1   
    73   49   51 1   
    74   49   52 1   
@<TRIPOS>SUBSTRUCTURE
     1 BK3         1 TEMP              0 ****  ****    0 ROOT
