@<TRIPOS>MOLECULE
BK3
   52    45     1     0     0
SMALL
bcc


@<TRIPOS>ATOM
      1 N1         -0.4090    0.3610   -3.9130 n1        1 BK3     -0.270000
      2 C2          0.9550    0.4090   -3.9040 c1        1 BK3      0.030000
      3 N3          1.6380    0.3710   -2.7090 n1        1 BK3     -0.212000
      4 C4          0.9520    0.2850   -1.5330 c1        1 BK3     -0.104500
      5 C5         -0.3980    0.2380   -1.5410 c1        1 BK3     -0.104500
      6 C6         -1.0890    0.2770   -2.7520 c1        1 BK3      0.230000
      7 NAA        -2.3570    0.3970   -3.3880 n3        1 BK3     -0.341000
      8 NBB         1.3770    0.1810   -0.2210 n1        1 BK3     -0.135000
      9 NAR         0.2600    0.0680    0.5810 n2        1 BK3     -0.045000
     10 NAS         6.3560    2.1610    0.3560 n3        1 BK3     -0.299000
     11 CAB        -6.5700   -1.5810    2.7940 c1        1 BK3     -0.122833
     12 CAC        -5.9870   -0.3040    2.7670 c1        1 BK3     -0.122833
     13 CAD        -2.9360   -3.2940    0.0450 c1        1 BK3     -0.122833
     14 CAE        -2.3530   -2.0160    0.0180 c1        1 BK3     -0.117000
     15 CAG        -5.9500   -2.6420    2.1390 c1        1 BK3     -0.122833
     16 CAH        -4.1160   -3.5080    0.7520 c1        1 BK3     -0.122833
     17 CAI        -4.7880   -0.0980    2.0850 c1        1 BK3     -0.122833
     18 CAJ         5.8640    1.6230   -0.9390 c3        1 BK3     -0.073000
     19 CAK         5.2710    2.6540    1.2170 c3        1 BK3     -0.073000
     20 CAL         4.7550    0.5930   -0.7580 c3        1 BK3     -0.153500
     21 CAM         4.1630    1.6260    1.4050 c3        1 BK3     -0.153500
     22 CAN        -2.1800    0.3810    0.5180 c3        1 BK3     -0.064000
     23 CAO         2.6670   -0.1030    0.3980 c2        1 BK3      0.005000
     24 CAU        -2.9580   -0.9570    0.7010 c2        1 BK3     -0.079000
     25 CAV        -0.8330    0.1020   -0.2150 c1        1 BK3     -0.066000
     26 CAW        -4.7330   -2.4330    1.4470 c1        1 BK3     -0.039000
     27 CAX        -4.1600   -1.1730    1.4210 c1        1 BK3     -0.036000
     28 CBA         3.6620    1.0870    0.1070 c3        1 BK3     -0.127000
     29 H2          1.4560    0.4720   -4.7590 ha        1 BK3      0.189000
     30 HNAA       -3.1090    0.5740   -2.8850 hn        1 BK3      0.230500
     31 HNAB       -2.4160    0.3500   -4.2930 hn        1 BK3      0.230500
     32 HNAS        6.9620    2.8500    0.1970 hn        1 BK3      0.157000
     33 HAB        -7.4150   -1.7250    3.2750 ha        1 BK3      0.134833
     34 HAC        -6.4210    0.4390    3.2250 ha        1 BK3      0.134833
     35 HAD        -2.5020   -4.0530   -0.4440 ha        1 BK3      0.134833
     36 HAE        -1.5350   -1.8700   -0.4720 ha        1 BK3      0.147000
     37 HAG        -6.3620   -3.5470    2.1580 ha        1 BK3      0.134833
     38 HAH        -4.5300   -4.4190    0.7710 ha        1 BK3      0.134833
     39 HAI        -4.3770    0.8050    2.0670 ha        1 BK3      0.134833
     40 HAJ         5.5290    2.3530   -1.4710 h1        1 BK3      0.067750
     41 HAJA        6.6030    1.2070   -1.4060 h1        1 BK3      0.067750
     42 HAK         4.8850    3.4620    0.8090 h1        1 BK3      0.067750
     43 HAKA        5.6420    2.8880    2.0970 h1        1 BK3      0.067750
     44 HAL         5.1300   -0.2050   -0.3650 hc        1 BK3      0.091750
     45 HALA        4.3810    0.3690   -1.6400 hc        1 BK3      0.091750
     46 HAM         3.4120    2.0520    1.8840 hc        1 BK3      0.091750
     47 HAMA        4.5100    0.8750    1.9520 hc        1 BK3      0.091750
     48 HAN        -1.9970    0.7780    1.4030 hc        1 BK3      0.113500
     49 HANA       -2.7220    1.0050   -0.0150 hc        1 BK3      0.113500
     50 HAO         3.0390   -0.9470    0.0190 ha        1 BK3      0.115000
     51 HAOA        2.5480   -0.2040    1.3730 ha        1 BK3      0.115000
     52 HBA         3.1870    1.7860   -0.3570 hc        1 BK3      0.106000
@<TRIPOS>BOND
     1    1    6 1   
     2    2    3 1   
     3    2   29 1   
     4    4    5 1   
     5    6    7 1   
     6    7   30 1   
     7    7   31 1   
     8    8    9 1   
     9    9   25 1   
    10   10   18 1   
    11   10   19 1   
    12   10   32 1   
    13   11   15 1   
    14   11   33 1   
    15   12   17 1   
    16   12   34 1   
    17   13   16 1   
    18   13   35 1   
    19   14   24 1   
    20   14   36 1   
    21   15   37 1   
    22   16   38 1   
    23   17   39 1   
    24   18   20 1   
    25   18   40 1   
    26   18   41 1   
    27   19   21 1   
    28   19   42 1   
    29   19   43 1   
    30   20   28 1   
    31   20   44 1   
    32   20   45 1   
    33   21   28 1   
    34   21   46 1   
    35   21   47 1   
    36   22   24 1   
    37   22   25 1   
    38   22   48 1   
    39   22   49 1   
    40   23   28 1   
    41   23   50 1   
    42   23   51 1   
    43   24   27 1   
    44   26   27 1   
    45   28   52 1   
@<TRIPOS>SUBSTRUCTURE
     1 BK3         1 TEMP              0 ****  ****    0 ROOT
