@<TRIPOS>MOLECULE
BK3
   52    52     1     0     0
SMALL
bcc


@<TRIPOS>ATOM
      1 N1         -0.0630   -0.1300   -0.0260 n3        1 BK3     -0.233000
      2 C2          1.1940    0.4120   -0.3160 c1        1 BK3     -0.028000
      3 N3          2.2080    0.4210    0.5530 n2        1 BK3     -0.253000
      4 C4          1.9660   -0.1490    1.7660 c2        1 BK3      0.141000
      5 C5          0.6800   -0.7430    2.1470 c2        1 BK3     -0.328000
      6 C6         -0.3720   -0.7180    1.1980 c2        1 BK3      0.253000
      7 NAA        -1.5980   -1.2740    1.4720 n3        1 BK3     -0.374000
      8 NBB         2.8120   -0.3460    2.8760 na        1 BK3     -0.148000
      9 NAR         2.1540   -0.9440    3.8940 n2        1 BK3     -0.037000
     10 NAS         6.4850    3.8150    5.2420 n2        1 BK3     -0.236000
     11 CAB        -1.7920   -1.8870    9.6370 c2        1 BK3     -0.458000
     12 CAC        -2.3250   -1.8710    8.2960 c2        1 BK3     -0.060000
     13 CAD        -3.4680   -3.1150    3.1730 c2        1 BK3     -0.224000
     14 CAE        -1.3890    0.1320    4.4690 c1        1 BK3      0.235000
     15 CAG        -0.5320   -1.9450   10.0240 c1        1 BK3      0.229000
     16 CAH        -3.8760   -2.3490    4.1830 c2        1 BK3     -0.133000
     17 CAI        -1.5630   -1.7810    7.1910 c2        1 BK3     -0.148000
     18 CAJ         5.6160    3.4860    4.3640 c2        1 BK3     -0.060000
     19 CAK         1.9950    2.4250    7.5810 c2        1 BK3     -0.221500
     20 CAL         5.5760    2.1270    3.7250 c3        1 BK3     -0.142000
     21 CAM         2.7920    1.4600    7.1420 c2        1 BK3     -0.221500
     22 CAO         4.1350    0.2390    3.0090 c3        1 BK3      0.004000
     23 CAU        -1.2070   -1.1280    4.8420 c2        1 BK3     -0.397000
     24 CAV         0.8910   -1.2260    3.5040 c2        1 BK3     -0.084000
     25 CAW        -3.2720   -2.3220    5.5040 c2        1 BK3     -0.126000
     26 CAX        -2.0880   -1.7720    5.8330 c2        1 BK3      0.001000
     27 CBA         4.1560    1.5980    3.7080 c3        1 BK3     -0.187000
     28 H2         -0.7480   -0.0840   -0.7470 hn        1 BK3      0.248000
     29 HNAA       -2.3640   -1.1290    0.8610 hn        1 BK3      0.238000
     30 HNAB       -1.8010   -1.5240    2.4150 hn        1 BK3      0.238000
     31 HNAS        0.9220    2.4620    7.3470 ha        1 BK3      0.111250
     32 HAC        -3.4250   -1.9330    8.2270 ha        1 BK3      0.129000
     33 HAD        -2.6040   -3.7900    3.2460 ha        1 BK3      0.119000
     34 HAE        -3.9900   -3.1320    2.2070 ha        1 BK3      0.119000
     35 HAG        -3.8910   -2.8010    6.2870 ha        1 BK3      0.142000
     36 HAH        -4.7650   -1.6970    4.0820 ha        1 BK3      0.134000
     37 HAI        -0.4640   -1.6890    7.2680 ha        1 BK3      0.142000
     38 HAJ         6.2470    1.4000    4.2550 hc        1 BK3      0.104500
     39 HAJA        4.8190    4.1630    3.9790 h4        1 BK3      0.089000
     40 HAK         6.4170    4.7520    5.5810 hn        1 BK3      0.140000
     41 HAKA        2.3540    3.2530    8.2070 ha        1 BK3      0.111250
     42 HAL         3.4870    2.3190    3.1690 hc        1 BK3      0.102000
     43 HALA        5.9590    2.2340    2.6740 hc        1 BK3      0.104500
     44 HAM         3.7730    1.4990    4.7590 hc        1 BK3      0.102000
     45 HAMA        3.8640    1.4240    7.3760 ha        1 BK3      0.111250
     46 HAO         2.4320    0.6300    6.5180 ha        1 BK3      0.111250
     47 HAOA        4.7820   -0.4830    3.5840 h1        1 BK3      0.118000
     48 HBA         4.5500    0.3450    1.9650 h1        1 BK3      0.118000
     49 CAN        -0.0790   -1.9750    4.3430 c3        1 BK3     -0.018000
     50 HAB        -2.5540   -1.8490   10.4480 ha        1 BK3      0.194000
     51 HAN        -0.5030   -2.8220    3.7350 hc        1 BK3      0.115000
     52 HANA        0.4410   -2.4300    5.2340 hc        1 BK3      0.115000
@<TRIPOS>BOND
     1    1    2 1   
     2    1    6 1   
     3    1   28 1   
     4    2    3 1   
     5    3    4 1   
     6    4    5 1   
     7    4    8 1   
     8    5    6 1   
     9    5   24 1   
    10    6    7 1   
    11    7   29 1   
    12    7   30 1   
    13    8    9 1   
    14    8   22 1   
    15    9   24 1   
    16   10   18 1   
    17   10   40 1   
    18   11   12 1   
    19   11   15 1   
    20   11   50 1   
    21   12   17 1   
    22   12   32 1   
    23   13   16 1   
    24   13   33 1   
    25   13   34 1   
    26   14   23 1   
    27   16   25 1   
    28   16   36 1   
    29   17   26 1   
    30   17   37 1   
    31   18   20 1   
    32   18   39 1   
    33   19   21 1   
    34   19   31 1   
    35   19   41 1   
    36   20   27 1   
    37   20   38 1   
    38   20   43 1   
    39   21   45 1   
    40   21   46 1   
    41   22   27 1   
    42   22   47 1   
    43   22   48 1   
    44   23   26 1   
    45   23   49 1   
    46   24   49 1   
    47   25   26 1   
    48   25   35 1   
    49   27   42 1   
    50   27   44 1   
    51   49   51 1   
    52   49   52 1   
@<TRIPOS>SUBSTRUCTURE
     1 BK3         1 TEMP              0 ****  ****    0 ROOT
