@<TRIPOS>MOLECULE
BK3
   53    53     1     0     0
SMALL
bcc


@<TRIPOS>ATOM
      1 N1          0.6820    0.2770    0.8460 n3        1 BK3     -0.306000
      2 C2          1.5960    1.0660    1.4760 c1        1 BK3      0.026000
      3 N3          1.9480    0.8590    2.7750 nh        1 BK3     -0.277000
      4 C4          1.3730   -0.2120    3.4440 c2        1 BK3      0.081000
      5 C5          0.4090   -1.0750    2.8190 c2        1 BK3     -0.235000
      6 C6         -0.0180   -0.8280    1.4440 c2        1 BK3      0.186000
      7 NAA        -0.9470   -1.5460    0.8840 n2        1 BK3     -0.365000
      8 NBB         1.5500   -0.6910    4.7520 na        1 BK3     -0.122000
      9 NAR         0.8100   -1.8000    4.9590 n2        1 BK3     -0.111000
     10 NAS         6.4510    3.9660    4.2210 n3        1 BK3     -0.370000
     11 CAB        -1.0460   -3.2560    8.8060 c2        1 BK3     -0.519000
     12 CAC        -1.9920   -2.9690    7.7790 c2        1 BK3      0.121000
     13 CAD        -4.5140   -2.4240    3.2360 c3        1 BK3     -0.201000
     14 CAE        -3.1020   -2.7610    3.0060 c2        1 BK3      0.022000
     15 CAG         0.2180   -3.6590    8.7060 c1        1 BK3      0.380000
     16 CAH        -4.8940   -2.3280    4.6520 c2        1 BK3     -0.003000
     17 CAI        -1.7290   -3.1590    6.4520 c2        1 BK3     -0.255000
     18 CAJ         5.6270    4.2240    3.0660 c3        1 BK3     -0.095000
     19 CAK         3.8320    4.3080    7.2690 c1        1 BK3     -0.223500
     20 CAL         4.6850    3.0590    2.7540 c3        1 BK3     -0.248000
     21 CAM         4.7730    3.5820    7.1370 c1        1 BK3     -0.223500
     22 CAO         2.5250   -0.1990    5.6960 c3        1 BK3     -0.064000
     23 CAU        -2.2000   -2.9570    4.0200 c2        1 BK3     -0.137000
     24 CAV         0.1040   -2.0650    3.8220 c2        1 BK3     -0.057000
     25 CAW        -4.0000   -2.5460    5.6500 c2        1 BK3     -0.223000
     26 CAX        -2.6290   -2.8810    5.3870 c2        1 BK3      0.240000
     27 CBA         3.8050    2.5950    3.7830 c1        1 BK3     -0.089000
     28 H2          2.6710    1.4960    3.2260 hn        1 BK3      0.337000
     29 HNAA        0.5030    0.4930   -0.1090 hn        1 BK3      0.255000
     30 HNAB       -2.7840   -2.8460    1.9480 ha        1 BK3      0.203000
     31 HNAS        5.9910    4.2390    5.0670 hn        1 BK3      0.158000
     32 HAD        -5.1730   -3.1880    2.7180 hc        1 BK3      0.188000
     33 HAE        -4.7390   -1.4380    2.7190 hc        1 BK3      0.188000
     34 HAG        -4.3340   -2.4750    6.6990 ha        1 BK3      0.162000
     35 HAH        -5.9460   -2.0720    4.8730 ha        1 BK3      0.169000
     36 HAI        -0.7280   -3.5420    6.1700 ha        1 BK3      0.180000
     37 HAJ         5.0020    5.1580    3.1810 h1        1 BK3      0.079000
     38 HAJA        6.2900    4.3790    2.1680 h1        1 BK3      0.079000
     39 HAK         7.3300    4.4370    4.1510 hn        1 BK3      0.158000
     40 HAKA        3.0010    4.9580    7.3940 ha        1 BK3      0.225500
     41 HAL         5.2890    2.1470    2.4460 hc        1 BK3      0.176000
     42 HALA        4.0590    3.3150    1.8460 hc        1 BK3      0.176000
     43 HAM         3.8620    3.0300    4.7920 ha        1 BK3      0.083000
     44 HAMA        5.6150    2.9420    7.0360 ha        1 BK3      0.225500
     45 HAO         2.0750   -0.1640    6.7240 h1        1 BK3      0.106000
     46 HAOA        3.4230   -0.8750    5.7120 h1        1 BK3      0.106000
     47 HBA         2.8400    0.8350    5.3900 h1        1 BK3      0.106000
     48 CAN        -0.7770   -3.2500    3.6580 c3        1 BK3     -0.058000
     49 HAB        -1.4060   -3.1170    9.8570 ha        1 BK3      0.221000
     50 HAN        -0.3970   -4.1160    4.2680 hc        1 BK3      0.128000
     51 HANA       -0.7210   -3.5720    2.5790 hc        1 BK3      0.128000
     52 HAA3       -1.1680   -1.3260   -0.0630 hn        1 BK3      0.147000
     53 HAC        -2.9630   -2.5650    8.1260 ha        1 BK3      0.144000
@<TRIPOS>BOND
     1    1    2 1   
     2    1    6 1   
     3    1   29 1   
     4    2    3 1   
     5    3    4 1   
     6    3   28 1   
     7    4    5 1   
     8    4    8 1   
     9    5    6 1   
    10    5   24 1   
    11    6    7 1   
    12    7   52 1   
    13    8    9 1   
    14    8   22 1   
    15    9   24 1   
    16   10   18 1   
    17   10   31 1   
    18   10   39 1   
    19   11   12 1   
    20   11   15 1   
    21   11   49 1   
    22   12   17 1   
    23   12   53 1   
    24   13   14 1   
    25   13   16 1   
    26   13   32 1   
    27   13   33 1   
    28   14   23 1   
    29   14   30 1   
    30   16   25 1   
    31   16   35 1   
    32   17   26 1   
    33   17   36 1   
    34   18   20 1   
    35   18   37 1   
    36   18   38 1   
    37   19   21 1   
    38   19   40 1   
    39   20   27 1   
    40   20   41 1   
    41   20   42 1   
    42   21   44 1   
    43   22   45 1   
    44   22   46 1   
    45   22   47 1   
    46   23   26 1   
    47   23   48 1   
    48   24   48 1   
    49   25   26 1   
    50   25   34 1   
    51   27   43 1   
    52   48   50 1   
    53   48   51 1   
@<TRIPOS>SUBSTRUCTURE
     1 BK3         1 TEMP              0 ****  ****    0 ROOT
