@<TRIPOS>MOLECULE
BK4
   44    47     1     0     0
SMALL
bcc


@<TRIPOS>ATOM
      1 N1          3.4600   -2.9210   -0.6700 nb        1 BK4     -0.801000
      2 C2          4.5770   -2.1440   -0.6740 ca        1 BK4      0.693900
      3 N3          4.7130   -0.8160   -0.4680 nb        1 BK4     -0.742000
      4 C4          3.5190   -0.1950   -0.2120 ca        1 BK4      0.472800
      5 C5          2.2450   -0.8940   -0.1540 ca        1 BK4     -0.495500
      6 C6          2.2620   -2.3010   -0.4020 ca        1 BK4      0.759200
      7 CAA        -7.4770    0.6210   -0.5430 c3        1 BK4      0.113700
      8 CAB         3.9100    3.4360   -0.7300 c3        1 BK4     -0.109100
      9 CAC         4.3870    2.6890    1.6000 c3        1 BK4     -0.109100
     10 NAD         1.1010   -3.0350   -0.3370 nh        1 BK4     -0.957500
     11 CAF        -4.7360    1.0400   -0.9700 ca        1 BK4     -0.185000
     12 CAG        -0.6490   -0.9250    1.2840 ca        1 BK4     -0.115000
     13 CAH        -3.3840    1.2190   -1.1290 ca        1 BK4     -0.080000
     14 CAI        -1.9960   -1.1070    1.4560 ca        1 BK4     -0.130000
     15 CAJ        -4.3290   -0.5820    0.8110 ca        1 BK4     -0.162000
     16 CAK        -1.0510    0.6840   -0.4860 ca        1 BK4     -0.074000
     17 NAN         1.9070    1.3450    0.2280 nc        1 BK4     -0.503100
     18 CAP        -5.2110    0.1290    0.0110 ca        1 BK4      0.128100
     19 CAQ        -0.1630   -0.0260    0.2930 ca        1 BK4     -0.117900
     20 CAS         1.2750    0.1460    0.1320 cd        1 BK4      0.420500
     21 CAT        -2.9350   -0.4010    0.6500 ca        1 BK4     -0.001000
     22 CAU        -2.4520    0.5060   -0.3290 ca        1 BK4     -0.073000
     23 NAY         3.2230    1.1640    0.0110 na        1 BK4      0.001200
     24 H2          5.5210   -2.6920   -0.8850 h5        1 BK4      0.051100
     25 HAA        -7.3590    1.7180   -0.3650 h1        1 BK4      0.045367
     26 HAAA       -7.3550    0.3830   -1.6280 h1        1 BK4      0.045367
     27 HAAB       -8.4720    0.2670   -0.1720 h1        1 BK4      0.045367
     28 HAB         3.7970    3.1350   -1.7980 hc        1 BK4      0.049867
     29 HABA        2.9730    3.9440   -0.3990 hc        1 BK4      0.049867
     30 HABB        4.7580    4.1590   -0.6490 hc        1 BK4      0.049867
     31 HAC         3.4480    3.1590    1.9790 hc        1 BK4      0.049867
     32 HACA        4.6540    1.8340    2.2650 hc        1 BK4      0.049867
     33 HACB        5.2090    3.4440    1.6400 hc        1 BK4      0.049867
     34 HNAD        1.0990   -3.9790   -0.6360 hn        1 BK4      0.441300
     35 HNAA        0.2420   -2.5380   -0.3200 hn        1 BK4      0.441300
     36 HAF        -5.4470    1.5990   -1.5950 ha        1 BK4      0.140000
     37 HAG         0.0770   -1.4580    1.9190 ha        1 BK4      0.147000
     38 HAH        -3.0010    1.9230   -1.8850 ha        1 BK4      0.137000
     39 HAI        -2.3780   -1.7950    2.2250 ha        1 BK4      0.139000
     40 HAJ        -4.7090   -1.2820    1.5690 ha        1 BK4      0.152000
     41 HAK        -0.6880    1.4000   -1.2400 ha        1 BK4      0.145000
     42 HAX         5.2000    1.7750   -0.1950 h1        1 BK4      0.086700
     43 CAX         4.2230    2.2280    0.1520 c3        1 BK4      0.078000
     44 OAO        -6.5510   -0.1200    0.2420 os        1 BK4     -0.326900
@<TRIPOS>BOND
     1    1    2 ar  
     2    1    6 ar  
     3    2    3 ar  
     4    2   24 1   
     5    3    4 ar  
     6    4    5 ar  
     7    4   23 1   
     8    5    6 ar  
     9    5   20 1   
    10    6   10 1   
    11    7   25 1   
    12    7   26 1   
    13    7   27 1   
    14    7   44 1   
    15    8   28 1   
    16    8   29 1   
    17    8   30 1   
    18    8   43 1   
    19    9   31 1   
    20    9   32 1   
    21    9   33 1   
    22    9   43 1   
    23   10   34 1   
    24   10   35 1   
    25   11   13 ar  
    26   11   18 ar  
    27   11   36 1   
    28   12   14 ar  
    29   12   19 ar  
    30   12   37 1   
    31   13   22 ar  
    32   13   38 1   
    33   14   21 ar  
    34   14   39 1   
    35   15   18 ar  
    36   15   21 ar  
    37   15   40 1   
    38   16   19 ar  
    39   16   22 ar  
    40   16   41 1   
    41   17   20 2   
    42   17   23 1   
    43   18   44 1   
    44   19   20 1   
    45   21   22 ar  
    46   23   43 1   
    47   42   43 1   
@<TRIPOS>SUBSTRUCTURE
     1 BK4         1 TEMP              0 ****  ****    0 ROOT
