@<TRIPOS>MOLECULE
BK4
   44    44     1     0     0
SMALL
bcc


@<TRIPOS>ATOM
      1 N1         -0.1570    1.0590   -0.1450 n1        1 BK4     -1.155500
      2 C2          0.5840    1.3420   -1.0270 c1        1 BK4      0.524800
      3 N3          1.9500    1.0470    2.1040 n2        1 BK4     -0.805100
      4 C4          0.8470    0.6990    2.6660 cc        1 BK4      0.657500
      5 C5         -0.5610    0.5330    2.1660 cc        1 BK4     -0.432200
      6 C6         -1.0300    0.7390    0.8910 cf        1 BK4      0.862700
      7 CAA        -6.2670    1.1610    7.1350 c3        1 BK4      0.105700
      8 CAB         3.0870    0.7800    4.8620 c3        1 BK4     -0.053900
      9 CAC         1.8760   -1.2850    5.4630 c2        1 BK4     -0.260000
     10 NAD        -2.3810    0.7020    0.5650 nv        1 BK4     -0.859600
     11 CAF        -3.5820    2.0180    7.2080 c3        1 BK4      0.035900
     12 CAG        -3.1140   -1.6680    3.5570 c3        1 BK4      0.078900
     13 CAH        -3.5200    2.1240    5.7620 c1        1 BK4     -0.123100
     14 CAI        -3.2280   -1.7750    4.9980 c1        1 BK4     -0.182100
     15 CAJ        -3.0300   -0.4080    7.1280 ce        1 BK4     -0.074700
     16 CAK        -3.6950    0.7300    3.6570 cf        1 BK4      0.020300
     17 NAN        -0.5040   -0.0030    4.4260 nd        1 BK4     -0.369400
     18 CAP        -3.9650    0.5580    7.3770 c2        1 BK4      0.076900
     19 CAQ        -2.7370   -0.2000    3.4020 ce        1 BK4     -0.167800
     20 CAS        -1.3100    0.0970    3.3690 cc        1 BK4      0.408900
     21 CAT        -3.2120   -1.3830    6.1410 cg        1 BK4     -0.094300
     22 CAU        -3.5330    1.7410    4.6160 ch        1 BK4     -0.147300
     23 NAY         0.7450    0.4200    4.1110 na        1 BK4     -0.298500
     24 H2          1.9080    1.2820    1.1390 hn        1 BK4      0.405400
     25 HAA        -6.3380    1.9120    7.9590 h1        1 BK4      0.046367
     26 HAAA       -6.0430    1.6630    6.1630 h1        1 BK4      0.046367
     27 HAAB       -7.2140    0.5670    7.0670 h1        1 BK4      0.046367
     28 HAB         2.8210    1.8630    4.8000 hc        1 BK4      0.055367
     29 HABA        3.7670    0.5350    4.0090 hc        1 BK4      0.055367
     30 HABB        3.6370    0.6020    5.8200 hc        1 BK4      0.055367
     31 HAC         4.8120   -0.9680    7.1720 ha        1 BK4      0.001000
     32 HACA        4.3490   -0.8480    7.6500 ha        1 BK4      0.001000
     33 HACB        2.7510   -1.5970    6.0490 ha        1 BK4      0.126500
     34 HNAD       -3.0000    0.3400    1.2530 hn        1 BK4      0.435800
     35 HNAA       -2.6490    0.5900   -0.3830 hn        1 BK4      0.435800
     36 HAF        -4.3290    2.7190    7.6610 hc        1 BK4      0.084200
     37 HAG        -4.0850   -1.9030    3.0480 hc        1 BK4      0.068200
     38 HAH        -2.5800    2.2210    7.6710 hc        1 BK4      0.084200
     39 HAI        -2.3190   -2.3420    3.1460 hc        1 BK4      0.068200
     40 HAJ        -1.9820   -0.2370    7.4340 ha        1 BK4      0.164000
     41 HAK        -4.7520    0.5110    3.4050 ha        1 BK4      0.141000
     42 HAX         1.0340   -1.9860    5.4700 ha        1 BK4      0.126500
     43 CAX         1.8780   -0.1020    4.8200 c2        1 BK4      0.117800
     44 OAO        -5.2840    0.1810    7.4510 os        1 BK4     -0.312900
@<TRIPOS>BOND
     1    1    2 3   
     2    1    6 1   
     3    3    4 2   
     4    3   24 1   
     5    4    5 1   
     6    4   23 1   
     7    5    6 2   
     8    5   20 1   
     9    6   10 1   
    10    7   25 1   
    11    7   26 1   
    12    7   27 1   
    13    7   44 1   
    14    8   28 1   
    15    8   29 1   
    16    8   30 1   
    17    8   43 1   
    18    9   33 1   
    19    9   42 1   
    20    9   43 2   
    21   10   34 1   
    22   10   35 1   
    23   11   13 1   
    24   11   18 1   
    25   11   36 1   
    26   11   38 1   
    27   12   14 1   
    28   12   19 1   
    29   12   37 1   
    30   12   39 1   
    31   13   22 3   
    32   14   21 3   
    33   15   18 2   
    34   15   21 1   
    35   15   40 1   
    36   16   19 2   
    37   16   22 1   
    38   16   41 1   
    39   17   20 2   
    40   17   23 1   
    41   18   44 1   
    42   19   20 1   
    43   23   43 1   
    44   31   32 1   
@<TRIPOS>SUBSTRUCTURE
     1 BK4         1 TEMP              0 ****  ****    0 ROOT
