@<TRIPOS>MOLECULE
BK4
   44    37     1     0     0
SMALL
bcc


@<TRIPOS>ATOM
      1 N1          1.3740    0.2320   -4.6550 n1        1 BK4     -0.275000
      2 C2          2.7260    0.2370   -4.6300 c1        1 BK4      0.031000
      3 N3          3.3920    0.2050   -3.4270 n1        1 BK4     -0.216000
      4 C4          2.7090    0.1710   -2.2840 c1        1 BK4     -0.100000
      5 C5          1.3650    0.1660   -2.3010 c1        1 BK4     -0.100000
      6 C6          0.6880    0.1980   -3.5120 c1        1 BK4      0.238000
      7 CAA        -6.5400   -0.7310    3.8250 c3        1 BK4     -0.076000
      8 CAB         4.9500    1.4610    0.0030 c3        1 BK4     -0.227000
      9 CAC         4.9250   -0.9960    0.1260 c3        1 BK4     -0.227000
     10 NAD        -0.5820    0.2610   -4.2870 n3        1 BK4     -0.355000
     11 CAF        -3.8410   -1.7490    2.5750 c1        1 BK4     -0.185000
     12 CAG        -0.7410    1.5330    0.3280 c1        1 BK4     -0.115000
     13 CAH        -2.6790   -1.8870    1.8100 c2        1 BK4     -0.080000
     14 CAI        -1.8340    1.6780    1.1300 c1        1 BK4     -0.146000
     15 CAJ        -3.6790    0.6780    2.4420 c1        1 BK4     -0.146000
     16 CAK        -0.8670   -0.8940    0.5180 c1        1 BK4     -0.074000
     17 NAN         2.0000    0.2680   -0.2120 n2        1 BK4     -0.036000
     18 OAO        -5.3620    0.0950    3.7470 os        1 BK4     -0.210000
     19 CAP        -4.3440   -0.4340    2.8930 c1        1 BK4      0.083000
     20 CAQ        -0.2440    0.2140    0.0140 c2        1 BK4     -0.034000
     21 CAS         0.9290    0.2280   -1.0080 c1        1 BK4     -0.035000
     22 CAT        -2.4860    0.5320    1.6560 c1        1 BK4     -0.001000
     23 CAU        -2.0010   -0.7510    1.3510 c1        1 BK4     -0.073000
     24 CAX         4.5660    0.2250   -0.7330 c3        1 BK4      0.058000
     25 NAY         3.1080    0.2330   -0.9960 n2        1 BK4     -0.134000
     26 H2          3.2730    0.2650   -5.5370 ha        1 BK4      0.188000
     27 HAA        -6.9160   -0.8590    2.9140 h1        1 BK4      0.084667
     28 HAAA       -7.2120   -0.2930    4.4000 h1        1 BK4      0.084667
     29 HAAB       -6.2970   -1.6200    4.2130 h1        1 BK4      0.084667
     30 HAB         4.7040    1.3700    0.9330 hc        1 BK4      0.089167
     31 HABA        4.5160    2.1800   -0.3570 hc        1 BK4      0.089167
     32 HABB        5.9610    1.6000   -0.0700 hc        1 BK4      0.089167
     33 HAC         4.6010   -0.8490    1.0640 hc        1 BK4      0.089167
     34 HACA        5.8780   -1.1130    0.1340 hc        1 BK4      0.089167
     35 HACB        4.5070   -1.7750   -0.2350 hc        1 BK4      0.089167
     36 HNAD       -0.5550    0.2990   -5.1140 hn        1 BK4      0.236500
     37 HNAA       -1.4270    0.1530   -3.8370 hn        1 BK4      0.236500
     38 HAF        -4.3180   -2.5500    2.8980 DU        1 BK4      0.142500
     39 HAG        -0.2970    2.3150   -0.0310 ha        1 BK4      0.147000
     40 HAH        -2.3590   -2.7240    1.6070 ha        1 BK4      0.137000
     41 HAI        -2.1610    2.5510    1.3370 ha        1 BK4      0.145500
     42 HAJ        -3.9950    1.5080    2.6410 ha        1 BK4      0.145500
     43 HAK        -0.5110   -1.8200    0.2950 DU        1 BK4      0.142500
     44 HAX         5.0760    0.1860   -1.6290 h1        1 BK4      0.126000
@<TRIPOS>BOND
     1    1    6 1   
     2    2    3 1   
     3    2   26 1   
     4    4    5 1   
     5    6   10 1   
     6    7   18 1   
     7    7   27 1   
     8    7   28 1   
     9    7   29 1   
    10    8   24 1   
    11    8   30 1   
    12    8   31 1   
    13    8   32 1   
    14    9   24 1   
    15    9   33 1   
    16    9   34 1   
    17    9   35 1   
    18   10   36 1   
    19   10   37 1   
    20   11   13 1   
    21   11   19 1   
    22   12   20 1   
    23   12   39 1   
    24   13   23 1   
    25   13   40 1   
    26   14   22 1   
    27   14   41 1   
    28   15   22 1   
    29   15   42 1   
    30   16   20 1   
    31   16   23 1   
    32   17   21 1   
    33   17   25 1   
    34   18   19 1   
    35   20   21 1   
    36   24   25 1   
    37   24   44 1   
@<TRIPOS>SUBSTRUCTURE
     1 BK4         1 TEMP              0 ****  ****    0 ROOT
