@<TRIPOS>MOLECULE
BK4
   44    45     1     0     0
SMALL
bcc


@<TRIPOS>ATOM
      1 N1         -2.3720    1.8860    0.8180 n1        1 BK4     -1.161500
      2 C2         -2.4010    2.5490   -0.1660 c1        1 BK4      0.528800
      3 N3          0.6570    1.4280    0.8560 n2        1 BK4     -0.738100
      4 C4          0.2120    0.9130    1.9430 cc        1 BK4      0.671500
      5 C5         -1.1670    0.6010    2.4550 cc        1 BK4     -0.458200
      6 C6         -2.3530    1.1010    1.9680 cf        1 BK4      0.860700
      7 CAA        -6.6050    0.8600    6.1470 cx        1 BK4     -0.103400
      8 CAB         3.3530    0.1920    4.0480 c3        1 BK4     -0.176000
      9 CAC         6.0570   -0.7830    6.4560 c3        1 BK4     -0.111800
     10 NAD        -3.5820    0.7960    2.5420 nh        1 BK4     -0.821600
     11 CAF        -4.2680    1.9450    7.1190 c3        1 BK4      0.030700
     12 CAG        -2.8260   -1.9400    3.8620 c3        1 BK4      0.051900
     13 CAH        -3.0380    1.2140    6.9370 c1        1 BK4     -0.130100
     14 CAI        -4.1120   -1.5310    4.4000 c1        1 BK4     -0.130100
     15 CAJ        -5.4680   -0.1150    6.0680 cx        1 BK4     -0.026600
     16 CAK        -2.0130   -0.8080    5.8460 cf        1 BK4      0.036300
     17 NAN         0.3690   -0.2390    3.9730 nd        1 BK4     -0.439400
     18 CAP        -5.1980    1.3990    6.0350 cx        1 BK4      0.065800
     19 CAQ        -1.8650   -0.9500    4.5010 ce        1 BK4     -0.166800
     20 CAS        -0.9290   -0.1940    3.6840 cc        1 BK4      0.480900
     21 CAT        -4.9360   -0.9290    5.0410 c1        1 BK4     -0.107100
     22 CAU        -2.2590    0.3890    6.5260 ch        1 BK4     -0.138300
     23 NAY         1.1060    0.4270    3.0220 na        1 BK4     -0.171500
     24 H2         -0.0220    1.6940    0.1790 hn        1 BK4      0.404400
     25 HAA        -7.1530    0.9280    7.1030 hc        1 BK4      0.088200
     26 HAAA       -5.2000    2.8700    4.8170 ho        1 BK4      0.415000
     27 HAAB       -7.2630    1.0070    5.2700 hc        1 BK4      0.088200
     28 HAB         2.9300   -0.3660    4.9190 hc        1 BK4      0.061367
     29 HABA        3.8820    1.1030    4.4310 hc        1 BK4      0.061367
     30 HABB        4.1130   -0.4610    3.5420 hc        1 BK4      0.061367
     31 HAC         6.4780    0.1310    6.9290 hc        1 BK4      0.027700
     32 HACA        5.2500   -0.4950    5.7450 hc        1 BK4      0.027700
     33 HACB        6.8610   -1.3190    5.9060 hc        1 BK4      0.027700
     34 HNAD       -3.5510    0.5780    3.5180 hn        1 BK4      0.435800
     35 HNAA       -4.3720    1.3420    2.2800 hn        1 BK4      0.435800
     36 HAF        -4.1230    3.0500    6.9900 hc        1 BK4      0.073700
     37 HAG        -2.7920   -1.8690    2.7440 hc        1 BK4      0.086700
     38 HAH        -4.7020    1.7600    8.1370 hc        1 BK4      0.073700
     39 HAI        -2.5820   -2.9960    4.1540 hc        1 BK4      0.086700
     40 HAJ        -5.2390   -0.6020    7.0540 hc        1 BK4      0.097700
     41 HAK        -2.3870   -1.6880    6.4190 ha        1 BK4      0.142000
     42 HAX         5.6380   -1.4480    7.2420 hc        1 BK4      0.027700
     43 CAX         2.4200    0.6480    3.0010 c1        1 BK4      0.009900
     44 OAO        -4.9030    1.9510    4.7750 oh        1 BK4     -0.582800
@<TRIPOS>BOND
     1    1    2 3   
     2    1    6 1   
     3    3    4 2   
     4    3   24 1   
     5    4    5 1   
     6    4   23 1   
     7    5    6 2   
     8    5   20 1   
     9    6   10 1   
    10    7   15 1   
    11    7   18 1   
    12    7   25 1   
    13    7   27 1   
    14    8   28 1   
    15    8   29 1   
    16    8   30 1   
    17    8   43 1   
    18    9   31 1   
    19    9   32 1   
    20    9   33 1   
    21    9   42 1   
    22   10   34 1   
    23   10   35 1   
    24   11   13 1   
    25   11   18 1   
    26   11   36 1   
    27   11   38 1   
    28   12   14 1   
    29   12   19 1   
    30   12   37 1   
    31   12   39 1   
    32   13   22 3   
    33   14   21 3   
    34   15   18 1   
    35   15   21 1   
    36   15   40 1   
    37   16   19 2   
    38   16   22 1   
    39   16   41 1   
    40   17   20 2   
    41   17   23 1   
    42   18   44 1   
    43   19   20 1   
    44   23   43 3   
    45   26   44 1   
@<TRIPOS>SUBSTRUCTURE
     1 BK4         1 TEMP              0 ****  ****    0 ROOT
