@<TRIPOS>MOLECULE
BK5
   47    40     1     0     0
SMALL
bcc


@<TRIPOS>ATOM
      1 N1          3.3940   -3.0980   -2.5830 n1        1 BK5     -0.275000
      2 C2          4.3940   -2.3680   -3.1650 c1        1 BK5      0.031000
      3 N3          4.3770   -1.0050   -3.0920 n1        1 BK5     -0.216000
      4 C4          3.3590   -0.3640   -2.4350 c1        1 BK5     -0.100000
      5 C5          2.3610   -1.0890   -1.8550 c1        1 BK5     -0.100000
      6 C6          2.3800   -2.4660   -1.9300 c1        1 BK5      0.238000
      7 CAA        -6.8440   -0.0210    4.8210 c3        1 BK5     -0.218000
      8 CAB         3.1950    2.8430   -3.7940 c3        1 BK5     -0.227000
      9 CAC         4.7350    2.7130   -1.7590 c3        1 BK5     -0.227000
     10 NAD         1.7210   -3.7290   -1.7340 n3        1 BK5     -0.355000
     11 CAE        -2.4580   -0.2010    3.6630 c1        1 BK5     -0.186000
     12 CAF        -1.0780   -0.1820   -1.1930 c1        1 BK5     -0.115000
     13 CAG        -1.2260   -0.1600    2.9990 c1        1 BK5     -0.112250
     14 CAH        -2.3130   -0.2380   -0.5330 c1        1 BK5     -0.112250
     15 CAJ        -3.5950   -0.2780    1.5270 c1        1 BK5     -0.112250
     16 CAK         0.0590   -0.1210    0.9380 c1        1 BK5     -0.112250
     17 CAL        -5.3590    0.0290    4.6180 c3        1 BK5     -0.021000
     18 NAO         1.9130    1.0810   -1.4780 n2        1 BK5     -0.036000
     19 OAP        -5.0540   -0.2820    3.2420 os        1 BK5     -0.214000
     20 CAQ        -3.6390   -0.2600    2.9330 c1        1 BK5      0.089000
     21 CAR         0.1060   -0.1240   -0.4550 c1        1 BK5     -0.035000
     22 CAT         1.4540   -0.1820   -1.2550 c1        1 BK5     -0.035000
     23 CAU        -2.3610   -0.2360    0.8660 c1        1 BK5     -0.037000
     24 CAV        -1.1810   -0.1780    1.6010 c1        1 BK5     -0.037000
     25 CAY         3.9920    1.8790   -2.8360 c3        1 BK5      0.058000
     26 NAZ         3.0950    0.9890   -2.2100 n2        1 BK5     -0.135000
     27 H2          5.1500   -2.8400   -3.6520 ha        1 BK5      0.188000
     28 HAA        -7.2700    0.5820    4.2100 hc        1 BK5      0.089333
     29 HAAA       -7.0550    0.2380    5.7270 hc        1 BK5      0.089333
     30 HAAB       -7.1720   -0.9500    4.6540 hc        1 BK5      0.089333
     31 HAB         3.8370    3.3470   -4.3650 hc        1 BK5      0.089167
     32 HABA        2.5610    2.2880   -4.3950 hc        1 BK5      0.089167
     33 HABB        2.6520    3.4950   -3.2430 hc        1 BK5      0.089167
     34 HAC         4.1050    3.1840   -1.2320 hc        1 BK5      0.089167
     35 HACA        5.3470    3.3650   -2.2060 hc        1 BK5      0.089167
     36 HACB        5.2820    2.0850   -1.1580 hc        1 BK5      0.089167
     37 HNAD        0.8650   -3.7510   -1.4940 hn        1 BK5      0.236500
     38 HNAA        2.1610   -4.4870   -1.8800 hn        1 BK5      0.236500
     39 HAE        -2.4870   -0.1880    4.6620 ha        1 BK5      0.139000
     40 HAF        -1.0470   -0.1840   -2.1510 ha        1 BK5      0.146000
     41 HAG        -0.3630   -0.1180    3.5340 ha        1 BK5      0.143250
     42 HAH        -3.0990   -0.2760   -1.0230 ha        1 BK5      0.143250
     43 HAJ        -4.4500   -0.3210    0.9940 ha        1 BK5      0.143250
     44 HAK         0.8710   -0.0810    1.4440 ha        1 BK5      0.143250
     45 HAL        -4.9250   -0.6280    5.2080 h1        1 BK5      0.077500
     46 HALA       -5.0340    0.9200    4.8280 h1        1 BK5      0.077500
     47 HAY         4.6450    1.3670   -3.3600 h1        1 BK5      0.126000
@<TRIPOS>BOND
     1    1    6 1   
     2    2    3 1   
     3    2   27 1   
     4    4    5 1   
     5    6   10 1   
     6    7   17 1   
     7    7   28 1   
     8    7   29 1   
     9    7   30 1   
    10    8   25 1   
    11    8   31 1   
    12    8   32 1   
    13    8   33 1   
    14    9   25 1   
    15    9   34 1   
    16    9   35 1   
    17    9   36 1   
    18   10   37 1   
    19   10   38 1   
    20   11   20 1   
    21   11   39 1   
    22   12   21 1   
    23   12   40 1   
    24   13   24 1   
    25   13   41 1   
    26   14   23 1   
    27   14   42 1   
    28   15   23 1   
    29   15   43 1   
    30   16   24 1   
    31   16   44 1   
    32   17   19 1   
    33   17   45 1   
    34   17   46 1   
    35   18   22 1   
    36   18   26 1   
    37   19   20 1   
    38   21   22 1   
    39   25   26 1   
    40   25   47 1   
@<TRIPOS>SUBSTRUCTURE
     1 BK5         1 TEMP              0 ****  ****    0 ROOT
