@<TRIPOS>MOLECULE
BK5
   47    47     1     0     0
SMALL
bcc


@<TRIPOS>ATOM
      1 N1          0.5970    1.4780    0.1240 n2        1 BK5     -0.335000
      2 C2          1.3070    2.0830   -0.6080 c1        1 BK5      0.189000
      3 N3          2.7790    0.6270    2.1090 n2        1 BK5     -0.277000
      4 C4          1.6770    0.1760    2.5930 c2        1 BK5      0.125000
      5 C5          0.2390    0.2500    2.1570 c2        1 BK5     -0.247000
      6 C6         -0.2430    0.7690    0.9800 c2        1 BK5      0.278000
      7 CAA        -8.1940    2.7660    8.9150 c2        1 BK5     -0.228000
      8 CAB         2.7920    1.0910    5.0930 c1        1 BK5     -0.045000
      9 CAC         3.9580   -1.0690    4.6000 c3        1 BK5     -0.213000
     10 NAD        -1.5410    0.5510    0.5180 n3        1 BK5     -0.346000
     11 CAE        -5.2570    1.0650    6.0130 c3        1 BK5     -0.134000
     12 CAF        -2.4510   -1.8830    3.8190 c2        1 BK5     -0.092000
     13 CAG        -4.4210    0.3490    4.9900 c2        1 BK5     -0.109000
     14 CAH        -3.4280   -1.9960    4.7540 c2        1 BK5     -0.093000
     15 CAJ        -4.8030   -1.1600    6.7160 c2        1 BK5     -0.204000
     16 CAK        -2.8340    0.3810    3.3070 c1        1 BK5     -0.220000
     17 CAL        -7.0640    3.1680    9.4800 c2        1 BK5     -0.228000
     18 NAO         0.3570   -0.8720    4.1870 n2        1 BK5     -0.031000
     19 CAQ        -5.4410   -0.0030    7.0690 c2        1 BK5      0.028000
     20 CAR        -1.9300   -0.5840    3.4080 c2        1 BK5      0.044000
     21 CAT        -0.4890   -0.4210    3.2600 c2        1 BK5     -0.017000
     22 CAU        -4.1460   -0.9480    5.4190 c2        1 BK5      0.001000
     23 CAV        -4.0060    0.8480    3.7090 c2        1 BK5     -0.035000
     24 NAZ         1.6450   -0.6760    3.8050 na        1 BK5     -0.142000
     25 H2          2.7270    1.1410    1.2610 hn        1 BK5      0.162000
     26 HAA        -6.6510    4.1760    9.3330 ha        1 BK5      0.115500
     27 HAAA       -8.7950    3.4140    8.2610 ha        1 BK5      0.115500
     28 HAAB       -8.6120    1.7610    9.0720 ha        1 BK5      0.115500
     29 HAB         1.3790    1.6250    6.8180 ha        1 BK5      0.008000
     30 HABA        1.8290    1.3070    7.2170 ha        1 BK5      0.008000
     31 HABB        3.7000    1.3650    5.6530 ha        1 BK5      0.045000
     32 HAC         4.4750   -0.6490    3.7050 hc        1 BK5      0.092000
     33 HACA        4.6130   -0.9320    5.4940 hc        1 BK5      0.092000
     34 HACB        3.7960   -2.1610    4.4360 hc        1 BK5      0.092000
     35 HNAD       -2.1860    0.2030    1.1930 hn        1 BK5      0.223000
     36 HNAA       -1.9200    1.2110   -0.1230 hn        1 BK5      0.223000
     37 HAE        -6.2390    1.3930    5.5880 hc        1 BK5      0.127000
     38 HAF        -1.9750   -2.7800    3.3930 ha        1 BK5      0.146000
     39 HAG        -4.7200    1.9550    6.4260 hc        1 BK5      0.127000
     40 HAH        -3.7020   -3.0150    5.0940 ha        1 BK5      0.138000
     41 HAJ        -4.7570   -2.0920    7.2750 ha        1 BK5      0.162000
     42 HAK        -4.6580    1.5140    3.1310 ha        1 BK5      0.147000
     43 HAL        -6.4790    1.0840    8.2250 ho        1 BK5      0.227000
     44 HALA       -6.4700    2.5230   10.1430 ha        1 BK5      0.115500
     45 HAY         2.2210   -0.7660    5.8500 h1        1 BK5      0.147000
     46 CAY         2.6290   -0.3540    4.8640 c3        1 BK5     -0.064000
     47 OAP        -6.1520    0.1680    8.2150 oh        1 BK5     -0.233000
@<TRIPOS>BOND
     1    1    2 1   
     2    1    6 1   
     3    3    4 1   
     4    3   25 1   
     5    4    5 1   
     6    4   24 1   
     7    5    6 1   
     8    5   21 1   
     9    6   10 1   
    10    7   17 1   
    11    7   27 1   
    12    7   28 1   
    13    8   31 1   
    14    8   46 1   
    15    9   32 1   
    16    9   33 1   
    17    9   34 1   
    18    9   46 1   
    19   10   35 1   
    20   10   36 1   
    21   11   13 1   
    22   11   19 1   
    23   11   37 1   
    24   11   39 1   
    25   12   14 1   
    26   12   20 1   
    27   12   38 1   
    28   13   22 1   
    29   13   23 1   
    30   14   22 1   
    31   14   40 1   
    32   15   19 1   
    33   15   22 1   
    34   15   41 1   
    35   16   20 1   
    36   16   23 1   
    37   17   26 1   
    38   17   44 1   
    39   18   21 1   
    40   18   24 1   
    41   19   47 1   
    42   20   21 1   
    43   23   42 1   
    44   24   46 1   
    45   29   30 1   
    46   43   47 1   
    47   45   46 1   
@<TRIPOS>SUBSTRUCTURE
     1 BK5         1 TEMP              0 ****  ****    0 ROOT
