@<TRIPOS>MOLECULE
BK5
   47    50     1     0     0
SMALL
bcc


@<TRIPOS>ATOM
      1 N1          3.8350    2.9050    0.6840 nb        1 BK5     -0.801000
      2 C2          4.9490    2.1220    0.6830 ca        1 BK5      0.693900
      3 N3          5.0780    0.7930    0.4710 nb        1 BK5     -0.742000
      4 C4          3.8800    0.1790    0.2150 ca        1 BK5      0.472800
      5 C5          2.6090    0.8850    0.1620 ca        1 BK5     -0.495500
      6 C6          2.6340    2.2920    0.4150 ca        1 BK5      0.759200
      7 CAA        -8.4970   -0.1560    0.0850 c3        1 BK5     -0.100100
      8 CAB         4.2530   -3.4560    0.7160 c3        1 BK5     -0.109100
      9 CAC         4.7320   -2.7000   -1.6100 c3        1 BK5     -0.109100
     10 NAD         1.4760    3.0310    0.3540 nh        1 BK5     -0.957500
     11 CAE        -4.3810   -1.0130    0.9800 ca        1 BK5     -0.186000
     12 CAF        -0.2860    0.9370   -1.2740 ca        1 BK5     -0.115000
     13 CAG        -3.0300   -1.2000    1.1370 ca        1 BK5     -0.080000
     14 CAH        -1.6330    1.1260   -1.4430 ca        1 BK5     -0.130000
     15 CAJ        -3.9670    0.6120   -0.7970 ca        1 BK5     -0.165000
     16 CAK        -0.6940   -0.6760    0.4920 ca        1 BK5     -0.074000
     17 CAL        -7.1270   -0.5940    0.5480 c3        1 BK5      0.129400
     18 NAO         2.2590   -1.3500   -0.2290 nc        1 BK5     -0.503100
     19 CAQ        -4.8530   -0.0970    0.0020 ca        1 BK5      0.134100
     20 CAR         0.1960    0.0320   -0.2860 ca        1 BK5     -0.118900
     21 CAT         1.6330   -0.1490   -0.1280 cd        1 BK5      0.420500
     22 CAU        -2.5740    0.4230   -0.6380 ca        1 BK5      0.000000
     23 CAV        -2.0950   -0.4900    0.3380 ca        1 BK5     -0.074000
     24 NAZ         3.5770   -1.1770   -0.0120 na        1 BK5      0.000200
     25 H2          5.8950    2.6650    0.8950 h5        1 BK5      0.051100
     26 HAA        -9.2720   -0.7150    0.6600 hc        1 BK5      0.050033
     27 HAAA       -8.6340    0.9390    0.2500 hc        1 BK5      0.050033
     28 HAAB       -8.6260   -0.3650   -1.0040 hc        1 BK5      0.050033
     29 HAB         5.0960   -4.1830    0.6320 hc        1 BK5      0.049867
     30 HABA        4.1420   -3.1600    1.7860 hc        1 BK5      0.049867
     31 HABB        3.3120   -3.9570    0.3830 hc        1 BK5      0.049867
     32 HAC         5.0040   -1.8430   -2.2710 hc        1 BK5      0.049867
     33 HACA        5.5500   -3.4580   -1.6550 hc        1 BK5      0.049867
     34 HACB        3.7910   -3.1630   -1.9910 hc        1 BK5      0.049867
     35 HNAD        1.4790    3.9750    0.6560 hn        1 BK5      0.441300
     36 HNAA        0.6150    2.5390    0.3350 hn        1 BK5      0.441300
     37 HAE        -5.0910   -1.5700    1.6070 ha        1 BK5      0.139000
     38 HAF         0.4420    1.4680   -1.9070 ha        1 BK5      0.146000
     39 HAG        -2.6500   -1.9080    1.8890 ha        1 BK5      0.137000
     40 HAH        -2.0110    1.8190   -2.2090 ha        1 BK5      0.139000
     41 HAJ        -4.3440    1.3160   -1.5520 ha        1 BK5      0.152000
     42 HAK        -0.3340   -1.3960    1.2440 ha        1 BK5      0.145000
     43 HAL        -6.9770   -0.3700    1.6370 h1        1 BK5      0.038200
     44 HALA       -6.9660   -1.6880    0.3630 h1        1 BK5      0.038200
     45 HAY         5.5510   -1.7980    0.1890 h1        1 BK5      0.086700
     46 CAY         4.5710   -2.2450   -0.1600 c3        1 BK5      0.078000
     47 OAP        -6.1890    0.1660   -0.2270 os        1 BK5     -0.330900
@<TRIPOS>BOND
     1    1    2 ar  
     2    1    6 ar  
     3    2    3 ar  
     4    2   25 1   
     5    3    4 ar  
     6    4    5 ar  
     7    4   24 1   
     8    5    6 ar  
     9    5   21 1   
    10    6   10 1   
    11    7   17 1   
    12    7   26 1   
    13    7   27 1   
    14    7   28 1   
    15    8   29 1   
    16    8   30 1   
    17    8   31 1   
    18    8   46 1   
    19    9   32 1   
    20    9   33 1   
    21    9   34 1   
    22    9   46 1   
    23   10   35 1   
    24   10   36 1   
    25   11   13 ar  
    26   11   19 ar  
    27   11   37 1   
    28   12   14 ar  
    29   12   20 ar  
    30   12   38 1   
    31   13   23 ar  
    32   13   39 1   
    33   14   22 ar  
    34   14   40 1   
    35   15   19 ar  
    36   15   22 ar  
    37   15   41 1   
    38   16   20 ar  
    39   16   23 ar  
    40   16   42 1   
    41   17   43 1   
    42   17   44 1   
    43   17   47 1   
    44   18   21 2   
    45   18   24 1   
    46   19   47 1   
    47   20   21 1   
    48   22   23 ar  
    49   24   46 1   
    50   45   46 1   
@<TRIPOS>SUBSTRUCTURE
     1 BK5         1 TEMP              0 ****  ****    0 ROOT
