@<TRIPOS>MOLECULE
BK5
   47    47     1     0     0
SMALL
bcc


@<TRIPOS>ATOM
      1 N1         -0.5090    0.6490    0.1100 n2        1 BK5     -0.340000
      2 C2         -0.0460    0.9410   -0.9410 c1        1 BK5      0.197000
      3 N3          2.0400    1.1720    1.7790 n2        1 BK5     -0.291000
      4 C4          1.1510    0.7650    2.6160 c2        1 BK5      0.117000
      5 C5         -0.2720    0.3030    2.4770 c2        1 BK5     -0.262000
      6 C6         -1.0560    0.3180    1.3480 c2        1 BK5      0.291000
      7 CAA        -7.8410    3.1510    6.9460 c2        1 BK5     -0.228000
      8 CAB         3.7630    1.5190    4.2480 c1        1 BK5     -0.036000
      9 CAC         3.3650   -0.8780    4.1260 c3        1 BK5     -0.207000
     10 NAD        -2.4230    0.0730    1.3700 n3        1 BK5     -0.365000
     11 CAE        -4.4740    0.8180    8.0940 c3        1 BK5     -0.010000
     12 CAF        -2.3280   -2.0230    3.8830 c2        1 BK5     -0.152000
     13 CAG        -3.4470    1.2010    7.1280 c1        1 BK5     -0.174000
     14 CAH        -3.5120   -2.3350    4.4730 c2        1 BK5     -0.150000
     15 CAJ        -4.3750   -1.2030    6.6530 c2        1 BK5     -0.229000
     16 CAK        -2.8390   -0.1260    5.1020 c2        1 BK5      0.017000
     17 CAL        -7.2660    3.0850    8.1390 c2        1 BK5     -0.228000
     18 NAO         0.3680    0.1230    4.7020 n2        1 BK5     -0.008000
     19 CAQ        -5.1610   -0.2160    7.1960 c2        1 BK5      0.023000
     20 CAR        -1.9070   -0.6600    4.2690 c2        1 BK5     -0.030000
     21 CAT        -0.6410   -0.0930    3.8570 c2        1 BK5     -0.035000
     22 CAU        -4.0620   -1.1510    5.2110 c3        1 BK5     -0.014000
     23 CAV        -2.9490    0.8700    6.0670 c1        1 BK5     -0.079000
     24 NAZ         1.4020    0.7230    4.0660 na        1 BK5     -0.202000
     25 H2          1.7690    1.2290    0.8250 hn        1 BK5      0.161000
     26 HAA        -6.4480    3.7530    8.4410 ha        1 BK5      0.115750
     27 HAAA       -7.5330    3.8730    6.1770 ha        1 BK5      0.115750
     28 HAAB       -8.6680    2.4900    6.6470 ha        1 BK5      0.115750
     29 HAB         3.9920    2.7090    6.2050 ha        1 BK5      0.008000
     30 HABA        3.3700    2.9490    6.0730 ha        1 BK5      0.008000
     31 HABB        3.4620    2.4210    3.7000 ha        1 BK5      0.079000
     32 HAC         4.3890   -0.9800    4.5600 hc        1 BK5      0.092333
     33 HACA        2.7230   -1.7070    4.5070 hc        1 BK5      0.092333
     34 HACB        3.4370   -0.9550    3.0160 hc        1 BK5      0.092333
     35 HNAD       -2.8850   -0.1820    0.5310 hn        1 BK5      0.232500
     36 HNAA       -2.8040   -0.2820    2.2170 hn        1 BK5      0.232500
     37 HAE        -5.1590    1.6530    8.3910 hc        1 BK5      0.124000
     38 HAF        -1.7070   -2.6620    3.2540 ha        1 BK5      0.153000
     39 HAG        -4.0240    0.3620    9.0120 hc        1 BK5      0.124000
     40 HAH        -4.0590   -3.2760    4.4170 ha        1 BK5      0.156000
     41 HAJ        -3.6720   -1.7480    7.2980 ha        1 BK5      0.148000
     42 HAK        -4.9230   -0.7250    4.6220 hc        1 BK5      0.141000
     43 HAL        -6.5730    1.0360    6.8440 ho        1 BK5      0.226000
     44 HALA       -7.5840    2.3710    8.9120 ha        1 BK5      0.115750
     45 HAY         2.7260    0.4860    5.6880 h1        1 BK5      0.162000
     46 CAY         2.7830    0.4770    4.5450 c3        1 BK5     -0.045000
     47 OAP        -6.3120    0.1480    6.5480 oh        1 BK5     -0.255000
@<TRIPOS>BOND
     1    1    2 1   
     2    1    6 1   
     3    3    4 1   
     4    3   25 1   
     5    4    5 1   
     6    4   24 1   
     7    5    6 1   
     8    5   21 1   
     9    6   10 1   
    10    7   17 1   
    11    7   27 1   
    12    7   28 1   
    13    8   31 1   
    14    8   46 1   
    15    9   32 1   
    16    9   33 1   
    17    9   34 1   
    18    9   46 1   
    19   10   35 1   
    20   10   36 1   
    21   11   13 1   
    22   11   19 1   
    23   11   37 1   
    24   11   39 1   
    25   12   14 1   
    26   12   20 1   
    27   12   38 1   
    28   13   23 1   
    29   14   22 1   
    30   14   40 1   
    31   15   19 1   
    32   15   22 1   
    33   15   41 1   
    34   16   20 1   
    35   16   22 1   
    36   16   23 1   
    37   17   26 1   
    38   17   44 1   
    39   18   21 1   
    40   18   24 1   
    41   19   47 1   
    42   20   21 1   
    43   22   42 1   
    44   24   46 1   
    45   29   30 1   
    46   43   47 1   
    47   45   46 1   
@<TRIPOS>SUBSTRUCTURE
     1 BK5         1 TEMP              0 ****  ****    0 ROOT
