@<TRIPOS>MOLECULE
BK6
   54    50     1     0     0
SMALL
bcc


@<TRIPOS>ATOM
      1 N1         -0.9340   -1.0900    0.4330 n2        1 BK6     -0.376000
      2 C2         -0.8730   -2.1990    0.0250 c1        1 BK6      0.184000
      3 N3          2.0730    0.9980    1.0370 n2        1 BK6     -0.212000
      4 C4          1.2290    0.8380    1.9740 c2        1 BK6      0.146000
      5 C5         -0.2030    0.4670    2.1120 c2        1 BK6     -0.275000
      6 C6         -1.0600    0.2590    0.8780 c3        1 BK6      0.237000
      7 CAA        -7.9470    0.6320    7.2820 c3        1 BK6     -0.069000
      8 NAB        -2.4410    0.6940    1.0320 n3        1 BK6     -0.350000
      9 CAC        -3.5330    3.3120    7.5060 c2        1 BK6     -0.201000
     10 CAD        -2.4390   -1.0320    3.8660 c2        1 BK6      0.031000
     11 CAE        -3.3980    2.4890    6.5190 c1        1 BK6      0.066000
     12 CAF        -3.6460   -1.5710    4.4260 c2        1 BK6     -0.146000
     13 CAH        -4.7840   -1.1260    6.7290 c2        1 BK6     -0.168000
     14 CAI        -2.0500    1.1540    5.0930 c1        1 BK6     -0.149000
     15 CAJ         7.2250    1.3760    5.0910 c1        1 BK6     -0.145000
     16 CAK         0.1900    3.2320    6.4320 c1        1 BK6     -0.239500
     17 CAL         7.5090    0.3100    4.6170 c1        1 BK6     -0.227000
     18 CAM         1.1450    3.8950    6.7130 c1        1 BK6     -0.239500
     19 NAQ         0.6400    0.6340    4.2790 na        1 BK6     -0.106000
     20 NAR         6.7870    2.5600    5.5850 n3        1 BK6     -0.249000
     21 CAT        -5.7260   -0.0540    7.0700 c1        1 BK6      0.039000
     22 CAU        -1.7960    0.1420    4.1330 c2        1 BK6     -0.142000
     23 CAW        -0.5220    0.3890    3.4420 c2        1 BK6      0.128000
     24 CAX        -4.2000   -1.2940    5.5800 c1        1 BK6     -0.076000
     25 CAY        -3.2990    1.6180    5.5210 c2        1 BK6     -0.171000
     26 CBB         4.0710    1.6670    4.0960 c2        1 BK6     -0.045000
     27 NBC         1.6710    1.0410    3.4200 na        1 BK6      0.037000
     28 H2          1.7760    0.8210    0.1000 hn        1 BK6      0.233000
     29 HAA        -8.5310    0.8580    6.3560 h1        1 BK6      0.108000
     30 HAAA       -7.4410    1.5420    7.6800 h1        1 BK6      0.108000
     31 HAAB       -8.5880    0.1450    8.0570 h1        1 BK6      0.108000
     32 HNAB       -2.4800    1.6810    1.1760 hn        1 BK6      0.176000
     33 HNAA       -2.9310    0.2080    1.7540 hn        1 BK6      0.176000
     34 HAC        -3.5200    4.4060    7.3740 ha        1 BK6      0.179000
     35 HAD        -1.9600   -1.7260    3.1390 ha        1 BK6      0.144000
     36 HAE        -3.6730    2.9640    8.5440 ha        1 BK6      0.179000
     37 HAF        -4.1210   -2.3590    3.8010 ha        1 BK6      0.168000
     38 HAH        -4.4840   -1.7350    7.6100 ha        1 BK6      0.192000
     39 HAI        -4.2400    1.2780    5.0400 ha        1 BK6      0.130000
     40 HAJ         5.6080    4.6220    3.8060 ha        1 BK6      0.001500
     41 HAJA        5.2680    4.7940    4.3660 ha        1 BK6      0.001500
     42 HAK         7.2710    3.3350    5.1630 hn        1 BK6      0.190000
     43 HAKA       -0.6850    2.6560    6.2040 ha        1 BK6      0.237500
     44 HAL         7.7970   -0.6260    4.2090 ha        1 BK6      0.245000
     45 HALA        4.8610    0.8960    4.2540 ha        1 BK6      0.229000
     46 HAM         4.3960    2.7200    4.2300 ha        1 BK6      0.229000
     47 HAMA        1.9830    4.4920    6.9770 ha        1 BK6      0.237500
     48 HAN         0.4450    1.3160    5.0180 hn        1 BK6      0.265000
     49 HANA        4.9150   -1.5520    4.2360 ha        1 BK6      0.001500
     50 HNAR        6.8790    2.5930    6.5870 hn        1 BK6      0.190000
     51 HBB         5.5400   -1.3050    4.3240 ha        1 BK6      0.001500
     52 CAN         2.8550    1.3460    3.7830 c1        1 BK6      0.033000
     53 HAB3       -0.6220    0.9160    0.0500 h2        1 BK6      0.119000
     54 OAS        -6.9860   -0.3780    6.8910 os        1 BK6     -0.165000
@<TRIPOS>BOND
     1    1    2 1   
     2    1    6 1   
     3    3    4 1   
     4    3   28 1   
     5    4    5 1   
     6    4   27 1   
     7    5    6 1   
     8    5   23 1   
     9    6    8 1   
    10    6   53 1   
    11    7   29 1   
    12    7   30 1   
    13    7   31 1   
    14    7   54 1   
    15    8   32 1   
    16    8   33 1   
    17    9   11 1   
    18    9   34 1   
    19    9   36 1   
    20   10   12 1   
    21   10   22 1   
    22   10   35 1   
    23   11   25 1   
    24   12   24 1   
    25   12   37 1   
    26   13   21 1   
    27   13   24 1   
    28   13   38 1   
    29   14   22 1   
    30   14   25 1   
    31   15   17 1   
    32   15   20 1   
    33   16   18 1   
    34   16   43 1   
    35   17   44 1   
    36   18   47 1   
    37   19   23 1   
    38   19   27 1   
    39   19   48 1   
    40   20   42 1   
    41   20   50 1   
    42   21   54 1   
    43   22   23 1   
    44   25   39 1   
    45   26   45 1   
    46   26   46 1   
    47   26   52 1   
    48   27   52 1   
    49   40   41 1   
    50   49   51 1   
@<TRIPOS>SUBSTRUCTURE
     1 BK6         1 TEMP              0 ****  ****    0 ROOT
