@<TRIPOS>MOLECULE
BK6
   53    57     1     0     0
SMALL
bcc


@<TRIPOS>ATOM
      1 N1          1.8810   -3.8600   -1.2510 nb        1 BK6     -0.801000
      2 C2          3.1270   -3.4510   -0.8890 ca        1 BK6      0.693900
      3 N3          3.5180   -2.3620   -0.1900 nb        1 BK6     -0.741000
      4 C4          2.4630   -1.5800    0.2000 ca        1 BK6      0.469800
      5 C5          1.0740   -1.8930   -0.0960 ca        1 BK6     -0.496500
      6 C6          0.8200   -3.0800   -0.8490 ca        1 BK6      0.760200
      7 CAA        -7.8980    2.1440   -0.4830 c3        1 BK6      0.113700
      8 NAB        -0.4680   -3.4600   -1.1400 nh        1 BK6     -0.958500
      9 CAC        -5.1000    1.9540   -0.5550 ca        1 BK6     -0.185000
     10 CAD        -1.9400   -1.6670    1.0450 ca        1 BK6     -0.115000
     11 CAE        -3.7340    1.8180   -0.5510 ca        1 BK6     -0.080000
     12 CAF        -3.3050   -1.5390    1.0510 ca        1 BK6     -0.129000
     13 CAH        -5.3380   -0.2340    0.5060 ca        1 BK6     -0.162000
     14 CAI        -1.7020    0.5040   -0.0130 ca        1 BK6     -0.073000
     15 CAJ         6.2720    2.5970   -0.3210 c3        1 BK6      0.163800
     16 CAK         4.0850    3.3680   -1.0470 c3        1 BK6      0.163800
     17 CAL         5.6350    1.6600    0.7040 c3        1 BK6     -0.074900
     18 CAM         3.3930    2.4470   -0.0430 c3        1 BK6     -0.074900
     19 NAQ         1.1810    0.0760    1.0850 nc        1 BK6     -0.503100
     20 NAR         5.4330    3.7310   -0.6550 n3        1 BK6     -0.820200
     21 CAT        -5.9080    0.9150   -0.0210 ca        1 BK6      0.129100
     22 CAU        -1.1230   -0.6380    0.4960 ca        1 BK6     -0.118900
     23 CAW         0.3250   -0.8020    0.5010 cd        1 BK6      0.424500
     24 CAX        -3.9300   -0.3780    0.5120 ca        1 BK6     -0.001000
     25 CAY        -3.1160    0.6540   -0.0220 ca        1 BK6     -0.073000
     26 CBB         4.2490    1.2260    0.2490 c3        1 BK6     -0.087700
     27 NBC         2.4420   -0.3840    0.9460 na        1 BK6      0.001200
     28 H2          3.9490   -4.1180   -1.2300 h5        1 BK6      0.051100
     29 HAA        -7.6680    2.2820   -1.5680 h1        1 BK6      0.045367
     30 HAAA       -8.9920    1.9550   -0.3340 h1        1 BK6      0.045367
     31 HAAB       -7.5690    3.0360    0.1040 h1        1 BK6      0.045367
     32 HNAB       -0.6330   -4.2160   -1.7570 hn        1 BK6      0.442800
     33 HNAA       -1.1920   -2.8010   -0.9840 hn        1 BK6      0.442800
     34 HAC        -5.5660    2.8600   -0.9670 ha        1 BK6      0.140000
     35 HAD        -1.4550   -2.5560    1.4770 ha        1 BK6      0.147000
     36 HAE        -3.0940    2.6160   -0.9600 ha        1 BK6      0.137000
     37 HAF        -3.9420   -2.3280    1.4800 ha        1 BK6      0.139000
     38 HAH        -5.9740   -1.0300    0.9190 ha        1 BK6      0.152000
     39 HAI        -1.0800    1.3170   -0.4170 ha        1 BK6      0.144000
     40 HAJ         7.2310    3.0060    0.1060 h1        1 BK6      0.028450
     41 HAJA        6.5400    1.9850   -1.2340 h1        1 BK6      0.028450
     42 HAK         4.0610    2.8640   -2.0590 h1        1 BK6      0.028450
     43 HAKA        3.4950    4.3240   -1.1300 h1        1 BK6      0.028450
     44 HAL         6.2970    0.7650    0.8280 hc        1 BK6      0.052450
     45 HALA        5.5620    2.1760    1.6960 hc        1 BK6      0.052450
     46 HAM         3.1950    3.0050    0.9100 hc        1 BK6      0.052450
     47 HAMA        2.4060    2.1370   -0.4700 hc        1 BK6      0.052450
     48 HAN         4.3870   -0.4210    1.6680 h1        1 BK6      0.076200
     49 HANA        3.3680    0.9960    2.2320 h1        1 BK6      0.076200
     50 HNAR        5.8650    4.2710   -1.3820 hn        1 BK6      0.361800
     51 HBB         4.3560    0.6210   -0.6950 hc        1 BK6      0.066700
     52 CAN         3.6290    0.3500    1.3460 c3        1 BK6      0.065300
     53 OAS        -7.2890    0.9590    0.0140 os        1 BK6     -0.326900
@<TRIPOS>BOND
     1    1    2 ar  
     2    1    6 ar  
     3    2    3 ar  
     4    2   28 1   
     5    3    4 ar  
     6    4    5 ar  
     7    4   27 1   
     8    5    6 ar  
     9    5   23 1   
    10    6    8 1   
    11    7   29 1   
    12    7   30 1   
    13    7   31 1   
    14    7   53 1   
    15    8   32 1   
    16    8   33 1   
    17    9   11 ar  
    18    9   21 ar  
    19    9   34 1   
    20   10   12 ar  
    21   10   22 ar  
    22   10   35 1   
    23   11   25 ar  
    24   11   36 1   
    25   12   24 ar  
    26   12   37 1   
    27   13   21 ar  
    28   13   24 ar  
    29   13   38 1   
    30   14   22 ar  
    31   14   25 ar  
    32   14   39 1   
    33   15   17 1   
    34   15   20 1   
    35   15   40 1   
    36   15   41 1   
    37   16   18 1   
    38   16   20 1   
    39   16   42 1   
    40   16   43 1   
    41   17   26 1   
    42   17   44 1   
    43   17   45 1   
    44   18   26 1   
    45   18   46 1   
    46   18   47 1   
    47   19   23 2   
    48   19   27 1   
    49   20   50 1   
    50   21   53 1   
    51   22   23 1   
    52   24   25 ar  
    53   26   51 1   
    54   26   52 1   
    55   27   52 1   
    56   48   52 1   
    57   49   52 1   
@<TRIPOS>SUBSTRUCTURE
     1 BK6         1 TEMP              0 ****  ****    0 ROOT
