@<TRIPOS>MOLECULE
BK6
   53    47     1     0     0
SMALL
bcc


@<TRIPOS>ATOM
      1 N1          0.0230   -0.2350   -4.2490 n1        1 BK6     -0.273000
      2 C2          1.3880   -0.1870   -4.2370 c1        1 BK6      0.032000
      3 N3          2.0610   -0.1030   -3.0470 n1        1 BK6     -0.215000
      4 C4          1.3640   -0.0680   -1.8580 c1        1 BK6     -0.102000
      5 C5          0.0140   -0.1160   -1.8650 c1        1 BK6     -0.102000
      6 C6         -0.6710   -0.2010   -3.0760 c1        1 BK6      0.239000
      7 CAA        -8.1910   -1.5210    3.0260 c3        1 BK6     -0.076000
      8 NAB        -1.9110   -0.0180   -3.7160 n3        1 BK6     -0.355000
      9 CAC        -5.1990   -2.3880    2.7230 c1        1 BK6     -0.132500
     10 CAD        -2.2760    1.0570    0.5100 c1        1 BK6     -0.116000
     11 CAE        -3.9760   -2.4390    2.1080 c1        1 BK6     -0.132500
     12 CAF        -3.4940    1.1120    1.1630 c1        1 BK6     -0.101000
     13 CAH        -5.3090   -0.0100    2.3390 c1        1 BK6     -0.162000
     14 CAI        -2.1520   -1.3110    0.9260 c1        1 BK6     -0.101000
     15 CAJ         6.3850    1.0950   -1.4560 c3        1 BK6     -0.078500
     16 CAK         5.8400    2.4030    0.3770 c3        1 BK6     -0.078500
     17 CAL         5.3460    0.0530   -1.0290 c3        1 BK6     -0.177000
     18 CAM         4.8000    1.3650    0.8140 c3        1 BK6     -0.177000
     19 CAN         3.1370   -0.2990    0.0250 c3        1 BK6      0.004000
     20 NAQ         0.6850    0.0160    0.2520 n2        1 BK6     -0.040000
     21 NAR         6.1880    2.2250   -0.8570 n3        1 BK6     -0.290000
     22 OAS        -7.0200   -1.1350    3.6670 os        1 BK6     -0.210000
     23 CAT        -5.8750   -1.1670    2.8420 c1        1 BK6      0.084000
     24 CAU        -1.6020   -0.1640    0.3920 c1        1 BK6     -0.037000
     25 CAW        -0.4200   -0.0640   -0.5560 c1        1 BK6     -0.028000
     26 CAX        -4.0530   -0.0590    1.7070 c1        1 BK6     -0.036500
     27 CAY        -3.3920   -1.2540    1.5910 c1        1 BK6     -0.036500
     28 CBB         4.0750    0.6900   -0.3980 c3        1 BK6     -0.123000
     29 NBC         1.7850    0.0140   -0.5400 n2        1 BK6     -0.135000
     30 H2          1.8840   -0.2110   -5.0780 ha        1 BK6      0.189000
     31 HAA        -8.1680   -1.2240    2.1060 h1        1 BK6      0.084667
     32 HAAA       -8.9660   -1.1140    3.4840 h1        1 BK6      0.084667
     33 HAAB       -8.2700   -2.4960    3.0520 h1        1 BK6      0.084667
     34 HNAB       -1.9420    0.1440   -4.6290 hn        1 BK6      0.237500
     35 HNAA       -2.6700   -0.0800   -3.2460 hn        1 BK6      0.237500
     36 HAC        -5.6150   -3.2340    3.0900 ha        1 BK6      0.139000
     37 HAD        -1.8900    1.8610    0.1380 ha        1 BK6      0.146000
     38 HAE        -3.5010   -3.3040    2.0240 ha        1 BK6      0.139000
     39 HAF        -3.9780    1.9880    1.2480 ha        1 BK6      0.142000
     40 HAH        -5.7900    0.8520    2.4240 ha        1 BK6      0.152000
     41 HAI        -1.6730   -2.1760    0.8430 ha        1 BK6      0.142000
     42 HAJ         7.3000    0.7570   -1.2240 h1        1 BK6      0.081000
     43 HAJA        6.3270    1.2320   -2.4470 h1        1 BK6      0.081000
     44 HAK         5.4660    3.2850    0.4750 h1        1 BK6      0.081000
     45 HAKA        6.6440    2.3250    0.9570 h1        1 BK6      0.081000
     46 HAL         5.0830   -0.4590   -1.8050 hc        1 BK6      0.092250
     47 HALA        5.7690   -0.5730   -0.3520 hc        1 BK6      0.092250
     48 HAM         4.1320    1.8020    1.3790 hc        1 BK6      0.092250
     49 HAMA        5.2470    0.6760    1.3330 hc        1 BK6      0.092250
     50 HAN         3.4330   -1.2010   -0.2990 h1        1 BK6      0.114000
     51 HANA        3.0860   -0.3050    1.0180 h1        1 BK6      0.114000
     52 HNAR        6.8720    2.8110   -1.0740 hn        1 BK6      0.148000
     53 HBB         3.6710    1.3540   -0.9920 hc        1 BK6      0.108000
@<TRIPOS>BOND
     1    1    6 1   
     2    2    3 1   
     3    2   30 1   
     4    4    5 1   
     5    6    8 1   
     6    7   22 1   
     7    7   31 1   
     8    7   32 1   
     9    7   33 1   
    10    8   34 1   
    11    8   35 1   
    12    9   11 1   
    13    9   36 1   
    14   10   24 1   
    15   10   37 1   
    16   11   38 1   
    17   12   26 1   
    18   12   39 1   
    19   13   23 1   
    20   13   40 1   
    21   14   27 1   
    22   14   41 1   
    23   15   17 1   
    24   15   21 1   
    25   15   42 1   
    26   15   43 1   
    27   16   18 1   
    28   16   21 1   
    29   16   44 1   
    30   16   45 1   
    31   17   28 1   
    32   17   46 1   
    33   17   47 1   
    34   18   28 1   
    35   18   48 1   
    36   18   49 1   
    37   19   28 1   
    38   19   29 1   
    39   19   50 1   
    40   19   51 1   
    41   20   25 1   
    42   20   29 1   
    43   21   52 1   
    44   22   23 1   
    45   24   25 1   
    46   26   27 1   
    47   28   53 1   
@<TRIPOS>SUBSTRUCTURE
     1 BK6         1 TEMP              0 ****  ****    0 ROOT
