@<TRIPOS>MOLECULE
BK6
   53    51     1     0     0
SMALL
bcc


@<TRIPOS>ATOM
      1 N1         -0.6760   -0.8340   -0.1850 ne        1 BK6     -0.749700
      2 C2          0.5760   -0.5470   -0.5510 c1        1 BK6      0.223400
      3 N3          1.5510   -0.1130    0.3450 nh        1 BK6     -0.223500
      4 C4          1.2120    0.0200    1.6710 cd        1 BK6      0.017500
      5 C5         -0.1280   -0.2970    2.1220 cc        1 BK6     -0.440200
      6 C6         -1.0820   -0.7180    1.1230 ce        1 BK6      0.634900
      7 CAA        -7.4080    3.1510    8.7780 c3        1 BK6     -0.120800
      8 NAB        -2.3710   -0.9890    1.4790 nh        1 BK6     -0.508100
      9 CAC        -4.7060    1.8450    6.9020 ce        1 BK6     -0.249300
     10 CAD        -1.8390   -1.5130    4.6030 ce        1 BK6     -0.115000
     11 CAE        -3.4540    1.8910    6.5190 c1        1 BK6      0.052100
     12 CAF        -3.1770   -1.6240    4.7500 cf        1 BK6     -0.128000
     13 CAH        -5.0160   -0.3020    5.7670 ce        1 BK6     -0.221200
     14 CAI        -1.5860    0.7520    5.3140 c1        1 BK6      0.058100
     15 CAJ         6.0690    1.1530    6.1620 c1        1 BK6     -0.060200
     16 CAK         2.9080    4.1290    6.5810 c1        1 BK6     -0.168000
     17 CAL         6.5270    0.2450    6.8010 c1        1 BK6     -0.191500
     18 CAM         2.3580    3.1180    6.2540 c1        1 BK6     -0.168000
     19 NAQ         1.1510    0.3870    3.9100 nd        1 BK6     -0.488800
     20 NAR         5.5540    2.1110    5.3570 n3        1 BK6     -0.707400
     21 CAT        -5.6350    1.0180    6.0660 c         1 BK6      0.573500
     22 CAU        -1.1630   -0.2150    4.5160 ce        1 BK6     -0.140900
     23 CAW        -0.0880   -0.0460    3.5500 cc        1 BK6      0.420100
     24 CAX        -4.0580   -0.4680    4.8450 cf        1 BK6     -0.114000
     25 CAY        -2.3760    1.4950    5.9700 c1        1 BK6     -0.087000
     26 CBB         3.3510    2.4610    2.8110 c3        1 BK6     -0.123100
     27 NBC         1.9410    0.3920    2.8160 na        1 BK6      0.067400
     28 H2          2.4640    0.1010    0.0180 hn        1 BK6      0.301700
     29 HAA        -6.7470    4.0430    8.7270 hc        1 BK6      0.030200
     30 HAAA       -7.4450    2.6570    7.7800 hc        1 BK6      0.030200
     31 HAAB       -8.4320    3.4660    9.0720 hc        1 BK6      0.030200
     32 HNAB       -2.6500   -0.9040    2.4250 hn        1 BK6      0.292200
     33 HNAA       -3.0300   -1.2770    0.7980 hn        1 BK6      0.292200
     34 HAC        -7.0110    2.4370    9.5330 hc        1 BK6      0.030200
     35 HAD        -1.1980   -2.4050    4.5100 ha        1 BK6      0.155000
     36 HAE        -5.1190    2.2800    7.8250 ha        1 BK6      0.185000
     37 HAF        -3.6500   -2.6180    4.8140 ha        1 BK6      0.145000
     38 HAH        -5.3230   -1.1050    6.4570 ha        1 BK6      0.157000
     39 HAI        -3.8370    0.3450    4.1250 ha        1 BK6      0.136000
     40 HAJ         4.9300    4.7240    4.1400 ha        1 BK6      0.000500
     41 HAJA        4.4440    4.6720    4.6100 ha        1 BK6      0.000500
     42 HAK         3.3820    5.0310    6.8760 ha        1 BK6      0.170500
     43 HAKA        4.6290    2.3900    5.6410 hn        1 BK6      0.389800
     44 HAL         2.8170    2.8990    1.9340 hc        1 BK6      0.054367
     45 HALA        6.9300   -0.5590    7.3570 ha        1 BK6      0.174500
     46 HAM         4.4250    2.7680    2.7690 hc        1 BK6      0.054367
     47 HAMA        1.8650    2.2200    5.9640 ha        1 BK6      0.170500
     48 HAN         3.8320    0.5500    3.7150 h1        1 BK6      0.074700
     49 HANA        3.8020    0.5420    1.8890 h1        1 BK6      0.074700
     50 HNAR        6.1620    2.9060    5.2860 hn        1 BK6      0.389800
     51 HBB         2.9030    2.8770    3.7480 hc        1 BK6      0.054367
     52 CAN         3.2880    0.9440    2.8070 c3        1 BK6      0.055300
     53 OAS        -6.7830    1.3490    5.7810 o         1 BK6     -0.490100
@<TRIPOS>BOND
     1    1    2 2   
     2    1    6 1   
     3    2    3 2   
     4    3    4 1   
     5    3   28 1   
     6    4    5 2   
     7    4   27 1   
     8    5    6 1   
     9    5   23 1   
    10    6    8 2   
    11    7   29 1   
    12    7   30 1   
    13    7   31 1   
    14    7   34 1   
    15    8   32 1   
    16    8   33 1   
    17    9   11 2   
    18    9   21 1   
    19    9   36 1   
    20   10   12 2   
    21   10   22 1   
    22   10   35 1   
    23   11   25 2   
    24   12   24 1   
    25   12   37 1   
    26   13   21 1   
    27   13   24 2   
    28   13   38 1   
    29   14   22 2   
    30   14   25 2   
    31   15   17 3   
    32   15   20 1   
    33   16   18 3   
    34   16   42 1   
    35   17   45 1   
    36   18   47 1   
    37   19   23 2   
    38   19   27 1   
    39   20   43 1   
    40   20   50 1   
    41   21   53 2   
    42   22   23 1   
    43   24   39 1   
    44   26   44 1   
    45   26   46 1   
    46   26   51 1   
    47   26   52 1   
    48   27   52 1   
    49   40   41 1   
    50   48   52 1   
    51   49   52 1   
@<TRIPOS>SUBSTRUCTURE
     1 BK6         1 TEMP              0 ****  ****    0 ROOT
