@<TRIPOS>MOLECULE
BK7
   56    54     1     0     0
SMALL
bcc


@<TRIPOS>ATOM
      1 N1         -0.4740   -0.9540   -0.7740 n2        1 BK7     -0.308000
      2 C2          0.8240   -0.6520   -0.6890 c1        1 BK7     -0.001000
      3 N3          1.4130   -0.1140    0.4550 nh        1 BK7     -0.216000
      4 C4          0.6230    0.1170    1.5550 c2        1 BK7      0.103000
      5 C5         -0.7840   -0.2170    1.5200 c2        1 BK7     -0.303000
      6 C6         -1.3180   -0.7570    0.2950 c2        1 BK7      0.277000
      7 CAA        -7.0040    2.8550    7.9200 c3        1 BK7     -0.305000
      8 NAB        -2.6440   -1.0720    0.2180 n3        1 BK7     -0.354000
      9 CAC        -2.3790    2.1980    7.1830 c3        1 BK7     -0.038000
     10 CAD        -3.1220   -1.4510    3.5270 c3        1 BK7      0.024000
     11 CAE        -2.6270    2.3210    5.7590 c1        1 BK7     -0.154000
     12 CAF        -2.9000   -1.5720    4.9530 c1        1 BK7     -0.243000
     13 CAH        -2.0980   -0.2720    6.9860 c2        1 BK7     -0.176000
     14 CAI        -3.4210    0.9860    3.7630 c2        1 BK7     -0.003000
     15 CAJ        -5.5940    2.9850    8.1430 c1        1 BK7     -0.087000
     16 CAK         5.0510    2.2750    6.1860 c1        1 BK7     -0.001000
     17 CAL         1.2690    2.4090    8.1200 c2        1 BK7     -0.233500
     18 CAM         5.6940    2.2690    5.0430 c2        1 BK7     -0.307000
     19 CAN         1.1660    1.3010    7.3970 c2        1 BK7     -0.233500
     20 NAR        -0.2650    0.6290    3.5950 n2        1 BK7     -0.045000
     21 NAS         4.5870    2.3000    7.3310 n2        1 BK7     -0.195000
     22 CAU        -2.8630    0.7720    7.4320 c2        1 BK7      0.091000
     23 CAV        -2.6550   -0.0220    3.2720 c2        1 BK7     -0.077000
     24 CAX        -1.2750    0.1330    2.8430 c2        1 BK7      0.005000
     25 CAY        -2.5820   -1.1960    6.0570 c1        1 BK7     -0.040000
     26 CAZ        -2.9410    1.9610    4.6500 c1        1 BK7     -0.114000
     27 CBC         3.1190    1.5950    2.6340 c2        1 BK7     -0.268000
     28 NBD         0.8750    0.6260    2.8460 na        1 BK7     -0.125000
     29 H2          2.3880    0.0750    0.4670 hn        1 BK7      0.254000
     30 HAA        -7.3720    2.0050    8.5640 hc        1 BK7      0.127000
     31 HAAA       -7.1580    2.5240    6.8530 hc        1 BK7      0.127000
     32 HAAB       -7.6390    3.7560    8.1130 hc        1 BK7      0.127000
     33 HNAB       -3.2330   -0.8840    0.9910 hn        1 BK7      0.242000
     34 HNAA       -3.0320   -1.4210   -0.6240 hn        1 BK7      0.242000
     35 HAC        -2.9620    2.9450    7.7840 hc        1 BK7      0.121000
     36 HAD        -4.2050   -1.5830    3.2670 hc        1 BK7      0.106500
     37 HAE        -1.2860    2.3020    7.4220 hc        1 BK7      0.121000
     38 HAF        -2.5170   -2.1920    2.9430 hc        1 BK7      0.106500
     39 HAH        -0.9970   -0.1920    7.0510 ha        1 BK7      0.150000
     40 HAI        -4.5230    0.8640    3.7890 ha        1 BK7      0.141000
     41 HAJ        -4.6230    1.4670    7.8540 ho        1 BK7      0.275000
     42 HAJA       -5.2060    3.9460    8.5080 ha        1 BK7      0.063000
     43 HAK         1.5860    2.4060    9.1720 ha        1 BK7      0.119250
     44 HAKA        2.6510    3.2240    5.1810 ha        1 BK7      0.000000
     45 HAL         3.5980    2.2050    7.4660 hn        1 BK7      0.195000
     46 HALA        2.2150    3.2330    5.7010 ha        1 BK7      0.000000
     47 HAM         5.8920    3.1960    4.4920 ha        1 BK7      0.151000
     48 HAMA        6.0920    1.3430    4.6140 ha        1 BK7      0.151000
     49 HAN         4.0390    1.9100    3.1530 ha        1 BK7      0.136500
     50 HANA        1.3850    0.3040    7.8060 ha        1 BK7      0.119250
     51 HAO         0.8400    1.3040    6.3460 ha        1 BK7      0.119250
     52 HAOA        2.1600    1.0360    4.4600 h4        1 BK7      0.163000
     53 HNAS        1.0410    3.4050    7.7130 ha        1 BK7      0.119250
     54 HBC         3.1240    1.7410    1.5480 ha        1 BK7      0.136500
     55 CAO         2.1040    1.0970    3.3520 c2        1 BK7     -0.007000
     56 OAT        -4.1590    0.5840    7.7770 oh        1 BK7     -0.283000
@<TRIPOS>BOND
     1    1    2 1   
     2    1    6 1   
     3    2    3 1   
     4    3    4 1   
     5    3   29 1   
     6    4    5 1   
     7    4   28 1   
     8    5    6 1   
     9    5   24 1   
    10    6    8 1   
    11    7   15 1   
    12    7   30 1   
    13    7   31 1   
    14    7   32 1   
    15    8   33 1   
    16    8   34 1   
    17    9   11 1   
    18    9   22 1   
    19    9   35 1   
    20    9   37 1   
    21   10   12 1   
    22   10   23 1   
    23   10   36 1   
    24   10   38 1   
    25   11   26 1   
    26   12   25 1   
    27   13   22 1   
    28   13   25 1   
    29   13   39 1   
    30   14   23 1   
    31   14   26 1   
    32   14   40 1   
    33   15   42 1   
    34   16   18 1   
    35   16   21 1   
    36   17   19 1   
    37   17   43 1   
    38   17   53 1   
    39   18   47 1   
    40   18   48 1   
    41   19   50 1   
    42   19   51 1   
    43   20   24 1   
    44   20   28 1   
    45   21   45 1   
    46   22   56 1   
    47   23   24 1   
    48   27   49 1   
    49   27   54 1   
    50   27   55 1   
    51   28   55 1   
    52   41   56 1   
    53   44   46 1   
    54   52   55 1   
@<TRIPOS>SUBSTRUCTURE
     1 BK7         1 TEMP              0 ****  ****    0 ROOT
