@<TRIPOS>MOLECULE
BK7
   57    54     1     0     0
SMALL
bcc


@<TRIPOS>ATOM
      1 N1         -1.4030    2.7080    1.8040 n2        1 BK7     -0.419000
      2 C2         -1.3160    3.8500    2.1060 c1        1 BK7      0.188000
      3 N3          1.5830    1.2350    2.1760 n2        1 BK7     -0.095000
      4 C4          0.6270    0.5410    2.6440 c2        1 BK7      0.037000
      5 C5         -0.8570    0.4590    2.4530 c2        1 BK7     -0.095000
      6 C6         -1.5990    1.3290    1.4630 c3        1 BK7      0.208000
      7 CAA        -7.4810    2.2140    8.5090 c2        1 BK7     -0.231000
      8 NAB        -1.2440    0.9240    0.1140 n3        1 BK7     -0.356000
      9 CAC        -3.8180    1.9890    6.3100 c3        1 BK7     -0.054000
     10 CAD        -2.7900   -2.4810    3.9930 c3        1 BK7     -0.149000
     11 CAE        -3.8400    1.6040    4.9280 c1        1 BK7     -0.049000
     12 CAF        -2.7520   -2.5020    5.4480 c1        1 BK7      0.027000
     13 CAH        -3.1430   -0.3810    6.6740 c1        1 BK7     -0.234000
     14 CAI        -3.7800   -0.3390    3.3290 c2        1 BK7      0.066000
     15 CAJ        -6.7560    3.1970    7.9910 c2        1 BK7     -0.231000
     16 CAK         5.8210    1.0880    6.2630 c1        1 BK7     -0.120000
     17 CAL         1.2140    4.3380    4.1200 c1        1 BK7     -0.232000
     18 CAM         6.1700   -0.0560    6.1530 c1        1 BK7     -0.252000
     19 CAN         2.1880    3.8730    4.6360 c1        1 BK7     -0.232000
     20 NAR        -0.1960   -1.1280    3.9990 n2        1 BK7      0.130000
     21 NAS         5.3130    2.3410    6.3430 n3        1 BK7     -0.246000
     22 CAU        -3.7820    0.6890    7.1010 c2        1 BK7      0.102000
     23 CAV        -2.6470   -1.1030    3.4220 c2        1 BK7     -0.149000
     24 CAX        -1.3270   -0.5510    3.2690 c2        1 BK7      0.005000
     25 CAY        -2.4440   -1.4260    6.3170 c2        1 BK7     -0.115000
     26 CAZ        -3.8200    0.9170    3.9360 c1        1 BK7     -0.204000
     27 CBC         2.5550    0.1540    5.3750 c3        1 BK7     -0.253000
     28 NBD         0.8720   -0.5580    3.6760 na        1 BK7      0.024000
     29 H2          1.3710    1.9580    1.5170 hn        1 BK7      0.237000
     30 HAA        -7.3190    1.8280    9.5260 ha        1 BK7      0.117500
     31 HAAA       -5.9540    3.7000    8.5500 ha        1 BK7      0.117500
     32 HAAB       -8.3010    1.7290    7.9620 ha        1 BK7      0.117500
     33 HNAB       -0.3430    1.2370   -0.1830 hn        1 BK7      0.183000
     34 HNAA       -1.9450    1.1870   -0.5480 hn        1 BK7      0.183000
     35 HAC        -4.7300    2.5900    6.5920 hc        1 BK7      0.139000
     36 HAD        -3.7810   -2.9380    3.6900 hc        1 BK7      0.167500
     37 HAE        -2.9110    2.6070    6.5550 hc        1 BK7      0.139000
     38 HAF        -2.0010   -3.1960    3.6190 hc        1 BK7      0.167500
     39 HAH        -1.4570   -1.6060    6.8150 ha        1 BK7      0.179000
     40 HAI        -4.7550   -0.8070    3.0880 ha        1 BK7      0.175000
     41 HAJ        -5.2460    1.2340    8.2150 ho        1 BK7      0.232000
     42 HAJA       -6.9350    3.6000    6.9850 ha        1 BK7      0.117500
     43 HAK         5.5690    4.8110    4.4120 ha        1 BK7      0.001000
     44 HAKA        4.9110    4.6500    4.4350 ha        1 BK7      0.001000
     45 HAL         0.3530    4.7720    3.6680 ha        1 BK7      0.232000
     46 HALA        5.2850    2.6680    7.2930 hn        1 BK7      0.191000
     47 HAM         6.5210   -1.0520    6.0740 ha        1 BK7      0.238000
     48 HAMA        2.4950    1.2220    5.0470 hc        1 BK7      0.126000
     49 HAN         3.6180   -0.0490    5.6830 hc        1 BK7      0.126000
     50 HANA        3.0630    3.4830    5.0980 ha        1 BK7      0.232000
     51 HAO         1.8930    0.0050    6.2620 hc        1 BK7      0.126000
     52 HAOA        2.2410   -1.8730    4.6350 h1        1 BK7      0.155500
     53 HNAS        5.8190    2.9850    5.7580 hn        1 BK7      0.191000
     54 HBC         2.9450   -0.7010    3.4020 h1        1 BK7      0.155500
     55 CAO         2.2160   -0.8080    4.2560 c3        1 BK7     -0.039000
     56 HAB3       -2.7150    1.1130    1.6010 h2        1 BK7      0.159000
     57 OAT        -4.4630    0.6590    8.2950 oh        1 BK7     -0.240000
@<TRIPOS>BOND
     1    1    2 1   
     2    1    6 1   
     3    3    4 1   
     4    3   29 1   
     5    4    5 1   
     6    4   28 1   
     7    5    6 1   
     8    5   24 1   
     9    6    8 1   
    10    6   56 1   
    11    7   15 1   
    12    7   30 1   
    13    7   32 1   
    14    8   33 1   
    15    8   34 1   
    16    9   11 1   
    17    9   22 1   
    18    9   35 1   
    19    9   37 1   
    20   10   12 1   
    21   10   23 1   
    22   10   36 1   
    23   10   38 1   
    24   11   26 1   
    25   12   25 1   
    26   13   22 1   
    27   13   25 1   
    28   14   23 1   
    29   14   26 1   
    30   14   40 1   
    31   15   31 1   
    32   15   42 1   
    33   16   18 1   
    34   16   21 1   
    35   17   19 1   
    36   17   45 1   
    37   18   47 1   
    38   19   50 1   
    39   20   24 1   
    40   20   28 1   
    41   21   46 1   
    42   21   53 1   
    43   22   57 1   
    44   23   24 1   
    45   25   39 1   
    46   27   48 1   
    47   27   49 1   
    48   27   51 1   
    49   27   55 1   
    50   28   55 1   
    51   41   57 1   
    52   43   44 1   
    53   52   55 1   
    54   54   55 1   
@<TRIPOS>SUBSTRUCTURE
     1 BK7         1 TEMP              0 ****  ****    0 ROOT
