@<TRIPOS>MOLECULE
BK7
   56    50     1     0     0
SMALL
bcc


@<TRIPOS>ATOM
      1 N1          0.3340    0.1450   -4.8630 n1        1 BK7     -0.274000
      2 C2          1.7010    0.1300   -4.8760 c1        1 BK7      0.032000
      3 N3          2.4020    0.1640   -3.6920 n1        1 BK7     -0.215000
      4 C4          1.7290    0.2120   -2.4940 c1        1 BK7     -0.102000
      5 C5          0.3790    0.2270   -2.4790 c1        1 BK7     -0.102000
      6 C6         -0.3330    0.1920   -3.6850 c1        1 BK7      0.239000
      7 CAA        -8.1080   -1.5190    4.8390 c3        1 BK7     -0.218000
      8 NAB        -1.6120    0.4350   -4.3750 n3        1 BK7     -0.355000
      9 CAC        -4.4890   -2.5220    2.2450 c1        1 BK7     -0.132500
     10 CAD        -1.7620    1.3090    0.3900 c1        1 BK7     -0.116000
     11 CAE        -3.3940   -2.4410    1.3780 c1        1 BK7     -0.132500
     12 CAF        -2.8890    1.2310    1.2040 c1        1 BK7     -0.100500
     13 CAH        -4.5550   -0.1070    2.3950 c1        1 BK7     -0.165000
     14 CAI        -1.7260   -1.0970    0.1860 c1        1 BK7     -0.100500
     15 CAJ        -7.1360   -1.9660    3.7670 c3        1 BK7     -0.022000
     16 CAK         6.7480    1.1920   -1.7020 c3        1 BK7     -0.078500
     17 CAL         6.2000    2.2880    0.2790 c3        1 BK7     -0.078500
     18 CAM         5.6420    0.1710   -1.4490 c3        1 BK7     -0.177000
     19 CAN         5.0910    1.2720    0.5410 c3        1 BK7     -0.177000
     20 CAO         3.3980   -0.1410   -0.5220 c3        1 BK7      0.004000
     21 NAR         1.0690    0.2940   -0.3650 n2        1 BK7     -0.040000
     22 NAS         6.5900    2.2500   -0.9610 n3        1 BK7     -0.290000
     23 OAT        -5.9360   -1.1810    3.8480 os        1 BK7     -0.214000
     24 CAU        -5.0680   -1.3520    2.7530 c1        1 BK7      0.090000
     25 CAV        -1.1800    0.1360   -0.1200 c1        1 BK7     -0.038000
     26 CAX        -0.0350    0.2780   -1.1450 c1        1 BK7     -0.028000
     27 CAY        -3.4450   -0.0230    1.5160 c1        1 BK7     -0.037500
     28 CAZ        -2.8720   -1.1780    1.0140 c1        1 BK7     -0.037500
     29 CBC         4.3780    0.8040   -0.7740 c3        1 BK7     -0.123000
     30 NBD         2.1700    0.2540   -1.1850 n2        1 BK7     -0.135000
     31 H2          2.1720    0.0960   -5.7110 ha        1 BK7      0.189000
     32 HAA        -7.8460   -1.8960    5.6850 hc        1 BK7      0.089333
     33 HAAA       -9.0130   -1.8270    4.6100 hc        1 BK7      0.089333
     34 HAAB       -8.1010   -0.5270    4.9010 hc        1 BK7      0.089333
     35 HNAB       -1.6380    0.4820   -5.3080 hn        1 BK7      0.237500
     36 HNAA       -2.3620    0.5700   -3.8970 hn        1 BK7      0.237500
     37 HAC        -4.8600   -3.4190    2.5040 ha        1 BK7      0.138500
     38 HAD        -1.3820    2.1660    0.1770 ha        1 BK7      0.146000
     39 HAE        -2.9940   -3.2510    1.0280 ha        1 BK7      0.138500
     40 HAF        -3.2820    2.0250    1.5490 ha        1 BK7      0.142000
     41 HAH        -4.9680    0.7240    2.7580 ha        1 BK7      0.152000
     42 HAI        -1.3260   -1.9000   -0.1640 ha        1 BK7      0.142000
     43 HAJ        -7.5460   -1.8470    2.8860 h1        1 BK7      0.077500
     44 HAJA       -6.9140   -2.9250    3.9000 h1        1 BK7      0.077500
     45 HAK         6.7330    1.4570   -2.6480 h1        1 BK7      0.080750
     46 HAKA        7.6080    0.7870   -1.4980 h1        1 BK7      0.080750
     47 HAL         5.8620    3.2000    0.4860 h1        1 BK7      0.080750
     48 HALA        6.9890    2.0810    0.8810 h1        1 BK7      0.080750
     49 HAM         5.3740   -0.2280   -2.3150 hc        1 BK7      0.092000
     50 HAMA        6.0030   -0.5590   -0.8500 hc        1 BK7      0.092000
     51 HAN         4.4320    1.6720    1.1270 hc        1 BK7      0.092000
     52 HANA        5.4860    0.4740    0.9970 hc        1 BK7      0.092000
     53 HAO         3.6860   -1.0010   -0.8600 h1        1 BK7      0.114000
     54 HAOA        3.2400   -0.2060    0.4650 h1        1 BK7      0.114000
     55 HNAS        7.3210    2.8250   -1.0770 hn        1 BK7      0.148000
     56 HBC         4.0310    1.5720   -1.2950 hc        1 BK7      0.108000
@<TRIPOS>BOND
     1    1    6 1   
     2    2    3 1   
     3    2   31 1   
     4    4    5 1   
     5    6    8 1   
     6    7   15 1   
     7    7   32 1   
     8    7   33 1   
     9    7   34 1   
    10    8   35 1   
    11    8   36 1   
    12    9   11 1   
    13    9   37 1   
    14   10   25 1   
    15   10   38 1   
    16   11   39 1   
    17   12   27 1   
    18   12   40 1   
    19   13   24 1   
    20   13   41 1   
    21   14   28 1   
    22   14   42 1   
    23   15   23 1   
    24   15   43 1   
    25   15   44 1   
    26   16   18 1   
    27   16   22 1   
    28   16   45 1   
    29   16   46 1   
    30   17   19 1   
    31   17   22 1   
    32   17   47 1   
    33   17   48 1   
    34   18   29 1   
    35   18   49 1   
    36   18   50 1   
    37   19   29 1   
    38   19   51 1   
    39   19   52 1   
    40   20   29 1   
    41   20   30 1   
    42   20   53 1   
    43   20   54 1   
    44   21   26 1   
    45   21   30 1   
    46   22   55 1   
    47   23   24 1   
    48   25   26 1   
    49   27   28 1   
    50   29   56 1   
@<TRIPOS>SUBSTRUCTURE
     1 BK7         1 TEMP              0 ****  ****    0 ROOT
