@<TRIPOS>MOLECULE
BK7
   56    60     1     0     0
SMALL
bcc


@<TRIPOS>ATOM
      1 N1          2.3830   -3.8110   -1.2700 nb        1 BK7     -0.801000
      2 C2          3.6110   -3.3490   -0.9090 ca        1 BK7      0.693900
      3 N3          3.9540   -2.2460   -0.2060 nb        1 BK7     -0.741000
      4 C4          2.8660   -1.5140    0.1890 ca        1 BK7      0.469800
      5 C5          1.4920   -1.8870   -0.1040 ca        1 BK7     -0.496500
      6 C6          1.2890   -3.0820   -0.8620 ca        1 BK7      0.760200
      7 CAA        -9.1380    1.4940   -0.2450 c3        1 BK7     -0.100100
      8 NAB         0.0190   -3.5180   -1.1510 nh        1 BK7     -0.958500
      9 CAC        -4.8530    1.6750   -0.5350 ca        1 BK7     -0.186000
     10 CAD        -1.5270   -1.8030    1.0450 ca        1 BK7     -0.115000
     11 CAE        -3.4810    1.6020   -0.5340 ca        1 BK7     -0.080000
     12 CAF        -2.8960   -1.7370    1.0550 ca        1 BK7     -0.130000
     13 CAH        -4.9880   -0.5240    0.5200 ca        1 BK7     -0.165000
     14 CAI        -1.3910    0.3800   -0.0050 ca        1 BK7     -0.073000
     15 CAJ        -7.6610    1.7520   -0.4380 c3        1 BK7      0.129400
     16 CAK         6.4800    2.8330   -0.3240 c3        1 BK7      0.163800
     17 CAL         4.2590    3.5070   -1.0410 c3        1 BK7      0.163800
     18 CAM         5.8890    1.8640    0.6990 c3        1 BK7     -0.074900
     19 CAN         3.6120    2.5510   -0.0380 c3        1 BK7     -0.074900
     20 NAR         1.5130    0.0780    1.0850 nc        1 BK7     -0.504100
     21 NAS         5.5900    3.9290   -0.6510 n3        1 BK7     -0.820200
     22 CAU        -5.6130    0.6000   -0.0020 ca        1 BK7      0.134100
     23 CAV        -0.7590   -0.7370    0.4990 ca        1 BK7     -0.119900
     24 CAX         0.6950   -0.8350    0.5000 cd        1 BK7      0.424500
     25 CAY        -3.5750   -0.6040    0.5220 ca        1 BK7      0.000000
     26 CAZ        -2.8090    0.4660   -0.0100 ca        1 BK7     -0.074000
     27 CBC         4.5220    1.3690    0.2460 c3        1 BK7     -0.087700
     28 NBD         2.7920   -0.3240    0.9410 na        1 BK7      0.001200
     29 H2          4.4610   -3.9760   -1.2550 h5        1 BK7      0.051100
     30 HAA        -9.4550    0.5930   -0.8230 hc        1 BK7      0.050033
     31 HAAA       -9.3670    1.3190    0.8330 hc        1 BK7      0.050033
     32 HAAB       -9.7120    2.3810   -0.6040 hc        1 BK7      0.050033
     33 HNAB       -0.1140   -4.2790   -1.7710 hn        1 BK7      0.442800
     34 HNAA       -0.7340   -2.8930   -0.9900 hn        1 BK7      0.442800
     35 HAC        -5.3570    2.5620   -0.9440 ha        1 BK7      0.140000
     36 HAD        -1.0010   -2.6710    1.4730 ha        1 BK7      0.147000
     37 HAE        -2.8800    2.4290   -0.9420 ha        1 BK7      0.137000
     38 HAF        -3.4960   -2.5550    1.4820 ha        1 BK7      0.139000
     39 HAH        -5.5860   -1.3490    0.9310 ha        1 BK7      0.152000
     40 HAI        -0.8070    1.2220   -0.4080 ha        1 BK7      0.144000
     41 HAJ        -7.4150    1.9100   -1.5210 h1        1 BK7      0.038700
     42 HAJA       -7.3230    2.6400    0.1590 h1        1 BK7      0.038700
     43 HAK         7.4200    3.2830    0.1030 h1        1 BK7      0.028450
     44 HAKA        6.7730    2.2370   -1.2400 h1        1 BK7      0.028450
     45 HAL         4.2540    3.0060   -2.0550 h1        1 BK7      0.028450
     46 HALA        3.6250    4.4350   -1.1190 h1        1 BK7      0.028450
     47 HAM         6.5910    0.9990    0.8170 hc        1 BK7      0.052200
     48 HAMA        5.7950    2.3730    1.6940 hc        1 BK7      0.052200
     49 HAN         3.3920    3.0960    0.9170 hc        1 BK7      0.052200
     50 HANA        2.6380    2.1990   -0.4640 hc        1 BK7      0.052200
     51 HAO         4.7390   -0.2750    1.6570 h1        1 BK7      0.076200
     52 HAOA        3.6580    1.0930    2.2300 h1        1 BK7      0.076200
     53 HNAS        5.9950    4.4910   -1.3770 hn        1 BK7      0.361800
     54 HBC         4.6550    0.7730   -0.7010 hc        1 BK7      0.066700
     55 CAO         3.9460    0.4620    1.3410 c3        1 BK7      0.065300
     56 OAT        -6.9920    0.5750    0.0350 os        1 BK7     -0.330900
@<TRIPOS>BOND
     1    1    2 ar  
     2    1    6 ar  
     3    2    3 ar  
     4    2   29 1   
     5    3    4 ar  
     6    4    5 ar  
     7    4   28 1   
     8    5    6 ar  
     9    5   24 1   
    10    6    8 1   
    11    7   15 1   
    12    7   30 1   
    13    7   31 1   
    14    7   32 1   
    15    8   33 1   
    16    8   34 1   
    17    9   11 ar  
    18    9   22 ar  
    19    9   35 1   
    20   10   12 ar  
    21   10   23 ar  
    22   10   36 1   
    23   11   26 ar  
    24   11   37 1   
    25   12   25 ar  
    26   12   38 1   
    27   13   22 ar  
    28   13   25 ar  
    29   13   39 1   
    30   14   23 ar  
    31   14   26 ar  
    32   14   40 1   
    33   15   41 1   
    34   15   42 1   
    35   15   56 1   
    36   16   18 1   
    37   16   21 1   
    38   16   43 1   
    39   16   44 1   
    40   17   19 1   
    41   17   21 1   
    42   17   45 1   
    43   17   46 1   
    44   18   27 1   
    45   18   47 1   
    46   18   48 1   
    47   19   27 1   
    48   19   49 1   
    49   19   50 1   
    50   20   24 2   
    51   20   28 1   
    52   21   53 1   
    53   22   56 1   
    54   23   24 1   
    55   25   26 ar  
    56   27   54 1   
    57   27   55 1   
    58   28   55 1   
    59   51   55 1   
    60   52   55 1   
@<TRIPOS>SUBSTRUCTURE
     1 BK7         1 TEMP              0 ****  ****    0 ROOT
