@<TRIPOS>MOLECULE
BK7
   56    53     1     0     0
SMALL
bcc


@<TRIPOS>ATOM
      1 N1         -0.1350   -0.1390   -0.5990 n2        1 BK7     -0.309000
      2 C2          1.1640   -0.1530   -0.2870 c1        1 BK7     -0.001000
      3 N3          1.6390   -0.0650    1.0210 nu        1 BK7     -0.216000
      4 C4          0.7290    0.0340    2.0460 c2        1 BK7      0.100000
      5 C5         -0.6890    0.0230    1.7610 c2        1 BK7     -0.302000
      6 C6         -1.0970   -0.0510    0.3810 c2        1 BK7      0.276000
      7 CAA        -7.3960    2.3030    8.1620 c3        1 BK7     -0.305000
      8 NAB        -2.4260   -0.0380    0.0660 n8        1 BK7     -0.355000
      9 CAC        -2.8280    1.0060    7.7100 c3        1 BK7     -0.031000
     10 CAD        -3.5040   -1.1690    3.0110 c3        1 BK7      0.022000
     11 CAE        -2.7790    1.5880    6.3820 c1        1 BK7     -0.162000
     12 CAF        -3.5700   -1.7400    4.3400 c1        1 BK7     -0.239000
     13 CAH        -2.9380   -1.3000    6.7630 c2        1 BK7     -0.168000
     14 CAI        -3.4160    1.0930    3.9840 c2        1 BK7     -0.009000
     15 CAJ        -6.0080    2.1510    8.4880 c1        1 BK7     -0.088000
     16 CAK         5.5760    2.0120    6.2540 c1        1 BK7     -0.092000
     17 CAL         2.3160    3.9340    7.0400 c1        1 BK7      0.128000
     18 CAM         5.8840    0.8530    6.1880 c1        1 BK7     -0.293000
     19 CAN         1.0310    3.9880    7.2440 c2        1 BK7     -0.526000
     20 NAR        -0.3790    0.1750    4.0360 n2        1 BK7     -0.040000
     21 NAS         5.3140    3.3320    6.3690 n8        1 BK7     -0.242000
     22 CAU        -3.5810   -0.2890    7.4260 c2        1 BK7      0.085000
     23 CAV        -2.7600    0.1350    3.2810 c2        1 BK7     -0.069000
     24 CAX        -1.3220    0.1100    3.0670 c2        1 BK7     -0.003000
     25 CAY        -3.3990   -1.7840    5.5350 c1        1 BK7     -0.041000
     26 CAZ        -2.9420    1.6410    5.1860 c1        1 BK7     -0.110000
     27 CBC         3.2150    0.6880    3.7500 c2        1 BK7     -0.269000
     28 NBD         0.8500    0.1290    3.4480 na        1 BK7     -0.124000
     29 H2          2.6160   -0.1000    1.1970 hn        1 BK7      0.255000
     30 HAA        -7.9330    1.3840    8.5380 hc        1 BK7      0.127333
     31 HAAA       -7.4970    2.2820    7.0400 hc        1 BK7      0.127333
     32 HAAB       -7.9180    3.2110    8.5540 hc        1 BK7      0.127333
     33 HNAB       -2.7210   -0.0670   -0.8790 hn        1 BK7      0.241500
     34 HNAA       -3.0950    0.0640    0.7880 hn        1 BK7      0.241500
     35 HAC        -3.3830    1.6560    8.4370 hc        1 BK7      0.117500
     36 HAD        -4.5270   -0.9810    2.5920 hc        1 BK7      0.107500
     37 HAE        -1.8010    0.8020    8.1090 hc        1 BK7      0.117500
     38 HAF        -2.9380   -1.8260    2.3010 hc        1 BK7      0.107500
     39 HAH        -1.8750   -1.4950    6.9810 ha        1 BK7      0.152000
     40 HAI        -4.5120    1.2030    3.8510 ha        1 BK7      0.142000
     41 HAJ        -5.2460    0.6200    7.8250 ho        1 BK7      0.274000
     42 HAJA       -5.5320    2.9080    9.1250 ha        1 BK7      0.062000
     43 HAK         4.4860    3.0400    3.3860 ha        1 BK7      0.004000
     44 HAKA        4.5090    3.5170    6.9480 hn        1 BK7      0.196000
     45 HAL         2.9490    4.2000    4.7770 ha        1 BK7      0.004000
     46 HALA        5.2220    3.7730    5.4720 hn        1 BK7      0.196000
     47 HAM         6.1860   -0.1600    6.1490 ha        1 BK7      0.229000
     48 HAMA        4.7000    3.6580    3.2100 ha        1 BK7      0.004000
     49 HAN         0.5830    3.9330    8.2510 ha        1 BK7      0.195500
     50 HANA        4.0950    0.6780    4.4150 ha        1 BK7      0.140500
     51 HAO         1.9340   -0.1860    5.2260 h4        1 BK7      0.168000
     52 HAOA        0.2750    4.0830    6.4480 ha        1 BK7      0.195500
     53 HNAS        2.3140    4.4440    4.7690 ha        1 BK7      0.004000
     54 HBC         3.3880    1.1290    2.7620 ha        1 BK7      0.140500
     55 CAO         2.0480    0.2000    4.1910 c2        1 BK7     -0.009000
     56 OAT        -4.9330   -0.2810    7.5280 oh        1 BK7     -0.282000
@<TRIPOS>BOND
     1    1    2 1   
     2    1    6 1   
     3    2    3 1   
     4    3    4 1   
     5    3   29 1   
     6    4    5 1   
     7    4   28 1   
     8    5    6 1   
     9    5   24 1   
    10    6    8 1   
    11    7   15 1   
    12    7   30 1   
    13    7   31 1   
    14    7   32 1   
    15    8   33 1   
    16    8   34 1   
    17    9   11 1   
    18    9   22 1   
    19    9   35 1   
    20    9   37 1   
    21   10   12 1   
    22   10   23 1   
    23   10   36 1   
    24   10   38 1   
    25   11   26 1   
    26   12   25 1   
    27   13   22 1   
    28   13   25 1   
    29   13   39 1   
    30   14   23 1   
    31   14   26 1   
    32   14   40 1   
    33   15   42 1   
    34   16   18 1   
    35   16   21 1   
    36   17   19 1   
    37   18   47 1   
    38   19   49 1   
    39   19   52 1   
    40   20   24 1   
    41   20   28 1   
    42   21   44 1   
    43   21   46 1   
    44   22   56 1   
    45   23   24 1   
    46   27   50 1   
    47   27   54 1   
    48   27   55 1   
    49   28   55 1   
    50   41   56 1   
    51   43   48 1   
    52   45   53 1   
    53   51   55 1   
@<TRIPOS>SUBSTRUCTURE
     1 BK7         1 TEMP              0 ****  ****    0 ROOT
