@<TRIPOS>MOLECULE
BKA
   21    20     1     0     0
SMALL
bcc


@<TRIPOS>ATOM
      1 O3          0.1470   -0.7800    1.7290 o         1 BKA     -0.608100
      2 C3          0.2540    0.1220    0.8820 c         1 BKA      0.600100
      3 C2          1.5460    0.8030    0.5880 c3        1 BKA     -0.312400
      4 C1          2.0910    0.5060   -0.8350 c         1 BKA      0.924600
      5 O1          1.3290    0.6960   -1.8250 o         1 BKA     -0.832300
      6 O2          3.2900    0.1320   -0.9190 o         1 BKA     -0.832300
      7 C4         -0.9240    0.6100    0.0870 c3        1 BKA     -0.204400
      8 C5         -2.1900   -0.1660    0.3610 c3        1 BKA     -0.067400
      9 C6         -3.3410    0.3460   -0.4770 c3        1 BKA     -0.080400
     10 C7         -4.6070   -0.4300   -0.2180 c3        1 BKA     -0.088100
     11 H2          1.4000    1.9110    0.6500 hc        1 BKA      0.051200
     12 H2A         2.3220    0.4950    1.3330 hc        1 BKA      0.051200
     13 H4         -1.0790    1.6960    0.3150 hc        1 BKA      0.088700
     14 H4A        -0.6340    0.5390   -1.0040 hc        1 BKA      0.088700
     15 H5         -2.0130   -1.2520    0.1420 hc        1 BKA      0.040200
     16 H5A        -2.4500   -0.0950    1.4500 hc        1 BKA      0.040200
     17 H6         -3.5140    1.4320   -0.2530 hc        1 BKA      0.036200
     18 H6A        -3.0690    0.2750   -1.5640 hc        1 BKA      0.036200
     19 H7         -5.4430   -0.0370   -0.8460 hc        1 BKA      0.023033
     20 H7A        -4.4610   -1.5100   -0.4620 hc        1 BKA      0.023033
     21 H7B        -4.9040   -0.3520    0.8550 hc        1 BKA      0.023033
@<TRIPOS>BOND
     1    1    2 2   
     2    2    3 1   
     3    2    7 1   
     4    3    4 1   
     5    3   11 1   
     6    3   12 1   
     7    4    5 1   
     8    4    6 1   
     9    7    8 1   
    10    7   13 1   
    11    7   14 1   
    12    8    9 1   
    13    8   15 1   
    14    8   16 1   
    15    9   10 1   
    16    9   17 1   
    17    9   18 1   
    18   10   19 1   
    19   10   20 1   
    20   10   21 1   
@<TRIPOS>SUBSTRUCTURE
     1 BKA         1 TEMP              0 ****  ****    0 ROOT
