@<TRIPOS>MOLECULE
BKA
   21    20     1     0     0
SMALL
bcc


@<TRIPOS>ATOM
      1 O3          0.2960    1.7590   -0.1460 o         1 BKA     -0.608100
      2 C3          1.1830    0.9030    0.0050 c         1 BKA      0.600100
      3 C2          1.8200    0.6250    1.3230 c3        1 BKA     -0.312400
      4 C1          1.4890   -0.7830    1.8840 c         1 BKA      0.924600
      5 O1          1.6910   -1.7900    1.1470 o         1 BKA     -0.832300
      6 O2          1.0770   -0.8400    3.0730 o         1 BKA     -0.832300
      7 C4          1.6980    0.0800   -1.1430 c3        1 BKA     -0.204400
      8 C5          0.9650    0.3400   -2.4370 c3        1 BKA     -0.067400
      9 C6          1.5020   -0.5260   -3.5560 c3        1 BKA     -0.080400
     10 C7          0.7690   -0.2820   -4.8490 c3        1 BKA     -0.088100
     11 H2          1.4980    1.3890    2.0750 hc        1 BKA      0.051200
     12 H2A         2.9330    0.6720    1.2100 hc        1 BKA      0.051200
     13 H4          1.6040   -1.0040   -0.8340 hc        1 BKA      0.088700
     14 H4A         2.7920    0.2930   -1.2680 hc        1 BKA      0.088700
     15 H5         -0.1290    0.1370   -2.2890 hc        1 BKA      0.040200
     16 H5A         1.0580    1.4230   -2.7150 hc        1 BKA      0.040200
     17 H6          2.5960   -0.3180   -3.6990 hc        1 BKA      0.036200
     18 H6A         1.4090   -1.6070   -3.2660 hc        1 BKA      0.036200
     19 H7         -0.3190   -0.5100   -4.7330 hc        1 BKA      0.023033
     20 H7A         1.1800   -0.9300   -5.6610 hc        1 BKA      0.023033
     21 H7B         0.8690    0.7850   -5.1640 hc        1 BKA      0.023033
@<TRIPOS>BOND
     1    1    2 2   
     2    2    3 1   
     3    2    7 1   
     4    3    4 1   
     5    3   11 1   
     6    3   12 1   
     7    4    5 1   
     8    4    6 1   
     9    7    8 1   
    10    7   13 1   
    11    7   14 1   
    12    8    9 1   
    13    8   15 1   
    14    8   16 1   
    15    9   10 1   
    16    9   17 1   
    17    9   18 1   
    18   10   19 1   
    19   10   20 1   
    20   10   21 1   
@<TRIPOS>SUBSTRUCTURE
     1 BKA         1 TEMP              0 ****  ****    0 ROOT
