@<TRIPOS>MOLECULE
BKA
   21    19     1     0     0
SMALL
bcc


@<TRIPOS>ATOM
      1 O3         -1.4120   -0.2470    1.4310 o         1 BKA     -0.369000
      2 C3         -0.2030   -0.3610    1.4180 c1        1 BKA      0.261000
      3 C2          0.5570   -0.5050    2.7180 c3        1 BKA     -0.291000
      4 C1         -0.4160   -0.7800    3.8430 c2        1 BKA      0.344000
      5 O1         -0.7590   -1.9630    4.1050 o         1 BKA     -0.567000
      6 O2         -0.8830    0.1750    4.5190 o         1 BKA     -0.567000
      7 C4          0.5440   -0.3590    0.1020 c2        1 BKA     -0.233000
      8 C5         -0.2890    0.3420   -0.9490 c3        1 BKA     -0.146000
      9 C6          0.4590    0.3470   -2.2640 c3        1 BKA     -0.159000
     10 C7         -0.4350    0.9030   -3.3500 c3        1 BKA     -0.206000
     11 H2          1.1900   -1.2480    2.6460 hc        1 BKA      0.090500
     12 H2A         1.0450    0.3220    2.9040 hc        1 BKA      0.090500
     13 H4          0.7130   -1.2810   -0.1780 ha        1 BKA      0.128000
     14 H4A         1.3950    0.1110    0.2110 ha        1 BKA      0.128000
     15 H5         -0.4610    1.2630   -0.6670 hc        1 BKA      0.079500
     16 H5A        -1.1390   -0.1290   -1.0590 hc        1 BKA      0.079500
     17 H6          0.7210   -0.5660   -2.4930 hc        1 BKA      0.075500
     18 H6A         1.2580    0.9050   -2.1820 hc        1 BKA      0.075500
     19 H7         -0.7560    1.7910   -3.0870 hc        1 BKA      0.062333
     20 H7A        -1.2000    0.3050   -3.4810 hc        1 BKA      0.062333
     21 H7B         0.0720    0.9740   -4.1860 hc        1 BKA      0.062333
@<TRIPOS>BOND
     1    1    2 1   
     2    2    3 1   
     3    3    4 1   
     4    3   11 1   
     5    3   12 1   
     6    4    5 1   
     7    4    6 1   
     8    7    8 1   
     9    7   13 1   
    10    7   14 1   
    11    8    9 1   
    12    8   15 1   
    13    8   16 1   
    14    9   10 1   
    15    9   17 1   
    16    9   18 1   
    17   10   19 1   
    18   10   20 1   
    19   10   21 1   
@<TRIPOS>SUBSTRUCTURE
     1 BKA         1 TEMP              0 ****  ****    0 ROOT
