@<TRIPOS>MOLECULE
BKA
   21    20     1     0     0
SMALL
bcc


@<TRIPOS>ATOM
      1 O3          0.1190    1.5600   -0.0500 o         1 BKA     -0.608100
      2 C3          1.0870    0.7890    0.0570 c         1 BKA      0.600100
      3 C2          1.7420    0.4920    1.3620 c3        1 BKA     -0.312400
      4 C1          1.5490   -0.9750    1.8300 c         1 BKA      0.924600
      5 O1          1.8550   -1.9080    1.0340 o         1 BKA     -0.832300
      6 O2          1.1380   -1.1480    3.0080 o         1 BKA     -0.832300
      7 C4          1.6860    0.0950   -1.1340 c3        1 BKA     -0.204400
      8 C5          0.9360    0.3610   -2.4170 c3        1 BKA     -0.067400
      9 C6          1.5630   -0.3740   -3.5820 c3        1 BKA     -0.080400
     10 C7          0.8140   -0.1240   -4.8660 c3        1 BKA     -0.088100
     11 H2          1.3410    1.1700    2.1570 hc        1 BKA      0.051200
     12 H2A         2.8450    0.6560    1.2650 hc        1 BKA      0.051200
     13 H4          1.7010   -1.0100   -0.8950 hc        1 BKA      0.088700
     14 H4A         2.7530    0.4240   -1.2340 hc        1 BKA      0.088700
     15 H5         -0.1320    0.0400   -2.2940 hc        1 BKA      0.040200
     16 H5A         0.9200    1.4640   -2.6250 hc        1 BKA      0.040200
     17 H6          2.6310   -0.0470   -3.7000 hc        1 BKA      0.036200
     18 H6A         1.5790   -1.4740   -3.3610 hc        1 BKA      0.036200
     19 H7         -0.2450   -0.4680   -4.7750 hc        1 BKA      0.023033
     20 H7A         1.2920   -0.6740   -5.7120 hc        1 BKA      0.023033
     21 H7B         0.8060    0.9650   -5.1120 hc        1 BKA      0.023033
@<TRIPOS>BOND
     1    1    2 2   
     2    2    3 1   
     3    2    7 1   
     4    3    4 1   
     5    3   11 1   
     6    3   12 1   
     7    4    5 1   
     8    4    6 1   
     9    7    8 1   
    10    7   13 1   
    11    7   14 1   
    12    8    9 1   
    13    8   15 1   
    14    8   16 1   
    15    9   10 1   
    16    9   17 1   
    17    9   18 1   
    18   10   19 1   
    19   10   20 1   
    20   10   21 1   
@<TRIPOS>SUBSTRUCTURE
     1 BKA         1 TEMP              0 ****  ****    0 ROOT
