@<TRIPOS>MOLECULE
BL0
   23    23     1     0     0
SMALL
bcc


@<TRIPOS>ATOM
      1 CA1        -3.9190    1.3440    0.7220 c3        1 BL0      0.175100
      2 NA1        -3.3130    0.0590    0.4590 nh        1 BL0     -0.715300
      3 CA2        -4.1640   -0.9000   -0.2090 c3        1 BL0      0.175100
      4 CA3        -1.9700    0.0430    0.0980 cc        1 BL0      0.601300
      5 SA1        -1.1120   -1.4480   -0.2200 ss        1 BL0     -0.185800
      6 NA2        -1.1230    1.1270    0.0650 nd        1 BL0     -0.374000
      7 NA3         0.1100    0.8060   -0.1760 nd        1 BL0     -0.325000
      8 CA4         0.3210   -0.5160   -0.3680 cc        1 BL0      0.352700
      9 CA5         1.6210   -1.1140   -0.6890 c3        1 BL0     -0.317900
     10 SA2         3.0010   -0.4300    0.1460 s6        1 BL0      1.473900
     11 OA1         4.1060   -1.1680   -0.3340 o         1 BL0     -0.651300
     12 NA4         3.0960    1.0620   -0.3790 n3        1 BL0     -1.022700
     13 OA2         2.7450   -0.4920    1.5240 o         1 BL0     -0.651300
     14 HA1        -4.0100    1.9710   -0.2060 h1        1 BL0      0.051200
     15 HA1A       -4.9420    1.1700    1.1480 h1        1 BL0      0.051200
     16 HA1B       -3.3000    1.9000    1.4750 h1        1 BL0      0.051200
     17 HA2        -4.4420   -0.5740   -1.2480 h1        1 BL0      0.051200
     18 HA2A       -3.6460   -1.8950   -0.2660 h1        1 BL0      0.051200
     19 HA2B       -5.1010   -1.0160    0.3970 h1        1 BL0      0.051200
     20 HA5         1.5940   -2.2110   -0.4420 h1        1 BL0      0.118700
     21 HA5A        1.7790   -1.0640   -1.8020 h1        1 BL0      0.118700
     22 HNA4        3.7050    1.3460   -1.1060 hn        1 BL0      0.461300
     23 HNAA        2.5340    1.8080   -0.0440 hn        1 BL0      0.461300
@<TRIPOS>BOND
     1    1    2 1   
     2    1   14 1   
     3    1   15 1   
     4    1   16 1   
     5    2    3 1   
     6    2    4 1   
     7    3   17 1   
     8    3   18 1   
     9    3   19 1   
    10    4    5 1   
    11    4    6 2   
    12    5    8 1   
    13    6    7 1   
    14    7    8 2   
    15    8    9 1   
    16    9   10 1   
    17    9   20 1   
    18    9   21 1   
    19   10   11 2   
    20   10   12 1   
    21   10   13 2   
    22   12   22 1   
    23   12   23 1   
@<TRIPOS>SUBSTRUCTURE
     1 BL0         1 TEMP              0 ****  ****    0 ROOT
