@<TRIPOS>MOLECULE
BL0
   24    24     1     0     0
SMALL
bcc


@<TRIPOS>ATOM
      1 CA1         0.1270    0.3700    0.0820 c3        1 BL0      0.185600
      2 NA1         1.4950   -0.0870    0.0180 nh        1 BL0     -0.712300
      3 CA2         2.0820   -0.7170    1.1730 c3        1 BL0      0.185600
      4 CA3         2.2720    0.2140   -1.0520 cc        1 BL0      0.655300
      5 SA1         3.9560   -0.2370   -1.1980 ss        1 BL0     -0.086800
      6 NA2         1.8280    0.8950   -2.2020 nd        1 BL0     -0.353000
      7 NA3         2.7450    1.0150   -3.0780 nd        1 BL0     -0.324000
      8 CA4         3.9560    0.4760   -2.7360 cc        1 BL0      0.145700
      9 CA5         5.0930    0.5550   -3.6750 c3        1 BL0     -0.330900
     10 SA2         4.5610    1.3680   -5.0500 s6        1 BL0      1.432900
     11 OA1         4.5140    2.7300   -4.9550 o         1 BL0     -0.531800
     12 NA4         6.3290    1.2510   -5.9890 nz        1 BL0     -0.791500
     13 OA2         3.8490    0.6220   -5.9450 o         1 BL0     -0.531800
     14 HA1        -0.3430    0.0060    1.0340 h1        1 BL0      0.070033
     15 HA1A       -0.4490   -0.0330   -0.7950 h1        1 BL0      0.070033
     16 HA1B        0.0880    1.4930    0.0550 h1        1 BL0      0.070033
     17 HA2         1.3060   -1.3480    1.6840 h1        1 BL0      0.070033
     18 HA2A        2.4570    0.0590    1.8950 h1        1 BL0      0.070033
     19 HA2B        2.9380   -1.3790    0.8640 h1        1 BL0      0.070033
     20 HA5         5.4520   -0.4950   -3.8790 h1        1 BL0      0.147700
     21 HA5A        5.9480    1.0680   -3.1460 h1        1 BL0      0.147700
     22 HNA4        6.6600    2.1890   -6.1980 hn        1 BL0      0.447133
     23 HNAA        6.2080    0.7580   -6.8700 hn        1 BL0      0.447133
     24 HA43        7.0460    0.7750   -5.4590 hn        1 BL0      0.447133
@<TRIPOS>BOND
     1    1    2 1   
     2    1   14 1   
     3    1   15 1   
     4    1   16 1   
     5    2    3 1   
     6    2    4 1   
     7    3   17 1   
     8    3   18 1   
     9    3   19 1   
    10    4    5 1   
    11    4    6 2   
    12    5    8 1   
    13    6    7 1   
    14    7    8 2   
    15    8    9 1   
    16    9   10 1   
    17    9   20 1   
    18    9   21 1   
    19   10   11 2   
    20   10   12 1   
    21   10   13 2   
    22   12   22 1   
    23   12   23 1   
    24   12   24 1   
@<TRIPOS>SUBSTRUCTURE
     1 BL0         1 TEMP              0 ****  ****    0 ROOT
