@<TRIPOS>MOLECULE
BL0
   24    24     1     0     0
SMALL
bcc


@<TRIPOS>ATOM
      1 CA1         0.1150    0.3670    0.0670 c3        1 BL0      0.185600
      2 NA1         1.4800   -0.1010    0.0030 nh        1 BL0     -0.712300
      3 CA2         2.0560   -0.7490    1.1520 c3        1 BL0      0.185600
      4 CA3         2.2640    0.2070   -1.0600 cc        1 BL0      0.655300
      5 SA1         3.9450   -0.2560   -1.2040 ss        1 BL0     -0.086800
      6 NA2         1.8310    0.9070   -2.2030 nd        1 BL0     -0.353000
      7 NA3         2.7520    1.0290   -3.0740 nd        1 BL0     -0.324000
      8 CA4         3.9570    0.4760   -2.7330 cc        1 BL0      0.145700
      9 CA5         5.0990    0.5570   -3.6660 c3        1 BL0     -0.330900
     10 SA2         4.5810    1.3920   -5.0330 s6        1 BL0      1.432900
     11 OA1         4.5450    2.7530   -4.9210 o         1 BL0     -0.531800
     12 NA4         6.3520    1.2720   -5.9660 n4        1 BL0     -0.791500
     13 OA2         3.8660    0.6640   -5.9410 o         1 BL0     -0.531800
     14 HA1         0.0860    1.4910    0.0540 h1        1 BL0      0.070033
     15 HA1A       -0.3610   -0.0040    1.0120 h1        1 BL0      0.070033
     16 HA1B       -0.4600   -0.0200   -0.8170 h1        1 BL0      0.070033
     17 HA2         1.2730   -1.3800    1.6520 h1        1 BL0      0.070033
     18 HA2A        2.4350    0.0140    1.8860 h1        1 BL0      0.070033
     19 HA2B        2.9080   -1.4150    0.8390 h1        1 BL0      0.070033
     20 HA5         5.9570    1.0550   -3.1280 h1        1 BL0      0.147700
     21 HA5A        5.4490   -0.4950   -3.8830 h1        1 BL0      0.147700
     22 HNA4        7.0620    0.7830   -5.4390 hn        1 BL0      0.447133
     23 HNAA        6.2300    0.7920   -6.8540 hn        1 BL0      0.447133
     24 HA43        6.6920    2.2090   -6.1610 hn        1 BL0      0.447133
@<TRIPOS>BOND
     1    1    2 1   
     2    1   14 1   
     3    1   15 1   
     4    1   16 1   
     5    2    3 1   
     6    2    4 1   
     7    3   17 1   
     8    3   18 1   
     9    3   19 1   
    10    4    5 1   
    11    4    6 2   
    12    5    8 1   
    13    6    7 1   
    14    7    8 2   
    15    8    9 1   
    16    9   10 1   
    17    9   20 1   
    18    9   21 1   
    19   10   11 2   
    20   10   12 1   
    21   10   13 2   
    22   12   22 1   
    23   12   23 1   
    24   12   24 1   
@<TRIPOS>SUBSTRUCTURE
     1 BL0         1 TEMP              0 ****  ****    0 ROOT
