@<TRIPOS>MOLECULE
BL0
   23    21     1     0     0
SMALL
bcc


@<TRIPOS>ATOM
      1 CA1        -0.6900   -0.6890    3.8030 c3        1 BL0     -0.103500
      2 NA1        -1.0170    0.1830    2.6980 n3        1 BL0     -0.204000
      3 CA2        -2.0540    1.1520    2.8330 c3        1 BL0     -0.103500
      4 CA3        -0.2990    0.0830    1.4820 c2        1 BL0     -0.169000
      5 SA1        -0.9040    0.1230    0.0750 ss        1 BL0      0.427000
      6 NA2         1.1200    0.0160    1.3480 n2        1 BL0     -0.104000
      7 NA3         1.4800    0.0120   -0.2190 n2        1 BL0     -0.019000
      8 CA4         0.2780    0.0750   -0.9490 c1        1 BL0     -0.336000
      9 CA5         0.1540    0.1340   -2.4340 c2        1 BL0     -0.754000
     10 SA2         1.7030   -0.4070   -3.1880 s4        1 BL0      2.039800
     11 OA1         2.1270   -1.6300   -2.6520 o         1 BL0     -0.523900
     12 NA4         1.5420   -0.5000   -4.8180 n2        1 BL0     -0.963000
     13 OA2         2.8210    0.4740   -2.8070 o         1 BL0     -0.523900
     14 HA1        -0.5020   -1.5670    3.4720 h1        1 BL0      0.090167
     15 HA1A        0.1250   -0.3300    4.2860 h1        1 BL0      0.090167
     16 HA1B       -1.4500   -0.7300    4.4280 h1        1 BL0      0.090167
     17 HA2        -2.8720    0.8240    2.3870 h1        1 BL0      0.090167
     18 HA2A       -1.7720    1.9820    2.4210 h1        1 BL0      0.090167
     19 HA2B       -2.2430    1.3080    3.8080 h1        1 BL0      0.090167
     20 HA5        -0.5920   -0.4720   -2.7330 h4        1 BL0      0.154500
     21 HA5A       -0.0400    1.0480   -2.7070 h4        1 BL0      0.154500
     22 HNA4        1.4640   -1.3200   -5.2250 hn        1 BL0      0.243500
     23 HNAA        1.6220    0.2310   -5.3100 hn        1 BL0      0.243500
@<TRIPOS>BOND
     1    1    2 1   
     2    1   14 1   
     3    1   15 1   
     4    1   16 1   
     5    2    3 1   
     6    2    4 1   
     7    3   17 1   
     8    3   18 1   
     9    3   19 1   
    10    4    5 1   
    11    4    6 1   
    12    5    8 1   
    13    6    7 1   
    14    7    8 1   
    15    9   10 1   
    16    9   20 1   
    17    9   21 1   
    18   10   11 1   
    19   10   13 1   
    20   12   22 1   
    21   12   23 1   
@<TRIPOS>SUBSTRUCTURE
     1 BL0         1 TEMP              0 ****  ****    0 ROOT
