@<TRIPOS>MOLECULE
BL0
   25    25     1     0     0
SMALL
bcc


@<TRIPOS>ATOM
      1 CA1         0.1350   -0.4400   -0.2580 c3        1 BL0      0.089100
      2 NA1         1.5870   -0.5400    0.0980 n4        1 BL0     -0.623100
      3 CA2         1.8850    0.2860    1.3110 c3        1 BL0      0.089100
      4 CA3         2.4310   -0.1510   -1.0240 cc        1 BL0      0.298300
      5 SA1         3.5660   -1.1430   -1.8310 ss        1 BL0      0.218200
      6 NA2         2.3770    1.1320   -1.5570 nd        1 BL0     -0.194000
      7 NA3         3.1860    1.2830   -2.5290 nd        1 BL0     -0.324000
      8 CA4         3.9260    0.1500   -2.8290 cc        1 BL0      0.289700
      9 CA5         4.9020    0.1950   -3.9390 c3        1 BL0     -0.361900
     10 SA2         4.9180    1.7480   -4.6760 s6        1 BL0      1.401900
     11 OA1         5.5700    2.6780   -3.9120 o         1 BL0     -0.507800
     12 NA4         6.2360    1.3930   -5.9800 n4        1 BL0     -0.811500
     13 OA2         3.8270    1.9540   -5.4750 o         1 BL0     -0.507800
     14 HA1        -0.1370    0.6350   -0.4460 hx        1 BL0      0.121367
     15 HA1A       -0.0690   -1.0480   -1.1780 hx        1 BL0      0.121367
     16 HA1B       -0.4650   -0.8350    0.6080 hx        1 BL0      0.121367
     17 HA2         1.2720   -0.1150    2.1650 hx        1 BL0      0.121367
     18 HA2A        2.9780    0.2160    1.5540 hx        1 BL0      0.121367
     19 HA2B        1.6070    1.3590    1.1180 hx        1 BL0      0.121367
     20 HA5         4.6350   -0.6240   -4.6730 h1        1 BL0      0.163700
     21 HA5A        5.9150   -0.0930   -3.5260 h1        1 BL0      0.163700
     22 HNA4        5.8560    1.5500   -6.9200 hn        1 BL0      0.475133
     23 HNAA        7.0270    2.0360   -5.8700 hn        1 BL0      0.475133
     24 HA11        1.7980   -1.5250    0.3180 hn        1 BL0      0.461800
     25 HA43        6.6160    0.4490   -5.9680 hn        1 BL0      0.475133
@<TRIPOS>BOND
     1    1    2 1   
     2    1   14 1   
     3    1   15 1   
     4    1   16 1   
     5    2    3 1   
     6    2    4 1   
     7    2   24 1   
     8    3   17 1   
     9    3   18 1   
    10    3   19 1   
    11    4    5 1   
    12    4    6 2   
    13    5    8 1   
    14    6    7 1   
    15    7    8 2   
    16    8    9 1   
    17    9   10 1   
    18    9   20 1   
    19    9   21 1   
    20   10   11 2   
    21   10   12 1   
    22   10   13 2   
    23   12   22 1   
    24   12   23 1   
    25   12   25 1   
@<TRIPOS>SUBSTRUCTURE
     1 BL0         1 TEMP              0 ****  ****    0 ROOT
