@<TRIPOS>MOLECULE
BL1
   40    31     1     0     0
SMALL
bcc


@<TRIPOS>ATOM
      1 OAW        -5.8580    2.8300    0.1470 o         1 BL1     -0.928000
      2 SAX        -5.4890    1.7960   -0.6990 ss        1 BL1      2.861000
      3 NAS        -6.2200    1.9300   -2.1240 n2        1 BL1     -0.952000
      4 OAV        -5.9660    0.6530    0.0380 o         1 BL1     -0.928000
      5 CAO        -3.7090    1.7190   -0.9180 c1        1 BL1     -0.807000
      6 CAM        -3.0050    0.6070   -0.4490 c1        1 BL1     -0.042500
      7 CAJ        -3.0170    2.7770   -1.5500 c1        1 BL1      0.061000
      8 CLAQ       -3.8950    4.1650   -2.1430 cl        1 BL1      0.005000
      9 CAC        -1.6110    2.7050   -1.7050 c1        1 BL1     -0.113250
     10 CAN        -0.8990    1.5560   -1.2190 c1        1 BL1     -0.113250
     11 CAL        -1.5820    0.5300   -0.6050 c1        1 BL1     -0.129500
     12 CAK        -0.8400   -0.7140   -0.1660 c1        1 BL1      0.343000
     13 OAU        -1.4830   -1.7130    0.2830 o         1 BL1     -0.294000
     14 NAR         0.5700   -0.7850   -0.3220 n2        1 BL1     -0.283000
     15 NAT         1.3760   -1.5280    0.6230 n3        1 BL1     -0.072000
     16 CAI         1.3730   -0.8660    1.9080 c3        1 BL1     -0.054000
     17 CAP         0.9150   -1.8780    3.0260 c3        1 BL1     -0.207000
     18 CAA         2.7460   -1.5830    0.1460 c1        1 BL1     -0.006000
     19 CAB         3.5660   -0.8760    1.0520 c1        1 BL1     -0.129500
     20 CAF         2.6980   -0.4220    2.1780 c2        1 BL1     -0.129000
     21 CAD         3.2980   -2.1490   -1.0350 c1        1 BL1     -0.115000
     22 CAH         4.6390   -2.0160   -1.3100 c1        1 BL1     -0.113250
     23 CAG         5.4710   -1.3220   -0.4310 c1        1 BL1     -0.113250
     24 CAE         4.9150   -0.7370    0.7830 c1        1 BL1     -0.042500
     25 H1AS       -6.6520    2.7410   -2.3500 hn        1 BL1      0.249000
     26 H2AS       -6.3660    1.1630   -2.6490 hn        1 BL1      0.249000
     27 HAM        -3.4330   -0.0400   -0.0610 ha        1 BL1      0.162500
     28 HAC        -1.1580    3.3890   -2.1140 ha        1 BL1      0.145500
     29 HAN         0.0770    1.4990   -1.3220 ha        1 BL1      0.145500
     30 HNAR        0.9610   -0.3950   -1.0330 hn        1 BL1      0.192000
     31 HAI         0.7120   -0.0350    1.8870 h1        1 BL1      0.080000
     32 H1AP       -0.0990   -2.1130    2.8900 hc        1 BL1      0.090333
     33 H2AP        1.4340   -2.6720    2.9690 hc        1 BL1      0.090333
     34 H3AP        1.0410   -1.4620    3.9230 hc        1 BL1      0.090333
     35 H1AF        2.7070    0.5330    2.2150 ha        1 BL1      0.103500
     36 H2AF        3.0200   -0.8430    3.0420 ha        1 BL1      0.103500
     37 HAD         2.7490   -2.6170   -1.6250 ha        1 BL1      0.146000
     38 HAH         4.9870   -2.3870   -2.0790 ha        1 BL1      0.145500
     39 HAG         6.4930   -1.2220   -0.6460 ha        1 BL1      0.145500
     40 HAE         5.5360   -0.2170    1.4470 ha        1 BL1      0.162500
@<TRIPOS>BOND
     1    1    2 1   
     2    2    4 1   
     3    3   25 1   
     4    3   26 1   
     5    5    7 1   
     6    6   11 1   
     7    6   27 1   
     8    7    8 1   
     9    9   10 1   
    10    9   28 1   
    11   10   29 1   
    12   12   13 1   
    13   14   15 1   
    14   14   30 1   
    15   15   16 1   
    16   15   18 1   
    17   16   17 1   
    18   16   20 1   
    19   16   31 1   
    20   17   32 1   
    21   17   33 1   
    22   17   34 1   
    23   18   21 1   
    24   19   24 1   
    25   20   35 1   
    26   20   36 1   
    27   21   37 1   
    28   22   23 1   
    29   22   38 1   
    30   23   39 1   
    31   24   40 1   
@<TRIPOS>SUBSTRUCTURE
     1 BL1         1 TEMP              0 ****  ****    0 ROOT
