@<TRIPOS>MOLECULE
BL1
   42    44     1     0     0
SMALL
bcc


@<TRIPOS>ATOM
      1 OAW         0.3260   -0.3140   -1.7350 o         1 BL1     -0.533800
      2 SAX         1.6560   -0.1260   -1.4570 sy        1 BL1      1.460200
      3 NAS         1.7370   -0.6390    0.3440 n4        1 BL1     -0.800500
      4 OAV         2.6520   -0.9010   -2.0100 o         1 BL1     -0.533800
      5 CAO         2.1220    1.4490   -1.3180 ca        1 BL1     -0.493500
      6 CAM         3.3040    1.8280   -1.9900 ca        1 BL1      0.068000
      7 CAJ         1.3910    2.4710   -0.6700 ca        1 BL1      0.166400
      8 CLAQ        0.0080    2.0960    0.2150 cl        1 BL1      0.024600
      9 CAC         1.8030    3.8080   -0.7320 ca        1 BL1     -0.127000
     10 CAN         2.9550    4.1570   -1.4290 ca        1 BL1      0.010000
     11 CAL         3.7150    3.1610   -2.0630 ca        1 BL1     -0.201600
     12 CAK         4.9860    3.4400   -2.7660 c         1 BL1      0.521700
     13 OAU         5.9390    2.6740   -2.8060 o         1 BL1     -0.390100
     14 NAR         5.1000    4.7710   -3.4840 n4        1 BL1     -0.448600
     15 NAT         5.6280    4.8750   -4.8130 nh        1 BL1     -0.312800
     16 CAI         7.1310    4.8010   -4.9790 c3        1 BL1      0.128500
     17 CAP         7.9850    4.9000   -3.7370 c3        1 BL1     -0.132100
     18 CAA         5.1060    3.8880   -5.7370 ca        1 BL1     -0.073400
     19 CAB         6.1370    3.1200   -6.3500 ca        1 BL1     -0.048300
     20 CAF         7.4640    3.5340   -5.8110 c3        1 BL1     -0.062100
     21 CAD         3.7740    3.7500   -6.1360 ca        1 BL1     -0.087000
     22 CAH         3.4830    2.8210   -7.1390 ca        1 BL1     -0.127000
     23 CAG         4.4910    2.0560   -7.7290 ca        1 BL1     -0.064000
     24 CAE         5.8290    2.2040   -7.3420 ca        1 BL1     -0.098000
     25 H1AS        2.4020   -1.4090    0.4680 hn        1 BL1      0.473467
     26 H2AS        0.8240   -0.9800    0.6630 hn        1 BL1      0.473467
     27 HAM         3.9290    1.0470   -2.4790 ha        1 BL1      0.206000
     28 HAC         1.2080    4.5930   -0.2230 ha        1 BL1      0.211000
     29 HAN         3.2610    5.2190   -1.4440 ha        1 BL1      0.170000
     30 HNAR        5.6840    5.3920   -2.8950 hn        1 BL1      0.470300
     31 HAI         7.3050    5.7200   -5.6250 h1        1 BL1      0.132700
     32 H1AP        9.0600    4.8950   -4.0580 hc        1 BL1      0.071367
     33 H2AP        7.8080    5.8550   -3.1840 hc        1 BL1      0.071367
     34 H3AP        7.8330    4.0300   -3.0520 hc        1 BL1      0.071367
     35 H1AF        7.9190    2.7320   -5.1760 hc        1 BL1      0.103700
     36 H2AF        8.1860    3.7890   -6.6280 hc        1 BL1      0.103700
     37 HAD         2.9750    4.3730   -5.7110 ha        1 BL1      0.139000
     38 HAH         2.4410    2.7090   -7.4840 ha        1 BL1      0.166000
     39 HAG         4.2340    1.3370   -8.5260 ha        1 BL1      0.172000
     40 HAE         6.6220    1.6140   -7.8310 ha        1 BL1      0.175000
     41 HAS3        2.0180    0.1060    0.9780 hn        1 BL1      0.473467
     42 HAR2        4.1540    5.1790   -3.5640 hn        1 BL1      0.470300
@<TRIPOS>BOND
     1    1    2 2   
     2    2    3 1   
     3    2    4 2   
     4    2    5 1   
     5    3   25 1   
     6    3   26 1   
     7    3   41 1   
     8    5    6 ar  
     9    5    7 ar  
    10    6   11 ar  
    11    6   27 1   
    12    7    8 1   
    13    7    9 ar  
    14    9   10 ar  
    15    9   28 1   
    16   10   11 ar  
    17   10   29 1   
    18   11   12 1   
    19   12   13 2   
    20   12   14 1   
    21   14   15 1   
    22   14   30 1   
    23   14   42 1   
    24   15   16 1   
    25   15   18 1   
    26   16   17 1   
    27   16   20 1   
    28   16   31 1   
    29   17   32 1   
    30   17   33 1   
    31   17   34 1   
    32   18   19 ar  
    33   18   21 ar  
    34   19   20 1   
    35   19   24 ar  
    36   20   35 1   
    37   20   36 1   
    38   21   22 ar  
    39   21   37 1   
    40   22   23 ar  
    41   22   38 1   
    42   23   24 ar  
    43   23   39 1   
    44   24   40 1   
@<TRIPOS>SUBSTRUCTURE
     1 BL1         1 TEMP              0 ****  ****    0 ROOT
