@<TRIPOS>MOLECULE
BL1
   42    44     1     0     0
SMALL
bcc


@<TRIPOS>ATOM
      1 OAW         0.3580   -0.3160   -1.6660 o         1 BL1     -0.533800
      2 SAX         1.6830   -0.1030   -1.3860 sy        1 BL1      1.460200
      3 NAS         1.7600   -0.5640    0.4290 n4        1 BL1     -0.800500
      4 OAV         2.6930   -0.8800   -1.9110 o         1 BL1     -0.533800
      5 CAO         2.1290    1.4810   -1.2890 ca        1 BL1     -0.493500
      6 CAM         3.3100    1.8560   -1.9660 ca        1 BL1      0.068000
      7 CAJ         1.3810    2.5120   -0.6750 ca        1 BL1      0.166400
      8 CLAQ       -0.0020    2.1450    0.2130 cl        1 BL1      0.024600
      9 CAC         1.7760    3.8520   -0.7730 ca        1 BL1     -0.127000
     10 CAN         2.9280    4.1960   -1.4730 ca        1 BL1      0.010000
     11 CAL         3.7030    3.1910   -2.0750 ca        1 BL1     -0.201600
     12 CAK         4.9760    3.4670   -2.7780 c         1 BL1      0.521700
     13 OAU         5.9390    2.7120   -2.7910 o         1 BL1     -0.390100
     14 NAR         5.0760    4.7780   -3.5340 n4        1 BL1     -0.448600
     15 NAT         5.6110    4.8510   -4.8630 nh        1 BL1     -0.312800
     16 CAI         7.1160    4.7920   -5.0190 c3        1 BL1      0.128500
     17 CAP         7.9610    4.9380   -3.7750 c3        1 BL1     -0.132100
     18 CAA         5.1070    3.8300   -5.7600 ca        1 BL1     -0.073400
     19 CAB         6.1510    3.0590   -6.3450 ca        1 BL1     -0.048300
     20 CAF         7.4690    3.5050   -5.8110 c3        1 BL1     -0.062100
     21 CAD         3.7790    3.6630   -6.1630 ca        1 BL1     -0.087000
     22 CAH         3.5060    2.7020   -7.1390 ca        1 BL1     -0.127000
     23 CAG         4.5270    1.9340   -7.7020 ca        1 BL1     -0.064000
     24 CAE         5.8610    2.1110   -7.3120 ca        1 BL1     -0.098000
     25 H1AS        2.4340   -1.3220    0.5790 hn        1 BL1      0.473467
     26 H2AS        0.8490   -0.9060    0.7520 hn        1 BL1      0.473467
     27 HAM         3.9470    1.0690   -2.4290 ha        1 BL1      0.206000
     28 HAC         1.1690    4.6430   -0.2900 ha        1 BL1      0.211000
     29 HAN         3.2200    5.2600   -1.5160 ha        1 BL1      0.170000
     30 HNAR        4.1250    5.1710   -3.6310 hn        1 BL1      0.470300
     31 HAI         7.2810    5.6930   -5.6900 h1        1 BL1      0.132700
     32 H1AP        7.8160    4.0870   -3.0660 hc        1 BL1      0.071367
     33 H2AP        9.0370    4.9380   -4.0900 hc        1 BL1      0.071367
     34 H3AP        7.7670    5.9060   -3.2510 hc        1 BL1      0.071367
     35 H1AF        8.1930    3.7470   -6.6310 hc        1 BL1      0.103700
     36 H2AF        7.9310    2.7280   -5.1500 hc        1 BL1      0.103700
     37 HAD         2.9690    4.2880   -5.7600 ha        1 BL1      0.139000
     38 HAH         2.4680    2.5670   -7.4870 ha        1 BL1      0.166000
     39 HAG         4.2850    1.1880   -8.4790 ha        1 BL1      0.172000
     40 HAE         6.6640    1.5170   -7.7790 ha        1 BL1      0.175000
     41 HAS3        2.0280    0.2020    1.0430 hn        1 BL1      0.473467
     42 HAR2        5.6480    5.4230   -2.9600 hn        1 BL1      0.470300
@<TRIPOS>BOND
     1    1    2 2   
     2    2    3 1   
     3    2    4 2   
     4    2    5 1   
     5    3   25 1   
     6    3   26 1   
     7    3   41 1   
     8    5    6 ar  
     9    5    7 ar  
    10    6   11 ar  
    11    6   27 1   
    12    7    8 1   
    13    7    9 ar  
    14    9   10 ar  
    15    9   28 1   
    16   10   11 ar  
    17   10   29 1   
    18   11   12 1   
    19   12   13 2   
    20   12   14 1   
    21   14   15 1   
    22   14   30 1   
    23   14   42 1   
    24   15   16 1   
    25   15   18 1   
    26   16   17 1   
    27   16   20 1   
    28   16   31 1   
    29   17   32 1   
    30   17   33 1   
    31   17   34 1   
    32   18   19 ar  
    33   18   21 ar  
    34   19   20 1   
    35   19   24 ar  
    36   20   35 1   
    37   20   36 1   
    38   21   22 ar  
    39   21   37 1   
    40   22   23 ar  
    41   22   38 1   
    42   23   24 ar  
    43   23   39 1   
    44   24   40 1   
@<TRIPOS>SUBSTRUCTURE
     1 BL1         1 TEMP              0 ****  ****    0 ROOT
