@<TRIPOS>MOLECULE
BL1
   40    42     1     0     0
SMALL
bcc


@<TRIPOS>ATOM
      1 OAW         4.0650    1.9790   -1.0700 o         1 BL1     -0.647800
      2 SAX         3.4780    1.6660    0.1690 sy        1 BL1      1.522200
      3 NAS         4.6000    1.2910    1.2370 n3        1 BL1     -1.025700
      4 OAV         2.6010    2.6260    0.7150 o         1 BL1     -0.647800
      5 CAO         2.5900    0.2060    0.0010 ca        1 BL1     -0.362500
      6 CAM         1.2210    0.2460    0.2960 ca        1 BL1      0.020000
      7 CAJ         3.1260   -1.0120   -0.4390 ca        1 BL1      0.139400
      8 CLAQ        4.7860   -1.1490   -0.7820 cl        1 BL1     -0.073400
      9 CAC         2.3260   -2.1470   -0.6030 ca        1 BL1     -0.160000
     10 CAN         0.9640   -2.0780   -0.3240 ca        1 BL1     -0.037000
     11 CAL         0.4080   -0.8770    0.1260 ca        1 BL1     -0.172600
     12 CAK        -1.0410   -0.7670    0.4720 c         1 BL1      0.632700
     13 OAU        -1.4130   -0.2100    1.5180 o         1 BL1     -0.556100
     14 NAR        -1.9270   -1.4080   -0.4240 n         1 BL1     -0.392300
     15 NAT        -3.2810   -1.2360   -0.4920 nh        1 BL1     -0.356000
     16 CAI        -4.1330   -1.9390    0.5400 c3        1 BL1      0.179500
     17 CAP        -3.4270   -2.6190    1.6940 c3        1 BL1     -0.106100
     18 CAA        -3.7930    0.1210   -0.5590 ca        1 BL1      0.049600
     19 CAB        -4.9270    0.3130    0.2770 ca        1 BL1     -0.094300
     20 CAF        -5.1850   -0.9220    1.0680 c3        1 BL1     -0.048100
     21 CAD        -3.3530    1.1430   -1.3970 ca        1 BL1     -0.127000
     22 CAH        -4.0570    2.3530   -1.3960 ca        1 BL1     -0.115000
     23 CAG        -5.1690    2.5390   -0.5790 ca        1 BL1     -0.136000
     24 CAE        -5.6130    1.5130    0.2660 ca        1 BL1     -0.101000
     25 H1AS        5.4890    0.9280    0.9980 hn        1 BL1      0.453800
     26 H2AS        4.4840    1.4070    2.2130 hn        1 BL1      0.453800
     27 HAM         0.7700    1.1860    0.6770 ha        1 BL1      0.191000
     28 HAC         2.7700   -3.0930   -0.9520 ha        1 BL1      0.159000
     29 HAN         0.3370   -2.9760   -0.4470 ha        1 BL1      0.155000
     30 HNAR       -1.5660   -1.5060   -1.3590 hn        1 BL1      0.314500
     31 HAI        -4.6590   -2.7240   -0.0780 h1        1 BL1      0.069700
     32 H1AP       -2.8380   -1.8850    2.2980 hc        1 BL1      0.050033
     33 H2AP       -4.1960   -3.0900    2.3550 hc        1 BL1      0.050033
     34 H3AP       -2.7390   -3.4190    1.3290 hc        1 BL1      0.050033
     35 H1AF       -6.2170   -1.3150    0.8970 hc        1 BL1      0.065700
     36 H2AF       -5.0530   -0.7340    2.1630 hc        1 BL1      0.065700
     37 HAD        -2.4790    1.0140   -2.0500 ha        1 BL1      0.133000
     38 HAH        -3.7190    3.1690   -2.0530 ha        1 BL1      0.135000
     39 HAG        -5.7040    3.4990   -0.5930 ha        1 BL1      0.134000
     40 HAE        -6.4900    1.6650    0.9110 ha        1 BL1      0.136000
@<TRIPOS>BOND
     1    1    2 2   
     2    2    3 1   
     3    2    4 2   
     4    2    5 1   
     5    3   25 1   
     6    3   26 1   
     7    5    6 ar  
     8    5    7 ar  
     9    6   11 ar  
    10    6   27 1   
    11    7    8 1   
    12    7    9 ar  
    13    9   10 ar  
    14    9   28 1   
    15   10   11 ar  
    16   10   29 1   
    17   11   12 1   
    18   12   13 2   
    19   12   14 1   
    20   14   15 1   
    21   14   30 1   
    22   15   16 1   
    23   15   18 1   
    24   16   17 1   
    25   16   20 1   
    26   16   31 1   
    27   17   32 1   
    28   17   33 1   
    29   17   34 1   
    30   18   19 ar  
    31   18   21 ar  
    32   19   20 1   
    33   19   24 ar  
    34   20   35 1   
    35   20   36 1   
    36   21   22 ar  
    37   21   37 1   
    38   22   23 ar  
    39   22   38 1   
    40   23   24 ar  
    41   23   39 1   
    42   24   40 1   
@<TRIPOS>SUBSTRUCTURE
     1 BL1         1 TEMP              0 ****  ****    0 ROOT
