@<TRIPOS>MOLECULE
BL1
   42    44     1     0     0
SMALL
bcc


@<TRIPOS>ATOM
      1 OAW         0.3450   -0.3140   -1.6920 o         1 BL1     -0.533800
      2 SAX         1.6710   -0.1060   -1.4080 sy        1 BL1      1.460200
      3 NAS         1.7420   -0.5770    0.4050 nz        1 BL1     -0.800500
      4 OAV         2.6790   -0.8840   -1.9350 o         1 BL1     -0.533800
      5 CAO         2.1210    1.4760   -1.3020 ca        1 BL1     -0.493500
      6 CAM         3.3040    1.8510   -1.9740 ca        1 BL1      0.068000
      7 CAJ         1.3740    2.5050   -0.6830 ca        1 BL1      0.166400
      8 ClAQ       -0.0120    2.1380    0.1990 cl        1 BL1      0.024600
      9 CAC         1.7740    3.8450   -0.7730 ca        1 BL1     -0.127000
     10 CAN         2.9280    4.1890   -1.4690 ca        1 BL1      0.010000
     11 CAL         3.7020    3.1860   -2.0750 ca        1 BL1     -0.201600
     12 CAK         4.9760    3.4620   -2.7730 c         1 BL1      0.521700
     13 OAU         5.9380    2.7050   -2.7880 o         1 BL1     -0.390100
     14 NAR         5.0820    4.7760   -3.5220 ny        1 BL1     -0.448600
     15 NAT         5.6190    4.8540   -4.8500 nh        1 BL1     -0.312800
     16 CAI         7.1240    4.7920   -5.0040 c3        1 BL1      0.128500
     17 CAP         7.9680    4.9290   -3.7590 c3        1 BL1     -0.132100
     18 CAA         5.1130    3.8400   -5.7530 ca        1 BL1     -0.073400
     19 CAB         6.1560    3.0680   -6.3410 ca        1 BL1     -0.048300
     20 CAF         7.4740    3.5070   -5.8030 c3        1 BL1     -0.062100
     21 CAD         3.7860    3.6790   -6.1590 ca        1 BL1     -0.087000
     22 CAH         3.5100    2.7240   -7.1400 ca        1 BL1     -0.127000
     23 CAG         4.5300    1.9550   -7.7050 ca        1 BL1     -0.064000
     24 CAE         5.8640    2.1260   -7.3130 ca        1 BL1     -0.098000
     25 H1AS        0.8300   -0.9190    0.7240 hn        1 BL1      0.473467
     26 H2AS        2.0110    0.1850    1.0240 hn        1 BL1      0.473467
     27 HAM         3.9410    1.0650   -2.4400 ha        1 BL1      0.206000
     28 HAC         1.1680    4.6360   -0.2870 ha        1 BL1      0.211000
     29 HAN         3.2240    5.2530   -1.5060 ha        1 BL1      0.170000
     30 HNAR        4.1330    5.1730   -3.6180 hn        1 BL1      0.470300
     31 HAI         7.2930    5.6960   -5.6700 h1        1 BL1      0.132700
     32 H1AP        7.7770    5.8950   -3.2310 hc        1 BL1      0.071367
     33 H2AP        9.0450    4.9260   -4.0720 hc        1 BL1      0.071367
     34 H3AP        7.8200    4.0740   -3.0540 hc        1 BL1      0.071367
     35 H1AF        7.9330    2.7250   -5.1450 hc        1 BL1      0.103700
     36 H2AF        8.2000    3.7510   -6.6210 hc        1 BL1      0.103700
     37 HAD         2.9770    4.3050   -5.7540 ha        1 BL1      0.139000
     38 HAH         2.4720    2.5940   -7.4900 ha        1 BL1      0.166000
     39 HAG         4.2860    1.2140   -8.4870 ha        1 BL1      0.172000
     40 HAE         6.6650    1.5320   -7.7810 ha        1 BL1      0.175000
     41 HAS3        2.4130   -1.3380    0.5520 hn        1 BL1      0.473467
     42 HAR2        5.6560    5.4170   -2.9440 hn        1 BL1      0.470300
@<TRIPOS>BOND
     1    1    2 2   
     2    2    3 1   
     3    2    4 2   
     4    2    5 1   
     5    3   25 1   
     6    3   26 1   
     7    3   41 1   
     8    5    6 ar  
     9    5    7 ar  
    10    6   11 ar  
    11    6   27 1   
    12    7    8 1   
    13    7    9 ar  
    14    9   10 ar  
    15    9   28 1   
    16   10   11 ar  
    17   10   29 1   
    18   11   12 1   
    19   12   13 2   
    20   12   14 1   
    21   14   15 1   
    22   14   30 1   
    23   14   42 1   
    24   15   16 1   
    25   15   18 1   
    26   16   17 1   
    27   16   20 1   
    28   16   31 1   
    29   17   32 1   
    30   17   33 1   
    31   17   34 1   
    32   18   19 ar  
    33   18   21 ar  
    34   19   20 1   
    35   19   24 ar  
    36   20   35 1   
    37   20   36 1   
    38   21   22 ar  
    39   21   37 1   
    40   22   23 ar  
    41   22   38 1   
    42   23   24 ar  
    43   23   39 1   
    44   24   40 1   
@<TRIPOS>SUBSTRUCTURE
     1 BL1         1 TEMP              0 ****  ****    0 ROOT
