@<TRIPOS>MOLECULE
BL2
   36    33     1     0     0
SMALL
bcc


@<TRIPOS>ATOM
      1 O1         -1.3090   -0.1520    1.2370 o         1 BL2     -0.440000
      2 CX         -0.1080   -0.3330    1.2510 c1        1 BL2      0.382000
      3 O2          0.5680   -0.4710    2.4770 o         1 BL2     -0.300000
      4 CT         -0.0900    0.1350    3.5610 c3        1 BL2      0.117000
      5 C1          0.6080   -0.2440    4.8500 c3        1 BL2     -0.228333
      6 C2         -0.0590    1.6380    3.3940 c3        1 BL2     -0.228333
      7 C3         -1.5270   -0.3380    3.6080 c3        1 BL2     -0.228333
      8 N           0.6140   -0.4060    0.0300 n3        1 BL2     -0.288000
      9 CA         -0.0840   -0.4420   -1.2060 c3        1 BL2     -0.083000
     10 C          -0.5710   -1.8480   -1.4690 c1        1 BL2      0.327000
     11 O          -1.7620   -2.0460   -1.8240 o         1 BL2     -0.555000
     12 CB          0.8430   -0.0120   -2.3220 c3        1 BL2     -0.131000
     13 CG          0.0510    0.1510   -3.6020 c3        1 BL2     -0.127000
     14 CD1         0.1020    1.5970   -4.0460 c3        1 BL2     -0.198500
     15 CD2         0.6480   -0.7290   -4.6790 c3        1 BL2     -0.198500
     16 OXT         0.2060   -2.8250   -1.3000 os        1 BL2     -0.570000
     17 H1          0.1720    0.2080    5.6020 hc        1 BL2      0.083000
     18 H2          1.5480    0.0300    4.8050 hc        1 BL2      0.083000
     19 H3          0.5560   -1.2140    4.9770 hc        1 BL2      0.083000
     20 H4         -0.8110    1.9200    2.8320 hc        1 BL2      0.083000
     21 H5          0.7840    1.9020    2.9690 hc        1 BL2      0.083000
     22 H6         -0.1300    2.0660    4.2730 hc        1 BL2      0.083000
     23 H7         -1.5790   -1.2580    3.2710 hc        1 BL2      0.083000
     24 H8         -1.8500   -0.3100    4.5330 hc        1 BL2      0.083000
     25 H9         -2.0810    0.2460    3.0500 hc        1 BL2      0.083000
     26 H10         1.5250   -0.4390    0.0400 hn        1 BL2      0.246000
     27 H11        -0.8490    0.1660   -1.1660 h1        1 BL2      0.106000
     28 H12         1.5350   -0.6910   -2.4500 hc        1 BL2      0.070500
     29 H13         1.2620    0.8400   -2.0870 hc        1 BL2      0.070500
     30 H14        -0.8770   -0.1090   -3.4460 hc        1 BL2      0.150000
     31 H15        -0.3140    2.1630   -3.3630 hc        1 BL2      0.059833
     32 H16        -0.3840    1.6960   -4.8920 hc        1 BL2      0.059833
     33 H17         1.0350    1.8680   -4.1720 hc        1 BL2      0.059833
     34 H18         1.5410   -0.3990   -4.9140 hc        1 BL2      0.059833
     35 H19         0.0730   -0.7090   -5.4730 hc        1 BL2      0.059833
     36 H20         0.7160   -1.6490   -4.3490 hc        1 BL2      0.059833
@<TRIPOS>BOND
     1    1    2 1   
     2    2    8 1   
     3    3    4 1   
     4    4    5 1   
     5    4    6 1   
     6    4    7 1   
     7    5   17 1   
     8    5   18 1   
     9    5   19 1   
    10    6   20 1   
    11    6   21 1   
    12    6   22 1   
    13    7   23 1   
    14    7   24 1   
    15    7   25 1   
    16    8    9 1   
    17    8   26 1   
    18    9   10 1   
    19    9   12 1   
    20    9   27 1   
    21   10   11 1   
    22   12   13 1   
    23   12   28 1   
    24   12   29 1   
    25   13   14 1   
    26   13   15 1   
    27   13   30 1   
    28   14   31 1   
    29   14   32 1   
    30   14   33 1   
    31   15   34 1   
    32   15   35 1   
    33   15   36 1   
@<TRIPOS>SUBSTRUCTURE
     1 BL2         1 TEMP              0 ****  ****    0 ROOT
