@<TRIPOS>MOLECULE
BL2
   36    35     1     0     0
SMALL
bcc


@<TRIPOS>ATOM
      1 O1         -0.7610   -0.2920    1.1980 o         1 BL2     -0.632000
      2 CX         -0.8080   -0.0510   -0.0250 c         1 BL2      0.726100
      3 O2         -2.0450   -0.0520   -0.6580 os        1 BL2     -0.459900
      4 CT         -3.2230   -0.4320    0.0770 c3        1 BL2      0.188800
      5 C1         -3.5090    0.5550    1.1980 c3        1 BL2     -0.110433
      6 C2         -4.3290   -0.3560   -0.9780 c3        1 BL2     -0.110433
      7 C3         -3.1100   -1.8540    0.6070 c3        1 BL2     -0.110433
      8 N           0.2250    0.1280   -0.9180 n         1 BL2     -0.470900
      9 CA          1.5010    0.6440   -0.4350 c3        1 BL2     -0.063300
     10 C           1.9100    1.9830   -1.1590 c         1 BL2      0.907600
     11 O           1.2710    2.3270   -2.1920 o         1 BL2     -0.827300
     12 CB          2.6500   -0.3460   -0.6410 c3        1 BL2     -0.060400
     13 CG          2.5130   -1.6550    0.1210 c3        1 BL2     -0.067700
     14 CD1         3.6850   -2.5600   -0.2050 c3        1 BL2     -0.089600
     15 CD2         2.4240   -1.4290    1.6150 c3        1 BL2     -0.089600
     16 OXT         2.8640    2.6210   -0.6420 o         1 BL2     -0.827300
     17 H1         -3.4940    1.5970    0.7990 hc        1 BL2      0.043811
     18 H2         -4.5130    0.3440    1.6350 hc        1 BL2      0.043811
     19 H3         -2.7340    0.4680    1.9980 hc        1 BL2      0.043811
     20 H4         -4.3850    0.6760   -1.3970 hc        1 BL2      0.043811
     21 H5         -4.1140   -1.0670   -1.8100 hc        1 BL2      0.043811
     22 H6         -5.3050   -0.6190   -0.5070 hc        1 BL2      0.043811
     23 H7         -4.0950   -2.1800    1.0160 hc        1 BL2      0.043811
     24 H8         -2.8090   -2.5440   -0.2170 hc        1 BL2      0.043811
     25 H9         -2.3410   -1.9040    1.4160 hc        1 BL2      0.043811
     26 H10        -0.0360    0.5240   -1.8060 hn        1 BL2      0.330500
     27 H11         1.4190    0.8730    0.6670 h1        1 BL2      0.065700
     28 H12         2.7540   -0.5730   -1.7350 hc        1 BL2      0.050200
     29 H13         3.5830    0.1870   -0.3140 hc        1 BL2      0.050200
     30 H14         1.5680   -2.1700   -0.2130 hc        1 BL2      0.046700
     31 H15         4.6440   -2.0890    0.1210 hc        1 BL2      0.026533
     32 H16         3.5780   -3.5420    0.3160 hc        1 BL2      0.026533
     33 H17         3.7400   -2.7460   -1.3040 hc        1 BL2      0.026533
     34 H18         3.2590   -0.7760    1.9650 hc        1 BL2      0.026533
     35 H19         1.4510   -0.9360    1.8700 hc        1 BL2      0.026533
     36 H20         2.4810   -2.4020    2.1610 hc        1 BL2      0.026533
@<TRIPOS>BOND
     1    1    2 2   
     2    2    3 1   
     3    2    8 1   
     4    3    4 1   
     5    4    5 1   
     6    4    6 1   
     7    4    7 1   
     8    5   17 1   
     9    5   18 1   
    10    5   19 1   
    11    6   20 1   
    12    6   21 1   
    13    6   22 1   
    14    7   23 1   
    15    7   24 1   
    16    7   25 1   
    17    8    9 1   
    18    8   26 1   
    19    9   10 1   
    20    9   12 1   
    21    9   27 1   
    22   10   11 1   
    23   10   16 1   
    24   12   13 1   
    25   12   28 1   
    26   12   29 1   
    27   13   14 1   
    28   13   15 1   
    29   13   30 1   
    30   14   31 1   
    31   14   32 1   
    32   14   33 1   
    33   15   34 1   
    34   15   35 1   
    35   15   36 1   
@<TRIPOS>SUBSTRUCTURE
     1 BL2         1 TEMP              0 ****  ****    0 ROOT
