@<TRIPOS>MOLECULE
BL3
   75    66     1     0     0
SMALL
bcc


@<TRIPOS>ATOM
      1 NA          0.0700   -0.3720    1.8870 n2        1 BL3     -0.145000
      2 NB         -0.5980   -1.1110    5.8660 n3        1 BL3     -0.319000
      3 OB         -0.7180   -1.8130    8.2560 o         1 BL3     -0.353000
      4 NC         -1.4010   -2.2140   -4.6350 n         1 BL3     -0.320000
      5 OC         -2.7500   -3.6670   -6.1510 o         1 BL3     -0.349000
      6 ND          0.4570   -0.1680   -1.6610 n1        1 BL3     -0.174000
      7 C1A         1.0300    0.4450    1.3520 c1        1 BL3     -0.080500
      8 O1A         4.0960    5.0340    1.5400 o         1 BL3     -0.587500
      9 C1B        -1.7890   -0.5920    5.0050 c2        1 BL3      0.015000
     10 C1C        -2.5540   -2.5740   -5.6460 c2        1 BL3      0.331000
     11 C1D         0.6050   -0.4650   -3.0710 c1        1 BL3     -0.017000
     12 O1D         6.7250   -2.1250   -3.0620 o         1 BL3     -0.587000
     13 C2A         1.1880    1.5270    2.1950 c1        1 BL3     -0.079000
     14 O2A         2.7920    5.5920    3.1960 o         1 BL3     -0.587500
     15 C2B        -2.9570   -0.8610    5.8070 c2        1 BL3     -0.018000
     16 C2C        -2.9200   -1.2900   -6.2170 c2        1 BL3     -0.144000
     17 C2D         2.0010   -0.5770   -3.3930 c1        1 BL3     -0.168000
     18 O2D         7.4120   -0.6990   -1.5620 o         1 BL3     -0.587000
     19 C3A         0.3270    1.3730    3.2430 c1        1 BL3     -0.079000
     20 C3B        -2.6790   -1.4370    6.9720 c1        1 BL3     -0.150000
     21 C3C        -2.2120   -0.2710   -5.7360 c1        1 BL3     -0.018000
     22 C3D         2.7800   -0.3540   -2.2090 c1        1 BL3     -0.021000
     23 C4A        -0.3670    0.1960    3.0550 c1        1 BL3     -0.080500
     24 C4B        -1.2670   -1.6710    7.1810 c1        1 BL3      0.330000
     25 C4C        -1.2350   -0.6620   -4.7550 c1        1 BL3      0.023000
     26 C4D         1.8300   -0.0730   -1.0060 c1        1 BL3     -0.127000
     27 CAA         2.3250    2.5060    2.4610 c2        1 BL3     -0.106000
     28 CAB        -4.2850   -1.1090    5.1440 c2        1 BL3     -0.107000
     29 CAC        -1.9780    0.9580   -6.5880 c2        1 BL3     -0.107000
     30 CAD         4.0780   -1.1280   -1.9930 c3        1 BL3     -0.119000
     31 CBA         2.0330    3.8190    1.7640 c3        1 BL3     -0.221000
     32 CBB        -5.2970   -0.2610    5.3410 c1        1 BL3     -0.211000
     33 CBC        -2.8540    1.9840   -6.5450 c1        1 BL3     -0.211000
     34 CBD         5.2420   -0.3190   -2.5240 c3        1 BL3     -0.220000
     35 CGA         3.0390    4.8590    2.2050 c2        1 BL3      0.325000
     36 CGD         6.5200   -1.1060   -2.3590 c2        1 BL3      0.324000
     37 CHA         2.1510    0.1950    0.3210 c1        1 BL3      0.041000
     38 CHB        -1.7380   -0.0090    3.7620 c1        1 BL3     -0.082000
     39 CHD        -0.3620    0.1400   -4.0810 c2        1 BL3     -0.082000
     40 CMA        -0.0520    2.3190    4.3470 c2        1 BL3     -0.192000
     41 CMB        -3.7080   -2.3420    7.6370 c3        1 BL3     -0.159000
     42 CMC        -3.4970   -1.2200   -7.6270 c3        1 BL3     -0.161000
     43 CMD         2.4600   -1.5890   -4.4210 c3        1 BL3     -0.180000
     44 HNA        -0.2220   -1.1480    1.5330 DU        1 BL3      0.161333
     45 HNB         0.2940   -1.0950    5.6550 hn        1 BL3      0.274000
     46 HNC        -0.9330   -2.7850   -4.0970 hn        1 BL3      0.272000
     47 HAA         3.1640    2.1340    2.1190 ha        1 BL3      0.094500
     48 HAAA        2.4050    2.6600    3.4290 ha        1 BL3      0.094500
     49 HAB        -4.4210   -1.9070    4.6190 ha        1 BL3      0.133000
     50 HAC        -1.2180    0.9910   -7.1970 ha        1 BL3      0.135000
     51 HAD         4.0310   -1.9840   -2.4690 hc        1 BL3      0.100500
     52 HADA        4.2040   -1.2920   -1.0420 hc        1 BL3      0.100500
     53 HBA         1.1290    4.1200    1.9970 hc        1 BL3      0.072500
     54 HBAA        2.0960    3.6950    0.7900 hc        1 BL3      0.072500
     55 HBB        -6.1610   -0.4220    4.9110 DU        1 BL3      0.161333
     56 HBBA       -5.1830    0.5060    5.9350 ha        1 BL3      0.114000
     57 HBC        -2.7030    2.7770   -7.0950 DU        1 BL3      0.161333
     58 HBCA       -3.6260    1.9480   -5.9350 ha        1 BL3      0.113000
     59 HBD         5.3090    0.5160   -2.0290 hc        1 BL3      0.073000
     60 HBDA        5.0980   -0.1250   -3.4720 hc        1 BL3      0.073000
     61 HHA         3.0830    0.2250    0.5990 ha        1 BL3      0.162000
     62 HHB        -2.5700    0.2790    3.3180 ha        1 BL3      0.132000
     63 HHD        -0.3560    1.1000   -4.2460 ha        1 BL3      0.144000
     64 HMA         0.7620    2.6980    4.7470 ha        1 BL3      0.101667
     65 HMAA       -0.6030    3.0410    3.9820 ha        1 BL3      0.101667
     66 HMAB       -0.5560    1.8380    5.0290 ha        1 BL3      0.101667
     67 HMB        -3.6880   -3.2220    7.2170 hc        1 BL3      0.087000
     68 HMBA       -3.4980   -2.4310    8.5890 hc        1 BL3      0.087000
     69 HMBB       -4.6000   -1.9520    7.5350 hc        1 BL3      0.087000
     70 HMC        -3.9390   -0.3590   -7.7560 hc        1 BL3      0.088000
     71 HMCA       -2.7760   -1.3170   -8.2790 hc        1 BL3      0.088000
     72 HMCB       -4.1430   -1.9380   -7.7490 hc        1 BL3      0.088000
     73 HMD         2.5270   -2.4730   -4.0010 hc        1 BL3      0.095000
     74 HMDA        3.3390   -1.3250   -4.7700 hc        1 BL3      0.095000
     75 HMDB        1.8110   -1.6240   -5.1580 hc        1 BL3      0.095000
@<TRIPOS>BOND
     1    1    7 1   
     2    1   23 1   
     3    2    9 1   
     4    2   24 1   
     5    2   45 1   
     6    3   24 1   
     7    4   10 1   
     8    4   25 1   
     9    4   46 1   
    10    5   10 1   
    11    6   11 1   
    12    7   13 1   
    13    8   35 1   
    14    9   15 1   
    15    9   38 1   
    16   10   16 1   
    17   11   39 1   
    18   12   36 1   
    19   13   19 1   
    20   14   35 1   
    21   15   20 1   
    22   15   28 1   
    23   16   21 1   
    24   16   42 1   
    25   17   22 1   
    26   17   43 1   
    27   18   36 1   
    28   19   23 1   
    29   20   41 1   
    30   21   29 1   
    31   22   30 1   
    32   25   39 1   
    33   26   37 1   
    34   27   31 1   
    35   27   47 1   
    36   27   48 1   
    37   28   32 1   
    38   28   49 1   
    39   29   33 1   
    40   29   50 1   
    41   30   34 1   
    42   30   51 1   
    43   30   52 1   
    44   31   35 1   
    45   31   53 1   
    46   31   54 1   
    47   32   56 1   
    48   33   58 1   
    49   34   36 1   
    50   34   59 1   
    51   34   60 1   
    52   37   61 1   
    53   38   62 1   
    54   39   63 1   
    55   40   64 1   
    56   40   65 1   
    57   40   66 1   
    58   41   67 1   
    59   41   68 1   
    60   41   69 1   
    61   42   70 1   
    62   42   71 1   
    63   42   72 1   
    64   43   73 1   
    65   43   74 1   
    66   43   75 1   
@<TRIPOS>SUBSTRUCTURE
     1 BL3         1 TEMP              0 ****  ****    0 ROOT
