@<TRIPOS>MOLECULE
BL3
   75    78     1     0     0
SMALL
bcc


@<TRIPOS>ATOM
      1 NA         -0.0040    0.0680    0.1720 na        1 BL3     -0.149100
      2 NB         -2.8760   -1.1890    0.1640 n         1 BL3     -0.473100
      3 OB         -4.5390   -2.3730   -0.9990 o         1 BL3     -0.628500
      4 NC         -2.4850    1.8100   -3.1850 n         1 BL3     -0.476100
      5 ND          0.2720    0.5390   -2.7360 nc        1 BL3     -0.625300
      6 C1A         1.3920    0.1280    0.0900 cc        1 BL3     -0.111100
      7 O1A         5.2360    1.7450    4.4630 o         1 BL3     -0.853300
      8 C1B        -2.8100   -0.5290    1.4230 cc        1 BL3     -0.020400
      9 C1C        -3.7990    2.2980   -3.1860 c         1 BL3      0.693700
     10 C1D         0.2100    0.5850   -4.0670 cd        1 BL3      0.464900
     11 C2A         1.9170    0.0970    1.4170 cd        1 BL3     -0.059300
     12 O2A         4.0090   -0.1100    4.5980 o         1 BL3     -0.853300
     13 C2B        -4.2000   -0.5000    1.9710 cc        1 BL3     -0.005000
     14 C2C        -4.3260    2.1260   -4.5920 cd        1 BL3     -0.168400
     15 C2D         1.5440    0.3670   -4.6920 cd        1 BL3     -0.247800
     16 C3A         0.8020    0.0500    2.3090 cd        1 BL3     -0.093300
     17 C3B        -5.0240   -1.1600    1.0990 cd        1 BL3     -0.179400
     18 C3C        -3.3350    1.5670   -5.3510 cc        1 BL3     -0.022000
     19 C3D         2.4390    0.2140   -3.6570 cc        1 BL3     -0.032200
     20 C4A        -0.3780    0.0420    1.5130 cc        1 BL3     -0.128100
     21 C4B        -4.1840   -1.6700   -0.0430 c         1 BL3      0.689700
     22 C4C        -2.1380    1.3430   -4.4740 cc        1 BL3      0.045600
     23 C4D         1.6430    0.3020   -2.3930 cc        1 BL3      0.030600
     24 CAA         3.3290    0.0820    1.8360 c3        1 BL3     -0.022100
     25 CAB        -4.5170    0.1360    3.2230 ce        1 BL3     -0.110000
     26 CBA         3.7250    1.3020    2.6490 c3        1 BL3     -0.192400
     27 CBB        -5.7290    0.5840    3.5660 c2        1 BL3     -0.207000
     28 CBC        -4.4220    1.0170   -7.4890 c2        1 BL3     -0.210000
     29 CGA         4.3770    0.9440    3.9960 c         1 BL3      0.904600
     30 CGD         5.4120    0.5420   -5.7240 c         1 BL3      0.904600
     31 CHA         2.1340    0.1620   -1.1350 cf        1 BL3      0.038800
     32 CHB        -1.7190    0.0050    2.0160 ce        1 BL3     -0.050200
     33 CMA         0.8500   -0.0080    3.7700 c3        1 BL3     -0.064800
     34 CMB        -6.4620   -1.4140    1.1450 c3        1 BL3     -0.034900
     35 CMD         1.7960    0.3210   -6.1320 c3        1 BL3     -0.060900
     36 HNA        -0.6210    0.2200   -0.5870 hn        1 BL3      0.314700
     37 HNB        -2.0790   -1.5880   -0.2660 hn        1 BL3      0.339500
     38 HNC        -1.8910    1.7560   -2.3970 hn        1 BL3      0.364500
     39 HAA         3.4960   -0.8350    2.4750 hc        1 BL3      0.057700
     40 HAAA        3.9970   -0.0080    0.9390 hc        1 BL3      0.057700
     41 HAB        -3.6680    0.2450    3.9240 ha        1 BL3      0.134000
     42 HAC        -2.3260    1.1660   -7.2140 ha        1 BL3      0.138000
     43 HAD         4.3290   -0.1910   -2.7440 hc        1 BL3      0.059700
     44 HADA        4.0260   -1.0060   -4.3380 hc        1 BL3      0.059700
     45 HBA         2.8250    1.9260    2.8820 hc        1 BL3      0.033200
     46 HBAA        4.4350    1.9370    2.0630 hc        1 BL3      0.033200
     47 HBB        -5.9130    1.0610    4.5370 ha        1 BL3      0.112000
     48 HBBA       -6.5990    0.5220    2.9000 ha        1 BL3      0.112000
     49 HBC        -4.3570    0.7690   -8.5560 ha        1 BL3      0.111500
     50 HBCA       -5.4390    1.0540   -7.0770 ha        1 BL3      0.111500
     51 HBD         5.3620    1.5480   -3.8000 hc        1 BL3      0.034200
     52 HBDA        3.9320    1.8400   -4.8640 hc        1 BL3      0.034200
     53 HHA         3.2290    0.0470   -1.0080 ha        1 BL3      0.162000
     54 HHB        -1.8210    0.4470    3.0250 ha        1 BL3      0.149000
     55 HHD        -0.8420    0.5130   -5.9330 ha        1 BL3      0.148000
     56 HMA         1.9190   -0.0720    4.1290 hc        1 BL3      0.060367
     57 HMAA        0.3820    0.9080    4.2120 hc        1 BL3      0.060367
     58 HMAB        0.2910   -0.9010    4.1490 hc        1 BL3      0.060367
     59 HMB        -7.0280   -0.5060    0.8100 hc        1 BL3      0.046700
     60 HMBA       -6.7270   -2.2610    0.4630 hc        1 BL3      0.046700
     61 HMBB       -6.7910   -1.6660    2.1850 hc        1 BL3      0.046700
     62 HMC        -6.3630    1.6530   -4.9840 hc        1 BL3      0.048367
     63 HMCA       -5.7010    3.0480   -5.9380 hc        1 BL3      0.048367
     64 HMCB       -6.0800    3.2480   -4.1650 hc        1 BL3      0.048367
     65 HMD         1.5790    1.3140   -6.6010 hc        1 BL3      0.056033
     66 HMDA        2.8760    0.0580   -6.3310 hc        1 BL3      0.056033
     67 HMDB        1.1450   -0.4460   -6.6220 hc        1 BL3      0.056033
     68 CAD         3.8850   -0.0420   -3.7630 c3        1 BL3     -0.033200
     69 CAC        -3.3290    1.2360   -6.7520 ce        1 BL3     -0.108000
     70 OC         -4.3850    2.7880   -2.2100 o         1 BL3     -0.626500
     71 CBD         4.6390    1.0540   -4.4960 c3        1 BL3     -0.191400
     72 CHD        -0.9640    0.8080   -4.8760 cf        1 BL3     -0.190600
     73 CMC        -5.6820    2.5430   -4.9390 c3        1 BL3     -0.037900
     74 O1D         4.9780   -0.4710   -6.3510 o         1 BL3     -0.853300
     75 O2D         6.4420    1.1850   -6.0760 o         1 BL3     -0.853300
@<TRIPOS>BOND
     1    1    6 1   
     2    1   20 1   
     3    1   36 1   
     4    2    8 1   
     5    2   21 1   
     6    2   37 1   
     7    3   21 2   
     8    4    9 1   
     9    4   22 1   
    10    4   38 1   
    11    5   10 2   
    12    5   23 1   
    13    6   11 2   
    14    6   31 1   
    15    7   29 1   
    16    8   13 1   
    17    8   32 2   
    18    9   14 1   
    19    9   70 2   
    20   10   15 1   
    21   10   72 1   
    22   11   16 1   
    23   11   24 1   
    24   12   29 1   
    25   13   17 2   
    26   13   25 1   
    27   14   18 2   
    28   14   73 1   
    29   15   19 2   
    30   15   35 1   
    31   16   20 2   
    32   16   33 1   
    33   17   21 1   
    34   17   34 1   
    35   18   22 1   
    36   18   69 1   
    37   19   23 1   
    38   19   68 1   
    39   20   32 1   
    40   22   72 2   
    41   23   31 2   
    42   24   26 1   
    43   24   39 1   
    44   24   40 1   
    45   25   27 2   
    46   25   41 1   
    47   26   29 1   
    48   26   45 1   
    49   26   46 1   
    50   27   47 1   
    51   27   48 1   
    52   28   49 1   
    53   28   50 1   
    54   28   69 2   
    55   30   71 1   
    56   30   74 1   
    57   30   75 1   
    58   31   53 1   
    59   32   54 1   
    60   33   56 1   
    61   33   57 1   
    62   33   58 1   
    63   34   59 1   
    64   34   60 1   
    65   34   61 1   
    66   35   65 1   
    67   35   66 1   
    68   35   67 1   
    69   42   69 1   
    70   43   68 1   
    71   44   68 1   
    72   51   71 1   
    73   52   71 1   
    74   55   72 1   
    75   62   73 1   
    76   63   73 1   
    77   64   73 1   
    78   68   71 1   
@<TRIPOS>SUBSTRUCTURE
     1 BL3         1 TEMP              0 ****  ****    0 ROOT
