@<TRIPOS>MOLECULE
BL3
   75   106     1     0     0
SMALL
bcc


@<TRIPOS>ATOM
      1 NA          0.0000    0.0000    0.0000 n7        1 BL3      0.040000
      2 NB         -2.5980   -0.9210   -0.4070 n7        1 BL3     -0.065000
      3 OB         -3.9870   -1.6420   -2.0550 o         1 BL3     -0.453000
      4 NC         -2.2220    1.4170   -2.5670 n7        1 BL3     -0.288000
      5 ND          0.3590    0.4490   -2.6700 n2        1 BL3     -0.086000
      6 C1A         1.3780    0.0000    0.0000 c3        1 BL3     -0.225000
      7 O1A         5.7940    2.6030    2.6450 o         1 BL3     -0.500000
      8 C1B        -2.7680   -0.3790    0.8580 c2        1 BL3     -0.075000
      9 C1C        -3.4770    1.7450   -2.2180 c3        1 BL3      0.194000
     10 C1D         0.1820    0.5190   -3.9860 c2        1 BL3     -0.301000
     11 C2A         1.8090    0.0000    1.3310 c3        1 BL3     -0.403000
     12 O2A         5.7290    0.3950    2.6250 o         1 BL3     -0.500000
     13 C2B        -4.2200   -0.2910    1.0900 c3        1 BL3      0.235000
     14 C2C        -4.3100    1.7310   -3.3470 DU        1 BL3     -0.446000
     15 C2D         1.4190    0.2550   -4.6230 c3        1 BL3      0.623000
     16 C3A         0.6840    0.0000    2.1330 DU        1 BL3      0.071000
     17 C3B        -4.8200   -0.7880   -0.0540 DU        1 BL3     -0.081000
     18 C3C        -3.5390    1.3790   -4.4440 c2        1 BL3     -0.272000
     19 C3D         2.3280    0.0280   -3.6390 c3        1 BL3     -0.370000
     20 C4A        -0.4330    0.0000    1.2990 c3        1 BL3     -0.289000
     21 C4B        -3.8020   -1.1650   -0.9490 c3        1 BL3      0.212000
     22 C4C        -2.1760    1.1750   -3.9340 c3        1 BL3     -0.059000
     23 C4D         1.6380    0.1540   -2.4070 c2        1 BL3     -0.041000
     24 CAA         3.2410   -0.0000    1.8030 DU        1 BL3     -0.152000
     25 CAB        -4.8960    0.2210    2.2930 DU        1 BL3      0.037000
     26 CBA         3.7250    1.4420    1.9620 c3        1 BL3     -0.298000
     27 CBB        -5.7920    1.1980    2.1870 c2        1 BL3      0.242000
     28 CBC        -5.1000    0.5530   -6.1100 c2        1 BL3      0.026000
     29 CGA         5.1570    1.4410    2.4360 c2        1 BL3      0.509000
     30 CGD         6.0730    0.6650   -3.9120 c2        1 BL3      0.363000
     31 CHA         2.2000   -0.0010   -1.1310 c2        1 BL3     -0.357000
     32 CHB        -1.7820    0.0000    1.7220 c2        1 BL3     -0.286000
     33 CMA         0.6680    0.0010    3.6390 c3        1 BL3      0.240000
     34 CMB        -6.3020   -0.9050   -0.2970 c3        1 BL3      0.004000
     35 CMD         1.6770    0.2310   -6.1070 c3        1 BL3      0.494000
     36 HNA         0.6670   -0.1990   -0.7190 DU        1 BL3      0.373000
     37 HNB        -2.8770   -0.6960   -1.3410 DU        1 BL3      0.229000
     38 HNC        -2.8820    1.8060   -1.9230 DU        1 BL3      0.378000
     39 HAA         3.4950   -0.0510    0.7510 ha        1 BL3      0.063000
     40 HAAA        2.6520    0.0960    0.8980 DU        1 BL3      0.259000
     41 HAB        -4.6470    0.6620    1.3350 DU        1 BL3      0.083000
     42 HAC        -2.9250    1.1780   -5.6780 ha        1 BL3      0.285000
     43 HAD         4.5540    0.3780   -3.4590 DU        1 BL3     -0.340000
     44 HADA        2.8980   -0.2360   -3.2100 DU        1 BL3      0.390000
     45 HBA         2.8370    1.0240    1.5040 DU        1 BL3      0.418000
     46 HBAA        2.8610    1.4280    1.3100 DU        1 BL3      0.042000
     47 HBB        -4.7300    0.9980    2.2540 DU        1 BL3     -0.145000
     48 HBBA       -4.7320    1.0100    2.0650 DU        1 BL3     -0.145000
     49 HBC        -5.0540    0.4630   -5.0320 ha        1 BL3      0.010000
     50 HBCA       -4.4800    1.3710   -5.7650 ha        1 BL3      0.010000
     51 HBD         4.1430    0.0300   -3.9110 DU        1 BL3      0.100000
     52 HBDA        4.3440    0.0080   -3.3560 DU        1 BL3      0.035000
     53 HHA         2.6880    0.6530   -0.4170 ha        1 BL3      0.108000
     54 HHB        -0.7930    0.3960    1.9180 DU        1 BL3      0.372000
     55 HHD        -1.6830    0.9050   -3.7670 DU        1 BL3      0.218000
     56 HMA        -0.3250    0.2410    3.2790 DU        1 BL3      0.029000
     57 HMAA        0.1190   -0.0120    2.7050 DU        1 BL3     -0.609000
     58 HMAB        0.0740    0.1390    2.7440 DU        1 BL3      0.355000
     59 HMB        -5.3110   -0.9240   -0.7330 DU        1 BL3      0.283500
     60 HMBA       -5.3390   -0.7940   -0.7810 DU        1 BL3      0.283500
     61 HMBB       -5.2250   -0.8300   -0.3800 DU        1 BL3     -0.841000
     62 HMC        -5.2290    1.8010   -2.4650 DU        1 BL3      0.236333
     63 HMCA       -4.8510    1.7460   -3.8260 DU        1 BL3      0.236333
     64 HMCB       -5.1570    1.7650   -2.5250 DU        1 BL3      0.236333
     65 HMD         1.6560    0.1400   -5.0280 hc        1 BL3     -0.398500
     66 HMDA        1.6440    0.3590   -5.0320 hc        1 BL3     -0.398500
     67 HMDB        0.8060    0.0030   -5.5050 DU        1 BL3      0.014000
     68 CAD         3.7890   -0.2970   -3.8240 DU        1 BL3     -0.025000
     69 CAC        -3.9940    1.2400   -5.8370 c2        1 BL3     -0.110000
     70 OC         -3.8400    2.0140   -1.0850 oh        1 BL3     -0.494000
     71 CBD         4.6130    0.9890   -3.7290 DU        1 BL3      0.145000
     72 CHD        -1.0800    0.8170   -4.6620 c2        1 BL3     -0.087000
     73 CMC        -5.7840    2.0430   -3.3630 c3        1 BL3     -0.369000
     74 O1D         6.4180   -0.4780   -4.1010 o         1 BL3     -0.487000
     75 O2D         6.9880    1.6460   -3.8680 o         1 BL3     -0.487000
@<TRIPOS>BOND
     1    1    6 1   
     2    1   20 1   
     3    1   36 1   
     4    2    8 1   
     5    2   21 1   
     6    2   37 1   
     7    3   21 1   
     8    4    9 1   
     9    4   22 1   
    10    4   38 1   
    11    5   10 1   
    12    5   23 1   
    13    6   11 1   
    14    6   31 1   
    15    6   36 1   
    16    7   29 1   
    17    8   13 1   
    18    8   32 1   
    19    9   14 1   
    20    9   38 1   
    21    9   70 1   
    22   10   15 1   
    23   10   72 1   
    24   11   16 1   
    25   11   24 1   
    26   11   40 1   
    27   12   29 1   
    28   13   17 1   
    29   13   25 1   
    30   13   41 1   
    31   14   18 1   
    32   14   62 1   
    33   14   63 1   
    34   14   64 1   
    35   14   73 1   
    36   15   19 1   
    37   15   35 1   
    38   15   67 1   
    39   16   20 1   
    40   16   33 1   
    41   16   57 1   
    42   16   58 1   
    43   17   21 1   
    44   17   34 1   
    45   17   59 1   
    46   17   60 1   
    47   18   22 1   
    48   18   69 1   
    49   19   23 1   
    50   19   44 1   
    51   19   68 1   
    52   20   32 1   
    53   20   54 1   
    54   21   37 1   
    55   22   55 1   
    56   22   72 1   
    57   23   31 1   
    58   24   26 1   
    59   24   39 1   
    60   24   40 1   
    61   24   45 1   
    62   25   27 1   
    63   25   41 1   
    64   25   47 1   
    65   25   48 1   
    66   26   29 1   
    67   26   45 1   
    68   26   46 1   
    69   27   47 1   
    70   27   48 1   
    71   28   49 1   
    72   28   50 1   
    73   28   69 1   
    74   30   71 1   
    75   30   74 1   
    76   30   75 1   
    77   31   53 1   
    78   32   54 1   
    79   33   56 1   
    80   33   57 1   
    81   33   58 1   
    82   34   59 1   
    83   34   60 1   
    84   34   61 1   
    85   35   65 1   
    86   35   66 1   
    87   35   67 1   
    88   38   70 1   
    89   42   69 1   
    90   43   52 1   
    91   43   68 1   
    92   43   71 1   
    93   44   68 1   
    94   45   46 1   
    95   51   52 1   
    96   51   71 1   
    97   52   68 1   
    98   52   71 1   
    99   55   72 1   
   100   56   58 1   
   101   59   61 1   
   102   60   61 1   
   103   62   73 1   
   104   63   73 1   
   105   64   73 1   
   106   68   71 1   
@<TRIPOS>SUBSTRUCTURE
     1 BL3         1 TEMP              0 ****  ****    0 ROOT
