@<TRIPOS>MOLECULE
BL3
   75    78     1     0     0
SMALL
bcc


@<TRIPOS>ATOM
      1 NA         -0.2520    1.4950   -0.3390 na        1 BL3     -0.149100
      2 NB          2.6480    1.7450   -1.5020 n         1 BL3     -0.473100
      3 OB          4.4240    0.7550   -2.6820 o         1 BL3     -0.628500
      4 NC          2.4080   -1.7560    1.3390 n         1 BL3     -0.476100
      5 ND         -0.3350   -1.4430   -0.0020 nc        1 BL3     -0.625300
      6 C1A        -1.6400    1.3130   -0.3270 cc        1 BL3     -0.111100
      7 O1A        -5.8300    5.3290    1.3550 o         1 BL3     -0.853300
      8 C1B         2.4740    2.9650   -0.7910 cc        1 BL3     -0.020400
      9 C1C         3.7030   -1.6880    1.8700 c         1 BL3      0.693700
     10 C1D        -0.1800   -2.7670   -0.0120 cd        1 BL3      0.464900
     11 C2A        -2.2570    2.6010   -0.3180 cd        1 BL3     -0.059300
     12 O2A        -4.5630    5.6350   -0.4520 o         1 BL3     -0.853300
     13 C2B         3.8200    3.6070   -0.6940 cc        1 BL3     -0.005000
     14 C2C         4.3330   -3.0440    1.6560 cd        1 BL3     -0.168400
     15 C2D        -1.4580   -3.4740   -0.3010 cd        1 BL3     -0.247800
     16 C3A        -1.2070    3.5690   -0.2900 cd        1 BL3     -0.093300
     17 C3B         4.7230    2.8250   -1.3640 cd        1 BL3     -0.179400
     18 C3C         3.4160   -3.8450    1.0320 cc        1 BL3     -0.022000
     19 C3D        -2.4200   -2.4980   -0.4390 cc        1 BL3     -0.032200
     20 C4A         0.0270    2.8590   -0.2940 cc        1 BL3     -0.128100
     21 C4B         3.9810    1.6520   -1.9490 c         1 BL3      0.689700
     22 C4C         2.1670   -3.0440    0.8060 cc        1 BL3      0.045600
     23 C4D        -1.7190   -1.1870   -0.2690 cc        1 BL3      0.030600
     24 CAA        -3.6940    2.9210   -0.3600 c3        1 BL3     -0.022100
     25 CAB         4.0290    4.8480    0.0060 ce        1 BL3     -0.110000
     26 CBA        -4.1820    3.6470    0.8820 c3        1 BL3     -0.192400
     27 CBB         5.1990    5.2530    0.5070 c2        1 BL3     -0.207000
     28 CBC         4.6680   -5.8740    0.4270 c2        1 BL3     -0.210000
     29 CGA        -4.9180    4.9600    0.5620 c         1 BL3      0.904600
     30 CGD        -5.2470   -4.7790   -0.3000 c         1 BL3      0.904600
     31 CHA        -2.2930    0.0400   -0.3710 cf        1 BL3      0.038800
     32 CHB         1.3290    3.4550   -0.2660 ce        1 BL3     -0.050200
     33 CMA        -1.3570    5.0250   -0.2860 c3        1 BL3     -0.064800
     34 CMB         6.1610    2.9830   -1.5700 c3        1 BL3     -0.034900
     35 CMD        -1.6060   -4.9240   -0.4170 c3        1 BL3     -0.060900
     36 HNA         0.4130    0.7760   -0.2000 hn        1 BL3      0.314700
     37 HNB         1.8960    1.2790   -1.9440 hn        1 BL3      0.339500
     38 HNC         1.7620   -1.0090    1.3000 hn        1 BL3      0.364500
     39 HAA        -3.8790    3.5880   -1.2520 hc        1 BL3      0.057700
     40 HAAA       -4.2940    1.9840   -0.5100 hc        1 BL3      0.057700
     41 HAB         3.1300    5.4820    0.1180 ha        1 BL3      0.134000
     42 HAC         2.5550   -5.7530    0.5170 ha        1 BL3      0.138000
     43 HAD        -4.3560   -1.7000   -0.8660 hc        1 BL3      0.059700
     44 HADA       -3.9160   -3.2310   -1.7390 hc        1 BL3      0.059700
     45 HBA        -4.8670    2.9850    1.4670 hc        1 BL3      0.033200
     46 HBAA       -3.3190    3.9140    1.5440 hc        1 BL3      0.033200
     47 HBB         5.3010    6.2130    1.0310 ha        1 BL3      0.112000
     48 HBBA        6.1170    4.6540    0.4440 ha        1 BL3      0.112000
     49 HBC         4.6870   -6.9310    0.1320 ha        1 BL3      0.111500
     50 HBCA        5.6520   -5.3950    0.5160 ha        1 BL3      0.111500
     51 HBD        -3.8720   -3.8780    1.0830 hc        1 BL3      0.034200
     52 HBDA       -5.3640   -2.9040    0.7890 hc        1 BL3      0.034200
     53 HHA        -3.3900    0.0950   -0.5170 ha        1 BL3      0.162000
     54 HHB         1.3460    4.4480    0.2220 ha        1 BL3      0.149000
     55 HHD         1.0040   -4.5500   -0.1290 ha        1 BL3      0.148000
     56 HMA        -0.9480    5.4560    0.6630 hc        1 BL3      0.060367
     57 HMAA       -0.8020    5.4820   -1.1430 hc        1 BL3      0.060367
     58 HMAB       -2.4470    5.3110   -0.3670 hc        1 BL3      0.060367
     59 HMB         6.7230    2.6470   -0.6600 hc        1 BL3      0.046700
     60 HMBA        6.4980    2.3600   -2.4370 hc        1 BL3      0.046700
     61 HMBB        6.4220    4.0540   -1.7660 hc        1 BL3      0.046700
     62 HMC         6.0180   -2.5480    2.8520 hc        1 BL3      0.048367
     63 HMCA        5.7730   -4.3320    2.5640 hc        1 BL3      0.048367
     64 HMCB        6.4070   -3.2720    1.2340 hc        1 BL3      0.048367
     65 HMD        -1.3870   -5.4210    0.5610 hc        1 BL3      0.056033
     66 HMDA       -2.6600   -5.1850   -0.7250 hc        1 BL3      0.056033
     67 HMDB       -0.8990   -5.3320   -1.1830 hc        1 BL3      0.056033
     68 CAD        -3.8460   -2.6920   -0.7470 c3        1 BL3     -0.033200
     69 CAC         3.5200   -5.2260    0.6410 ce        1 BL3     -0.108000
     70 OC          4.2030   -0.6960    2.4200 o         1 BL3     -0.626500
     71 CBD        -4.5790   -3.5250    0.2900 c3        1 BL3     -0.191400
     72 CHD         1.0420   -3.5010    0.2150 cf        1 BL3     -0.190600
     73 CMC         5.6980   -3.3150    2.1020 c3        1 BL3     -0.037900
     74 O1D        -4.7380   -5.3270   -1.3250 o         1 BL3     -0.853300
     75 O2D        -6.2680   -5.2310    0.2920 o         1 BL3     -0.853300
@<TRIPOS>BOND
     1    1    6 1   
     2    1   20 1   
     3    1   36 1   
     4    2    8 1   
     5    2   21 1   
     6    2   37 1   
     7    3   21 2   
     8    4    9 1   
     9    4   22 1   
    10    4   38 1   
    11    5   10 2   
    12    5   23 1   
    13    6   11 2   
    14    6   31 1   
    15    7   29 1   
    16    8   13 1   
    17    8   32 2   
    18    9   14 1   
    19    9   70 2   
    20   10   15 1   
    21   10   72 1   
    22   11   16 1   
    23   11   24 1   
    24   12   29 1   
    25   13   17 2   
    26   13   25 1   
    27   14   18 2   
    28   14   73 1   
    29   15   19 2   
    30   15   35 1   
    31   16   20 2   
    32   16   33 1   
    33   17   21 1   
    34   17   34 1   
    35   18   22 1   
    36   18   69 1   
    37   19   23 1   
    38   19   68 1   
    39   20   32 1   
    40   22   72 2   
    41   23   31 2   
    42   24   26 1   
    43   24   39 1   
    44   24   40 1   
    45   25   27 2   
    46   25   41 1   
    47   26   29 1   
    48   26   45 1   
    49   26   46 1   
    50   27   47 1   
    51   27   48 1   
    52   28   49 1   
    53   28   50 1   
    54   28   69 2   
    55   30   71 1   
    56   30   74 1   
    57   30   75 1   
    58   31   53 1   
    59   32   54 1   
    60   33   56 1   
    61   33   57 1   
    62   33   58 1   
    63   34   59 1   
    64   34   60 1   
    65   34   61 1   
    66   35   65 1   
    67   35   66 1   
    68   35   67 1   
    69   42   69 1   
    70   43   68 1   
    71   44   68 1   
    72   51   71 1   
    73   52   71 1   
    74   55   72 1   
    75   62   73 1   
    76   63   73 1   
    77   64   73 1   
    78   68   71 1   
@<TRIPOS>SUBSTRUCTURE
     1 BL3         1 TEMP              0 ****  ****    0 ROOT
