@<TRIPOS>MOLECULE
BL4
   38    41     1     0     0
SMALL
bcc


@<TRIPOS>ATOM
      1 O2         -0.0450   -0.0590    0.0830 o         1 BL4     -0.522100
      2 C4          1.1860   -0.0550   -0.0130 c         1 BL4      0.572700
      3 C3          2.0510   -0.1650    1.2430 c3        1 BL4     -0.034500
      4 O1          2.4850   -1.5090    1.3970 oh        1 BL4     -0.558800
      5 C2          1.4230    0.3640    2.5410 c3        1 BL4     -0.111400
      6 C1          2.5500    1.1560    3.2360 c3        1 BL4      0.222800
      7 N1          3.6700    1.2430    2.3060 nh        1 BL4     -0.622000
      8 C12         4.8380    1.9590    2.6130 ca        1 BL4      0.171600
      9 C17         4.8120    2.9870    3.5840 ca        1 BL4     -0.154000
     10 C16         5.9760    3.6770    3.9080 ca        1 BL4     -0.109000
     11 C15         7.1830    3.3700    3.2820 ca        1 BL4     -0.150000
     12 C14         7.2200    2.3550    2.3280 ca        1 BL4     -0.109000
     13 C13         6.0700    1.6460    1.9940 ca        1 BL4     -0.154000
     14 C11         3.3380    0.6890    1.0670 c2        1 BL4      0.676200
     15 N2          3.9360    0.8900   -0.0810 ne        1 BL4     -0.633100
     16 C10         3.3100    0.3900   -1.2400 ca        1 BL4      0.217400
     17 C5          1.9440   -0.0160   -1.2730 ca        1 BL4     -0.221600
     18 C9          4.0560    0.3780   -2.4370 ca        1 BL4     -0.134000
     19 C8          3.4540   -0.0120   -3.6280 ca        1 BL4     -0.084000
     20 C7          2.1140   -0.3840   -3.6620 ca        1 BL4     -0.166000
     21 C6          1.3460   -0.3820   -2.4910 ca        1 BL4      0.006700
     22 C18        -0.0820   -0.7710   -2.5610 c3        1 BL4     -0.064800
     23 HO1         1.6850   -2.0430    1.5000 ho        1 BL4      0.415000
     24 H2          1.0780   -0.4770    3.1880 hc        1 BL4      0.077200
     25 H2A         0.5490    1.0220    2.3130 hc        1 BL4      0.077200
     26 H1          2.1870    2.1860    3.5030 h1        1 BL4      0.057200
     27 H1A         2.8890    0.6380    4.1740 h1        1 BL4      0.057200
     28 H17         3.8770    3.2580    4.0960 ha        1 BL4      0.144000
     29 H16         5.9370    4.4750    4.6650 ha        1 BL4      0.133000
     30 H15         8.0970    3.9240    3.5390 ha        1 BL4      0.133000
     31 H14         8.1690    2.1030    1.8310 ha        1 BL4      0.133000
     32 H13         6.1370    0.8420    1.2450 ha        1 BL4      0.144000
     33 H9          5.1140    0.6840   -2.4280 ha        1 BL4      0.153000
     34 H8          4.0470   -0.0220   -4.5570 ha        1 BL4      0.136000
     35 H7          1.6500   -0.6800   -4.6140 ha        1 BL4      0.138000
     36 H18        -0.3560   -1.1310   -3.5820 hc        1 BL4      0.055367
     37 H18A       -0.7280    0.1060   -2.3010 hc        1 BL4      0.055367
     38 H18B       -0.3050   -1.5820   -1.8220 hc        1 BL4      0.055367
@<TRIPOS>BOND
     1    1    2 2   
     2    2    3 1   
     3    2   17 1   
     4    3    4 1   
     5    3    5 1   
     6    3   14 1   
     7    4   23 1   
     8    5    6 1   
     9    5   24 1   
    10    5   25 1   
    11    6    7 1   
    12    6   26 1   
    13    6   27 1   
    14    7    8 1   
    15    7   14 1   
    16    8    9 ar  
    17    8   13 ar  
    18    9   10 ar  
    19    9   28 1   
    20   10   11 ar  
    21   10   29 1   
    22   11   12 ar  
    23   11   30 1   
    24   12   13 ar  
    25   12   31 1   
    26   13   32 1   
    27   14   15 2   
    28   15   16 1   
    29   16   17 ar  
    30   16   18 ar  
    31   17   21 ar  
    32   18   19 ar  
    33   18   33 1   
    34   19   20 ar  
    35   19   34 1   
    36   20   21 ar  
    37   20   35 1   
    38   21   22 1   
    39   22   36 1   
    40   22   37 1   
    41   22   38 1   
@<TRIPOS>SUBSTRUCTURE
     1 BL4         1 TEMP              0 ****  ****    0 ROOT
