@<TRIPOS>MOLECULE
BL4
   38    35     1     0     0
SMALL
bcc


@<TRIPOS>ATOM
      1 O2         -3.1780   -0.3230   -0.9210 o         1 BL4     -0.261000
      2 C4         -1.9620   -0.3230   -0.9210 c1        1 BL4      0.264000
      3 C3         -1.2090   -0.3230    0.3820 c2        1 BL4      0.027000
      4 O1         -1.9020    0.5050    1.2950 oh        1 BL4     -0.289000
      5 C2         -1.2110   -1.6520    0.8870 c3        1 BL4     -0.156000
      6 C1          0.0550   -1.7100    1.8200 c3        1 BL4     -0.019000
      7 N1          0.8490   -0.3900    1.5100 n3        1 BL4     -0.225000
      8 C12         1.6650    0.3400    2.4340 c2        1 BL4      0.077000
      9 C17         3.0390    0.1470    2.4470 c2        1 BL4     -0.130000
     10 C16         3.8240    0.8070    3.3830 c1        1 BL4     -0.115000
     11 C15         3.2340    1.6610    4.3050 c2        1 BL4     -0.144000
     12 C14         1.8590    1.8530    4.2920 c1        1 BL4     -0.114000
     13 C13         1.0750    1.1920    3.3560 c1        1 BL4     -0.162000
     14 C11         0.2950    0.1020    0.3760 c2        1 BL4      0.116000
     15 N2          1.0350    0.0810   -0.8620 n1        1 BL4     -0.221000
     16 C10         0.2710    0.0030   -2.2250 c1        1 BL4      0.058000
     17 C5         -1.1920   -0.1440   -2.2430 c2        1 BL4     -0.224000
     18 C9          0.9690    0.1050   -3.4160 c1        1 BL4     -0.135000
     19 C8          0.2770    0.0680   -4.6460 c1        1 BL4     -0.125500
     20 C7         -1.1500   -0.0750   -4.6650 c1        1 BL4     -0.125500
     21 C6         -1.8670   -0.1790   -3.4530 c1        1 BL4      0.015000
     22 C18        -3.3860   -0.2760   -3.4740 c3        1 BL4     -0.192000
     23 HO1        -2.2040    1.2240    0.8720 ho        1 BL4      0.217000
     24 H2         -1.0690   -2.2640    0.1400 hc        1 BL4      0.125500
     25 H2A        -2.0060   -1.7680    1.4420 hc        1 BL4      0.125500
     26 H1          0.6040   -2.4670    1.5410 h1        1 BL4      0.098000
     27 H1A        -0.2490   -1.6710    2.7470 h1        1 BL4      0.098000
     28 H17         3.4540   -0.4530    1.7980 ha        1 BL4      0.160000
     29 H16         4.7910    0.6720    3.3920 DU        1 BL4      0.135000
     30 H15         3.7850    2.1250    4.9630 ha        1 BL4      0.134000
     31 H14         1.4440    2.4530    4.9400 ha        1 BL4      0.133000
     32 H13         0.1080    1.3280    3.3470 ha        1 BL4      0.134000
     33 H9          1.9410    0.2020   -3.4050 ha        1 BL4      0.153000
     34 H8          0.7710    0.1400   -5.4850 ha        1 BL4      0.138000
     35 H7         -1.6270   -0.1000   -5.5170 ha        1 BL4      0.138000
     36 H18        -3.7670    0.4830   -2.9930 hc        1 BL4      0.096333
     37 H18A       -3.7000   -0.2670   -4.3980 hc        1 BL4      0.096333
     38 H18B       -3.6650   -1.1070   -3.0440 hc        1 BL4      0.096333
@<TRIPOS>BOND
     1    1    2 1   
     2    2   17 1   
     3    3    4 1   
     4    3    5 1   
     5    3   14 1   
     6    4   23 1   
     7    5    6 1   
     8    5   24 1   
     9    5   25 1   
    10    6    7 1   
    11    6   26 1   
    12    6   27 1   
    13    7    8 1   
    14    7   14 1   
    15    8    9 1   
    16    8   13 1   
    17    9   10 1   
    18    9   28 1   
    19   10   11 1   
    20   11   12 1   
    21   11   30 1   
    22   12   31 1   
    23   13   32 1   
    24   14   15 1   
    25   16   17 1   
    26   16   18 1   
    27   17   21 1   
    28   18   33 1   
    29   19   20 1   
    30   19   34 1   
    31   20   35 1   
    32   21   22 1   
    33   22   36 1   
    34   22   37 1   
    35   22   38 1   
@<TRIPOS>SUBSTRUCTURE
     1 BL4         1 TEMP              0 ****  ****    0 ROOT
