@<TRIPOS>MOLECULE
BL4
   38    41     1     0     0
SMALL
bcc


@<TRIPOS>ATOM
      1 O2         -0.0430   -0.0570    0.0730 o         1 BL4     -0.522100
      2 C4          1.1880   -0.0540   -0.0210 c         1 BL4      0.572700
      3 C3          2.0510   -0.1640    1.2360 c3        1 BL4     -0.034500
      4 O1          2.4830   -1.5090    1.3910 oh        1 BL4     -0.558800
      5 C2          1.4220    0.3660    2.5330 c3        1 BL4     -0.111400
      6 C1          2.5480    1.1560    3.2280 c3        1 BL4      0.222800
      7 N1          3.6700    1.2420    2.3000 nh        1 BL4     -0.622000
      8 C12         4.8390    1.9580    2.6080 ca        1 BL4      0.171600
      9 C17         4.8120    2.9860    3.5790 ca        1 BL4     -0.154000
     10 C16         5.9770    3.6740    3.9040 ca        1 BL4     -0.109000
     11 C15         7.1840    3.3670    3.2790 ca        1 BL4     -0.150000
     12 C14         7.2210    2.3510    2.3250 ca        1 BL4     -0.109000
     13 C13         6.0710    1.6430    1.9910 ca        1 BL4     -0.154000
     14 C11         3.3390    0.6880    1.0610 c2        1 BL4      0.676200
     15 N2          3.9380    0.8870   -0.0860 ne        1 BL4     -0.633100
     16 C10         3.3130    0.3880   -1.2460 ca        1 BL4      0.217400
     17 C5          1.9460   -0.0170   -1.2800 ca        1 BL4     -0.221600
     18 C9          4.0610    0.3740   -2.4420 ca        1 BL4     -0.134000
     19 C8          3.4600   -0.0160   -3.6340 ca        1 BL4     -0.084000
     20 C7          2.1190   -0.3860   -3.6680 ca        1 BL4     -0.166000
     21 C6          1.3500   -0.3840   -2.4990 ca        1 BL4      0.006700
     22 C18        -0.0780   -0.7710   -2.5700 c3        1 BL4     -0.064800
     23 HO1         1.6830   -2.0430    1.4940 ho        1 BL4      0.415000
     24 H2          1.0750   -0.4750    3.1800 hc        1 BL4      0.077200
     25 H2A         0.5490    1.0250    2.3040 hc        1 BL4      0.077200
     26 H1          2.1870    2.1880    3.4950 h1        1 BL4      0.057200
     27 H1A         2.8860    0.6390    4.1670 h1        1 BL4      0.057200
     28 H17         3.8770    3.2570    4.0900 ha        1 BL4      0.144000
     29 H16         5.9380    4.4730    4.6600 ha        1 BL4      0.133000
     30 H15         8.0980    3.9190    3.5370 ha        1 BL4      0.133000
     31 H14         8.1700    2.0980    1.8300 ha        1 BL4      0.133000
     32 H13         6.1380    0.8390    1.2420 ha        1 BL4      0.144000
     33 H9          5.1190    0.6780   -2.4320 ha        1 BL4      0.153000
     34 H8          4.0540   -0.0280   -4.5610 ha        1 BL4      0.136000
     35 H7          1.6570   -0.6830   -4.6220 ha        1 BL4      0.138000
     36 H18        -0.3520   -1.1310   -3.5910 hc        1 BL4      0.055367
     37 H18A       -0.7240    0.1080   -2.3120 hc        1 BL4      0.055367
     38 H18B       -0.3030   -1.5810   -1.8310 hc        1 BL4      0.055367
@<TRIPOS>BOND
     1    1    2 2   
     2    2    3 1   
     3    2   17 1   
     4    3    4 1   
     5    3    5 1   
     6    3   14 1   
     7    4   23 1   
     8    5    6 1   
     9    5   24 1   
    10    5   25 1   
    11    6    7 1   
    12    6   26 1   
    13    6   27 1   
    14    7    8 1   
    15    7   14 1   
    16    8    9 ar  
    17    8   13 ar  
    18    9   10 ar  
    19    9   28 1   
    20   10   11 ar  
    21   10   29 1   
    22   11   12 ar  
    23   11   30 1   
    24   12   13 ar  
    25   12   31 1   
    26   13   32 1   
    27   14   15 2   
    28   15   16 1   
    29   16   17 ar  
    30   16   18 ar  
    31   17   21 ar  
    32   18   19 ar  
    33   18   33 1   
    34   19   20 ar  
    35   19   34 1   
    36   20   21 ar  
    37   20   35 1   
    38   21   22 1   
    39   22   36 1   
    40   22   37 1   
    41   22   38 1   
@<TRIPOS>SUBSTRUCTURE
     1 BL4         1 TEMP              0 ****  ****    0 ROOT
