@<TRIPOS>MOLECULE
BL4
   38    41     1     0     0
SMALL
bcc


@<TRIPOS>ATOM
      1 O2         -2.4600   -2.1180    0.8640 o         1 BL4     -0.500100
      2 C4         -1.9000   -1.2140    0.2440 c         1 BL4      0.572700
      3 C3         -0.6060   -1.4550   -0.5310 c3        1 BL4     -0.024500
      4 O1         -0.8800   -1.5250   -1.9200 oh        1 BL4     -0.559800
      5 C2          0.1950   -2.7110   -0.1710 c3        1 BL4     -0.079400
      6 C1          1.6490   -2.2280   -0.0020 c3        1 BL4      0.217800
      7 N1          1.6570   -0.7740   -0.1230 nh        1 BL4     -0.615000
      8 C12         2.8350   -0.0230    0.0410 ca        1 BL4      0.166600
      9 C17         3.9130   -0.5420    0.7970 ca        1 BL4     -0.152000
     10 C16         5.0880    0.1890    0.9360 ca        1 BL4     -0.110000
     11 C15         5.2230    1.4410    0.3390 ca        1 BL4     -0.148000
     12 C14         4.1680    1.9580   -0.4110 ca        1 BL4     -0.110000
     13 C13         2.9860    1.2410   -0.5710 ca        1 BL4     -0.152000
     14 C11         0.3630   -0.2710   -0.2340 c2        1 BL4      0.628200
     15 N2         -0.0290    0.9740   -0.0880 ne        1 BL4     -0.642100
     16 C10        -1.4200    1.2100   -0.0680 ca        1 BL4      0.196400
     17 C5         -2.3810    0.1760    0.1380 ca        1 BL4     -0.242600
     18 C9         -1.8680    2.5420   -0.1800 ca        1 BL4     -0.133000
     19 C8         -3.2250    2.8310   -0.0840 ca        1 BL4     -0.086000
     20 C7         -4.1570    1.8210    0.1320 ca        1 BL4     -0.164000
     21 C6         -3.7440    0.4890    0.2560 ca        1 BL4      0.007700
     22 C18        -4.7500   -0.5680    0.5100 c3        1 BL4     -0.066800
     23 HO1        -1.3360   -0.7070   -2.1660 ho        1 BL4      0.417000
     24 H2         -0.1970   -3.1590    0.7750 hc        1 BL4      0.086700
     25 H2A         0.1210   -3.4680   -0.9890 hc        1 BL4      0.086700
     26 H1          2.0410   -2.5340    1.0070 h1        1 BL4      0.058200
     27 H1A         2.3150   -2.6650   -0.7950 h1        1 BL4      0.058200
     28 H17         3.8390   -1.5250    1.2850 ha        1 BL4      0.143500
     29 H16         5.9150   -0.2290    1.5280 ha        1 BL4      0.133000
     30 H15         6.1520    2.0150    0.4590 ha        1 BL4      0.134000
     31 H14         4.2660    2.9450   -0.8880 ha        1 BL4      0.133000
     32 H13         2.1780    1.6760   -1.1790 ha        1 BL4      0.143500
     33 H9         -1.1410    3.3550   -0.3350 ha        1 BL4      0.153000
     34 H8         -3.5630    3.8750   -0.1770 ha        1 BL4      0.137000
     35 H7         -5.2260    2.0670    0.2120 ha        1 BL4      0.139000
     36 H18        -4.6150   -0.9770    1.5450 hc        1 BL4      0.057367
     37 H18A       -5.7900   -0.1720    0.4120 hc        1 BL4      0.057367
     38 H18B       -4.6190   -1.4190   -0.2050 hc        1 BL4      0.057367
@<TRIPOS>BOND
     1    1    2 2   
     2    2    3 1   
     3    2   17 1   
     4    3    4 1   
     5    3    5 1   
     6    3   14 1   
     7    4   23 1   
     8    5    6 1   
     9    5   24 1   
    10    5   25 1   
    11    6    7 1   
    12    6   26 1   
    13    6   27 1   
    14    7    8 1   
    15    7   14 1   
    16    8    9 ar  
    17    8   13 ar  
    18    9   10 ar  
    19    9   28 1   
    20   10   11 ar  
    21   10   29 1   
    22   11   12 ar  
    23   11   30 1   
    24   12   13 ar  
    25   12   31 1   
    26   13   32 1   
    27   14   15 2   
    28   15   16 1   
    29   16   17 ar  
    30   16   18 ar  
    31   17   21 ar  
    32   18   19 ar  
    33   18   33 1   
    34   19   20 ar  
    35   19   34 1   
    36   20   21 ar  
    37   20   35 1   
    38   21   22 1   
    39   22   36 1   
    40   22   37 1   
    41   22   38 1   
@<TRIPOS>SUBSTRUCTURE
     1 BL4         1 TEMP              0 ****  ****    0 ROOT
