@<TRIPOS>MOLECULE
BL4
   38    41     1     0     0
SMALL
bcc


@<TRIPOS>ATOM
      1 O2         -0.0460   -0.0540    0.0810 o         1 BL4     -0.522100
      2 C4          1.1850   -0.0520   -0.0130 c         1 BL4      0.572700
      3 C3          2.0490   -0.1610    1.2430 c3        1 BL4     -0.034500
      4 O1          2.4800   -1.5060    1.4000 oh        1 BL4     -0.558800
      5 C2          1.4210    0.3710    2.5400 c3        1 BL4     -0.111400
      6 C1          2.5480    1.1610    3.2340 c3        1 BL4      0.222800
      7 N1          3.6690    1.2460    2.3050 nh        1 BL4     -0.622000
      8 C12         4.8390    1.9600    2.6130 ca        1 BL4      0.171600
      9 C17         4.8140    2.9890    3.5830 ca        1 BL4     -0.154000
     10 C16         5.9800    3.6760    3.9070 ca        1 BL4     -0.109000
     11 C15         7.1860    3.3660    3.2820 ca        1 BL4     -0.150000
     12 C14         7.2210    2.3500    2.3290 ca        1 BL4     -0.109000
     13 C13         6.0700    1.6430    1.9950 ca        1 BL4     -0.154000
     14 C11         3.3370    0.6900    1.0670 c2        1 BL4      0.676200
     15 N2          3.9360    0.8880   -0.0810 ne        1 BL4     -0.633100
     16 C10         3.3100    0.3880   -1.2400 ca        1 BL4      0.217400
     17 C5          1.9430   -0.0160   -1.2730 ca        1 BL4     -0.221600
     18 C9          4.0570    0.3720   -2.4370 ca        1 BL4     -0.134000
     19 C8          3.4560   -0.0180   -3.6270 ca        1 BL4     -0.084000
     20 C7          2.1140   -0.3880   -3.6610 ca        1 BL4     -0.166000
     21 C6          1.3470   -0.3840   -2.4910 ca        1 BL4      0.006700
     22 C18        -0.0820   -0.7700   -2.5610 c3        1 BL4     -0.064800
     23 HO1         1.6800   -2.0390    1.5030 ho        1 BL4      0.415000
     24 H2          0.5480    1.0300    2.3110 hc        1 BL4      0.077200
     25 H2A         1.0740   -0.4690    3.1880 hc        1 BL4      0.077200
     26 H1          2.8860    0.6450    4.1730 h1        1 BL4      0.057200
     27 H1A         2.1870    2.1930    3.5000 h1        1 BL4      0.057200
     28 H17         3.8790    3.2620    4.0940 ha        1 BL4      0.144000
     29 H16         5.9410    4.4740    4.6630 ha        1 BL4      0.133000
     30 H15         8.1010    3.9170    3.5390 ha        1 BL4      0.133000
     31 H14         8.1700    2.0950    1.8330 ha        1 BL4      0.133000
     32 H13         6.1360    0.8390    1.2470 ha        1 BL4      0.144000
     33 H9          5.1160    0.6760   -2.4270 ha        1 BL4      0.153000
     34 H8          4.0490   -0.0310   -4.5550 ha        1 BL4      0.136000
     35 H7          1.6520   -0.6860   -4.6130 ha        1 BL4      0.138000
     36 H18        -0.3070   -1.5800   -1.8210 hc        1 BL4      0.055367
     37 H18A       -0.3570   -1.1310   -3.5820 hc        1 BL4      0.055367
     38 H18B       -0.7270    0.1080   -2.3030 hc        1 BL4      0.055367
@<TRIPOS>BOND
     1    1    2 2   
     2    2    3 1   
     3    2   17 1   
     4    3    4 1   
     5    3    5 1   
     6    3   14 1   
     7    4   23 1   
     8    5    6 1   
     9    5   24 1   
    10    5   25 1   
    11    6    7 1   
    12    6   26 1   
    13    6   27 1   
    14    7    8 1   
    15    7   14 1   
    16    8    9 ar  
    17    8   13 ar  
    18    9   10 ar  
    19    9   28 1   
    20   10   11 ar  
    21   10   29 1   
    22   11   12 ar  
    23   11   30 1   
    24   12   13 ar  
    25   12   31 1   
    26   13   32 1   
    27   14   15 2   
    28   15   16 1   
    29   16   17 ar  
    30   16   18 ar  
    31   17   21 ar  
    32   18   19 ar  
    33   18   33 1   
    34   19   20 ar  
    35   19   34 1   
    36   20   21 ar  
    37   20   35 1   
    38   21   22 1   
    39   22   36 1   
    40   22   37 1   
    41   22   38 1   
@<TRIPOS>SUBSTRUCTURE
     1 BL4         1 TEMP              0 ****  ****    0 ROOT
