@<TRIPOS>MOLECULE
BL5
  120   121     1     0     0
SMALL
bcc


@<TRIPOS>ATOM
      1 C5         -1.5020    1.4060    2.5400 ca        1 BL5     -0.097500
      2 C4         -0.1210    1.5980    2.5700 ca        1 BL5     -0.080500
      3 C3          0.7390    0.5380    2.8680 ca        1 BL5     -0.003000
      4 C2          0.2140   -0.7360    3.1350 ca        1 BL5     -0.080500
      5 C1         -1.1570   -0.9550    3.1160 ca        1 BL5     -0.097500
      6 C6         -2.0180    0.1280    2.8340 ca        1 BL5     -0.127400
      7 N7         -3.4770   -0.0520    2.9400 n4        1 BL5     -0.485200
      8 C8         -4.1090   -0.6200    1.7160 c         1 BL5      0.506100
      9 O9         -3.8590   -0.1410    0.6150 o         1 BL5     -0.412100
     10 C10        -5.1220   -1.7860    1.8600 c3        1 BL5      0.063500
     11 C11        -4.5720   -2.9250    2.7490 c3        1 BL5     -0.129400
     12 C12        -5.1670   -2.9290    4.1560 c3        1 BL5     -0.083400
     13 C13        -4.5250   -4.0140    5.0150 c3        1 BL5     -0.110400
     14 C14        -5.1440   -4.0230    6.4170 c3        1 BL5      0.103800
     15 N15        -4.5730   -5.0500    7.3330 n4        1 BL5     -0.838600
     16 N16        -5.5010   -2.3060    0.4660 n4        1 BL5     -0.670800
     17 C17        -6.5300   -1.5160   -0.3190 c         1 BL5      0.544100
     18 O18        -7.1220   -0.6220    0.2620 o         1 BL5     -0.372100
     19 C19        -6.7490   -1.8900   -1.7980 c3        1 BL5     -0.139700
     20 C20        -6.8370   -3.4050   -1.9650 c3        1 BL5     -0.139400
     21 C21        -7.1340   -3.8540   -3.3810 c3        1 BL5     -0.091400
     22 C22        -6.9650   -5.3640   -3.5160 c3        1 BL5     -0.080400
     23 C23        -7.3510   -5.8320   -4.8950 c3        1 BL5     -0.113100
     24 C24        -8.0440   -1.1850   -2.3020 c3        1 BL5      0.117800
     25 N25        -8.0340   -0.9070   -3.8300 n4        1 BL5     -0.614800
     26 N26        -9.3100   -0.5400   -4.4100 n4        1 BL5     -0.614800
     27 C27        -9.2850   -0.1850   -5.9230 c3        1 BL5      0.117800
     28 C32       -10.7050   -0.1270   -6.5620 c3        1 BL5     -0.139700
     29 C31       -11.1750   -1.5100   -7.0050 c3        1 BL5     -0.139400
     30 C30       -11.1640   -2.5480   -5.9010 c3        1 BL5     -0.091400
     31 C29       -11.8700   -3.8240   -6.3520 c3        1 BL5     -0.080400
     32 C28       -11.7800   -4.8940   -5.2960 c3        1 BL5     -0.113100
     33 C34       -10.6640    0.8440   -7.7600 c         1 BL5      0.544100
     34 O33        -9.7520    1.6190   -7.9890 o         1 BL5     -0.372100
     35 N35       -11.8450    0.8440   -8.7100 n4        1 BL5     -0.670800
     36 C41       -11.9090    1.9630   -9.7600 c3        1 BL5      0.063500
     37 C40       -12.7610    1.5370  -10.9780 c3        1 BL5     -0.129400
     38 C39       -12.1020    1.8690  -12.3150 c3        1 BL5     -0.083400
     39 C38       -13.0220    1.5090  -13.4790 c3        1 BL5     -0.110400
     40 C37       -12.3440    1.8270  -14.8160 c3        1 BL5      0.103800
     41 N36       -13.1720    1.5130  -16.0140 n4        1 BL5     -0.838600
     42 C43       -12.4480    3.2590   -9.0980 c         1 BL5      0.506100
     43 O42       -12.5930    3.3260   -7.8820 o         1 BL5     -0.412100
     44 N44       -12.7430    4.4420   -9.9540 n4        1 BL5     -0.485200
     45 C45       -14.0460    5.0730   -9.6780 ca        1 BL5     -0.127400
     46 C46       -15.2120    4.5690  -10.2940 ca        1 BL5     -0.097500
     47 C47       -16.4100    5.2510  -10.1230 ca        1 BL5     -0.080500
     48 C48       -16.4660    6.4160   -9.3430 ca        1 BL5     -0.003000
     49 C49       -15.3090    6.8950   -8.7220 ca        1 BL5     -0.080500
     50 C50       -14.0940    6.2290   -8.8720 ca        1 BL5     -0.097500
     51 H5         -2.1580    2.2640    2.3120 ha        1 BL5      0.145500
     52 H4          0.2930    2.6070    2.3680 ha        1 BL5      0.209500
     53 H3          1.8370    0.7030    2.9000 ha        1 BL5      0.223000
     54 H2          0.9030   -1.5700    3.3750 ha        1 BL5      0.209500
     55 H1         -1.5450   -1.9580    3.3490 ha        1 BL5      0.145500
     56 HN7        -3.8890    0.8880    3.1090 hn        1 BL5      0.488300
     57 H10        -6.0730   -1.3620    2.3190 hx        1 BL5      0.167700
     58 H111       -4.7810   -3.9370    2.2980 hc        1 BL5      0.106700
     59 H112       -3.4500   -2.8490    2.8070 hc        1 BL5      0.106700
     60 H121       -6.2740   -3.1100    4.0970 hc        1 BL5      0.071200
     61 H122       -5.0210   -1.9330    4.6510 hc        1 BL5      0.071200
     62 H131       -4.6740   -5.0160    4.5260 hc        1 BL5      0.087200
     63 H132       -3.4180   -3.8340    5.0860 hc        1 BL5      0.087200
     64 H141       -6.2550   -4.2200    6.3430 hx        1 BL5      0.123700
     65 H142       -4.9940   -3.0160    6.9090 hx        1 BL5      0.123700
     66 H151       -3.5660   -4.9030    7.4800 hn        1 BL5      0.487800
     67 H152       -4.7140   -6.0000    6.9640 hn        1 BL5      0.487800
     68 H16        -4.6370   -2.3560   -0.1010 hn        1 BL5      0.494300
     69 H19        -5.8430   -1.5000   -2.3560 hc        1 BL5      0.137700
     70 H201       -7.6220   -3.8270   -1.2780 hc        1 BL5      0.104700
     71 H202       -5.8470   -3.8660   -1.6850 hc        1 BL5      0.104700
     72 H211       -6.4320   -3.3590   -4.1060 hc        1 BL5      0.017700
     73 H212       -8.1970   -3.6020   -3.6490 hc        1 BL5      0.017700
     74 H221       -5.8950   -5.6410   -3.3150 hc        1 BL5      0.086200
     75 H222       -7.6020   -5.8810   -2.7490 hc        1 BL5      0.086200
     76 H231       -8.4210   -5.5970   -5.1170 hc        1 BL5      0.066700
     77 H232       -7.2230   -6.9460   -4.9610 hc        1 BL5      0.066700
     78 H233       -6.7020   -5.3700   -5.6780 hc        1 BL5      0.066700
     79 H241       -8.9270   -1.8580   -2.0790 hx        1 BL5      0.160200
     80 H242       -8.1760   -0.1840   -1.7880 hx        1 BL5      0.160200
     81 H25        -7.6910   -1.7830   -4.3170 hn        1 BL5      0.525800
     82 H26        -9.6850    0.2820   -3.8820 hn        1 BL5      0.525800
     83 H271       -8.6860   -0.9850   -6.4550 hx        1 BL5      0.160200
     84 H272       -8.7670    0.8190   -6.0150 hx        1 BL5      0.160200
     85 H32       -11.4510    0.3100   -5.8310 hc        1 BL5      0.137700
     86 H311      -10.5430   -1.8810   -7.8580 hc        1 BL5      0.104700
     87 H312      -12.2400   -1.4400   -7.3670 hc        1 BL5      0.104700
     88 H301      -10.1040   -2.8170   -5.6370 hc        1 BL5      0.017700
     89 H302      -11.6960   -2.1590   -4.9900 hc        1 BL5      0.017700
     90 H291      -12.9500   -3.6000   -6.5640 hc        1 BL5      0.086200
     91 H292      -11.4030   -4.1920   -7.3050 hc        1 BL5      0.086200
     92 H281      -12.3010   -5.8210   -5.6590 hc        1 BL5      0.066700
     93 H282      -12.2780   -4.5750   -4.3500 hc        1 BL5      0.066700
     94 H283      -10.7170   -5.1620   -5.0820 hc        1 BL5      0.066700
     95 H35       -12.7110    0.8890   -8.1450 hn        1 BL5      0.494300
     96 H41       -10.8380    2.1640  -10.0880 hx        1 BL5      0.167700
     97 H401      -13.7740    2.0230  -10.9170 hc        1 BL5      0.106700
     98 H402      -12.9590    0.4270  -10.9730 hc        1 BL5      0.106700
     99 H391      -11.8460    2.9600  -12.3720 hc        1 BL5      0.071200
    100 H392      -11.1390    1.2980  -12.4150 hc        1 BL5      0.071200
    101 H381      -13.2760    0.4150  -13.4300 hc        1 BL5      0.087200
    102 H382      -13.9830    2.0840  -13.3910 hc        1 BL5      0.087200
    103 H371      -11.3840    1.2350  -14.9070 hx        1 BL5      0.123700
    104 H372      -12.0870    2.9270  -14.8650 hx        1 BL5      0.123700
    105 H361      -13.4060    0.5130  -16.0550 hn        1 BL5      0.487800
    106 H362      -14.0470    2.0540  -16.0160 hn        1 BL5      0.487800
    107 H44       -12.7170    4.1760  -10.9470 hn        1 BL5      0.488300
    108 H46       -15.1900    3.6700  -10.9270 ha        1 BL5      0.145500
    109 H47       -17.3310    4.8810  -10.6160 ha        1 BL5      0.209500
    110 H48       -17.4270    6.9600   -9.2260 ha        1 BL5      0.223000
    111 H49       -15.3510    7.8210   -8.1130 ha        1 BL5      0.209500
    112 H50       -13.1950    6.6360   -8.3770 ha        1 BL5      0.145500
    113 H72        -3.6700   -0.6550    3.7510 hn        1 BL5      0.488300
    114 H153       -5.0440   -4.9890    8.2530 hn        1 BL5      0.487800
    115 H162       -5.8680   -3.2670    0.5860 hn        1 BL5      0.494300
    116 H252       -7.3530   -0.1370   -4.0240 hn        1 BL5      0.525800
    117 H262       -9.9780   -1.3500   -4.2790 hn        1 BL5      0.525800
    118 H352      -11.8370   -0.0560   -9.2210 hn        1 BL5      0.494300
    119 H363      -12.6420    1.7560  -16.8700 hn        1 BL5      0.487800
    120 H442      -12.0120    5.1600   -9.7740 hn        1 BL5      0.488300
@<TRIPOS>BOND
     1    1    2 ar  
     2    1    6 ar  
     3    1   51 1   
     4    2    3 ar  
     5    2   52 1   
     6    3    4 ar  
     7    3   53 1   
     8    4    5 ar  
     9    4   54 1   
    10    5    6 ar  
    11    5   55 1   
    12    6    7 1   
    13    7    8 1   
    14    7   56 1   
    15    7  113 1   
    16    8    9 2   
    17    8   10 1   
    18   10   11 1   
    19   10   16 1   
    20   10   57 1   
    21   11   12 1   
    22   11   58 1   
    23   11   59 1   
    24   12   13 1   
    25   12   60 1   
    26   12   61 1   
    27   13   14 1   
    28   13   62 1   
    29   13   63 1   
    30   14   15 1   
    31   14   64 1   
    32   14   65 1   
    33   15   66 1   
    34   15   67 1   
    35   15  114 1   
    36   16   17 1   
    37   16   68 1   
    38   16  115 1   
    39   17   18 2   
    40   17   19 1   
    41   19   20 1   
    42   19   24 1   
    43   19   69 1   
    44   20   21 1   
    45   20   70 1   
    46   20   71 1   
    47   21   22 1   
    48   21   72 1   
    49   21   73 1   
    50   22   23 1   
    51   22   74 1   
    52   22   75 1   
    53   23   76 1   
    54   23   77 1   
    55   23   78 1   
    56   24   25 1   
    57   24   79 1   
    58   24   80 1   
    59   25   26 1   
    60   25   81 1   
    61   25  116 1   
    62   26   27 1   
    63   26   82 1   
    64   26  117 1   
    65   27   28 1   
    66   27   83 1   
    67   27   84 1   
    68   28   29 1   
    69   28   33 1   
    70   28   85 1   
    71   29   30 1   
    72   29   86 1   
    73   29   87 1   
    74   30   31 1   
    75   30   88 1   
    76   30   89 1   
    77   31   32 1   
    78   31   90 1   
    79   31   91 1   
    80   32   92 1   
    81   32   93 1   
    82   32   94 1   
    83   33   34 2   
    84   33   35 1   
    85   35   36 1   
    86   35   95 1   
    87   35  118 1   
    88   36   37 1   
    89   36   42 1   
    90   36   96 1   
    91   37   38 1   
    92   37   97 1   
    93   37   98 1   
    94   38   39 1   
    95   38   99 1   
    96   38  100 1   
    97   39   40 1   
    98   39  101 1   
    99   39  102 1   
   100   40   41 1   
   101   40  103 1   
   102   40  104 1   
   103   41  105 1   
   104   41  106 1   
   105   41  119 1   
   106   42   43 2   
   107   42   44 1   
   108   44   45 1   
   109   44  107 1   
   110   44  120 1   
   111   45   46 ar  
   112   45   50 ar  
   113   46   47 ar  
   114   46  108 1   
   115   47   48 ar  
   116   47  109 1   
   117   48   49 ar  
   118   48  110 1   
   119   49   50 ar  
   120   49  111 1   
   121   50  112 1   
@<TRIPOS>SUBSTRUCTURE
     1 BL5         1 TEMP              0 ****  ****    0 ROOT
