@<TRIPOS>MOLECULE
BL5
  118   119     1     0     0
SMALL
bcc


@<TRIPOS>ATOM
      1 C5          0.0000    0.0000    0.0000 ca        1 BL5     -0.075250
      2 C4          1.3810    0.0000    0.0000 ca        1 BL5     -0.053500
      3 C3          2.0740    0.0000    1.1970 ca        1 BL5      0.039000
      4 C2          1.3870    0.0060    2.3970 ca        1 BL5     -0.053500
      5 C1          0.0060    0.0120    2.4040 ca        1 BL5     -0.075250
      6 C6         -0.6920    0.0120    1.2040 ca        1 BL5     -0.167900
      7 N7         -2.0920    0.0180    1.2080 ns        1 BL5      0.152900
      8 C8         -2.7710   -0.6360    0.2440 c         1 BL5      0.492100
      9 O9         -2.1730   -1.3110   -0.5680 o         1 BL5     -0.611600
     10 C10        -4.2730   -0.5290    0.1750 c3        1 BL5     -0.130000
     11 C11        -4.8810   -1.0520    1.4770 c3        1 BL5     -0.034400
     12 C12        -6.3950   -0.8300    1.4590 c3        1 BL5     -0.031900
     13 C13        -7.0040   -1.3530    2.7610 c3        1 BL5     -0.032400
     14 C14        -8.5170   -1.1300    2.7420 c3        1 BL5     -0.040200
     15 N15        -9.1020   -1.6330    3.9930 nz        1 BL5      0.096400
     16 N16        -4.7680   -1.3240   -0.9510 ny        1 BL5      0.134700
     17 C17        -5.9460   -1.0140   -1.5290 c         1 BL5      0.391100
     18 O18        -6.5960   -0.0760   -1.1150 o         1 BL5     -0.475100
     19 C19        -6.4560   -1.8320   -2.6860 c3        1 BL5     -0.149700
     20 C20        -6.6310   -3.2860   -2.2450 c3        1 BL5     -0.039400
     21 C21        -6.9910   -4.1470   -3.4580 c3        1 BL5     -0.018900
     22 C22        -7.0600   -5.6170   -3.0380 c3        1 BL5     -0.022400
     23 C23        -7.4190   -6.4780   -4.2510 c3        1 BL5      0.012900
     24 C24        -7.8020   -1.2740   -3.1520 c3        1 BL5      0.022300
     25 N25        -8.2180   -1.9600   -4.3820 ny        1 BL5     -0.204300
     26 N26        -9.4970   -1.3860   -4.7690 ny        1 BL5     -0.204300
     27 C27        -9.9130   -2.0720   -5.9990 c3        1 BL5      0.022300
     28 C32       -11.3130   -1.6020   -6.3970 c3        1 BL5     -0.149700
     29 C31       -11.7730   -2.3660   -7.6410 c3        1 BL5     -0.039400
     30 C30       -11.9240   -3.8500   -7.3010 c3        1 BL5     -0.018900
     31 C29       -12.2720   -4.6300   -8.5700 c3        1 BL5     -0.022400
     32 C28       -12.4230   -6.1150   -8.2290 c3        1 BL5      0.012900
     33 C34       -11.2800   -0.1260   -6.6990 c         1 BL5      0.391100
     34 O33       -10.2390    0.4900   -6.6030 o         1 BL5     -0.475100
     35 N35       -12.4080    0.5110   -7.0720 ny        1 BL5      0.134700
     36 C41       -12.3750    1.9470   -7.3650 c3        1 BL5     -0.130000
     37 C40       -11.9460    2.1610   -8.8180 c3        1 BL5     -0.034400
     38 C39       -10.5060    1.6800   -9.0010 c3        1 BL5     -0.031900
     39 C38       -10.0770    1.8940  -10.4530 c3        1 BL5     -0.032400
     40 C37        -8.6360    1.4120  -10.6370 c3        1 BL5     -0.040200
     41 N36        -8.2240    1.6180  -12.0310 nz        1 BL5      0.096400
     42 C43       -13.7470    2.5330   -7.1550 c         1 BL5      0.492100
     43 O42       -14.6630    1.8210   -6.7960 o         1 BL5     -0.611600
     44 N44       -13.9590    3.8470   -7.3650 ns        1 BL5      0.152900
     45 C45       -15.2020    4.4130   -7.0610 ca        1 BL5     -0.167900
     46 C46       -15.7020    5.4490   -7.8380 ca        1 BL5     -0.075250
     47 C47       -16.9300    6.0070   -7.5350 ca        1 BL5     -0.053500
     48 C48       -17.6590    5.5340   -6.4600 ca        1 BL5      0.039000
     49 C49       -17.1620    4.5030   -5.6830 ca        1 BL5     -0.053500
     50 C50       -15.9390    3.9370   -5.9850 ca        1 BL5     -0.075250
     51 H5         -0.5410    0.0630   -0.9360 ha        1 BL5      0.117250
     52 H4          1.9230    0.0010   -0.9380 ha        1 BL5      0.143750
     53 H3          3.1580   -0.0050    1.1940 ha        1 BL5      0.145000
     54 H2          1.9330    0.0070    3.3330 ha        1 BL5      0.143750
     55 H1         -0.5300    0.0760    3.3430 ha        1 BL5      0.117250
     56 HN7        -2.5880    0.5510    1.8950 hn        1 BL5      0.169000
     57 H10        -4.5550    0.5080    0.0360 hx        1 BL5      0.107200
     58 H111       -4.6730   -2.1110    1.5730 hc        1 BL5      0.073200
     59 H112       -4.4490   -0.5220    2.3170 hc        1 BL5      0.073200
     60 H121       -6.8280   -1.3600    0.6190 hc        1 BL5      0.012700
     61 H122       -6.6030    0.2290    1.3630 hc        1 BL5      0.012700
     62 H131       -6.7960   -2.4120    2.8570 hc        1 BL5      0.057700
     63 H132       -6.5710   -0.8230    3.6010 hc        1 BL5      0.057700
     64 H141       -8.9500   -1.6600    1.9020 hx        1 BL5      0.071950
     65 H142       -8.7250   -0.0710    2.6460 hx        1 BL5      0.071950
     66 H151       -8.9110   -2.6120    4.0800 hn        1 BL5      0.240467
     67 H152       -8.7010   -1.1440    4.7690 hn        1 BL5      0.240467
     68 H16        -4.0710   -1.2790   -1.6680 hn        1 BL5      0.297300
     69 H19        -5.7440   -1.7850   -3.5020 hc        1 BL5      0.092200
     70 H201       -7.4250   -3.3480   -1.5110 hc        1 BL5      0.049700
     71 H202       -5.7070   -3.6450   -1.8090 hc        1 BL5      0.049700
     72 H211       -7.9530   -3.8380   -3.8480 hc        1 BL5      0.010200
     73 H212       -6.2340   -4.0260   -4.2240 hc        1 BL5      0.010200
     74 H221       -6.0980   -5.9270   -2.6470 hc        1 BL5      0.036450
     75 H222       -7.8160   -5.7390   -2.2720 hc        1 BL5      0.036450
     76 H231       -6.7880   -6.2040   -5.0870 hc        1 BL5      0.023533
     77 H232       -7.2660   -7.5230   -4.0100 hc        1 BL5      0.023533
     78 H233       -8.4570   -6.3160   -4.5140 hc        1 BL5      0.023533
     79 H241       -8.5450   -1.4340   -2.3800 hx        1 BL5      0.096200
     80 H242       -7.7050   -0.2120   -3.3450 hx        1 BL5      0.096200
     81 H25        -7.5420   -1.8080   -5.1040 hn        1 BL5      0.318300
     82 H26        -9.3940   -0.4050   -4.9420 hn        1 BL5      0.318300
     83 H271       -9.2150   -1.8420   -6.7950 hx        1 BL5      0.096200
     84 H272       -9.9260   -3.1420   -5.8290 hx        1 BL5      0.096200
     85 H32       -12.0020   -1.7890   -5.5830 hc        1 BL5      0.092200
     86 H311      -12.7270   -1.9730   -7.9730 hc        1 BL5      0.049700
     87 H312      -11.0400   -2.2480   -8.4290 hc        1 BL5      0.049700
     88 H301      -10.9930   -4.2230   -6.8920 hc        1 BL5      0.010200
     89 H302      -12.7150   -3.9750   -6.5710 hc        1 BL5      0.010200
     90 H291      -11.4810   -4.5050   -9.3000 hc        1 BL5      0.036450
     91 H292      -13.2030   -4.2570   -8.9800 hc        1 BL5      0.036450
     92 H281      -12.7100   -6.6620   -9.1190 hc        1 BL5      0.023533
     93 H282      -13.1860   -6.2350   -7.4700 hc        1 BL5      0.023533
     94 H283      -11.4800   -6.4980   -7.8580 hc        1 BL5      0.023533
     95 H35       -12.7410    0.0530   -7.8970 hn        1 BL5      0.297300
     96 H41       -11.6690    2.4340   -6.7050 hx        1 BL5      0.107200
     97 H401      -12.0080    3.2150   -9.0610 hc        1 BL5      0.073200
     98 H402      -12.6010    1.6000   -9.4740 hc        1 BL5      0.073200
     99 H391       -9.8520    2.2410   -8.3450 hc        1 BL5      0.012700
    100 H392      -10.4440    0.6260   -8.7580 hc        1 BL5      0.012700
    101 H381      -10.7320    1.3340  -11.1100 hc        1 BL5      0.057700
    102 H382      -10.1380    2.9480  -10.6960 hc        1 BL5      0.057700
    103 H371       -7.9810    1.9720   -9.9800 hx        1 BL5      0.071950
    104 H372       -8.5750    0.3580  -10.3940 hx        1 BL5      0.071950
    105 H361       -8.8290    1.0990  -12.6380 hn        1 BL5      0.240467
    106 H362       -8.2820    2.5920  -12.2560 hn        1 BL5      0.240467
    107 H44       -13.2160    4.4250   -7.7050 hn        1 BL5      0.169000
    108 H46       -15.1070    5.8560   -8.6470 ha        1 BL5      0.117250
    109 H47       -17.3220    6.8150   -8.1410 ha        1 BL5      0.143750
    110 H48       -18.6210    5.9720   -6.2250 ha        1 BL5      0.145000
    111 H49       -17.7370    4.1330   -4.8420 ha        1 BL5      0.143750
    112 H50       -15.5500    3.1300   -5.3760 ha        1 BL5      0.117250
    113 H153      -10.0920   -1.4860    3.9810 hn        1 BL5      0.240467
    114 H162       -4.8400   -2.2690   -0.6290 hn        1 BL5      0.297300
    115 H252       -8.3200   -2.9400   -4.2100 hn        1 BL5      0.318300
    116 H262      -10.1730   -1.5380   -4.0470 hn        1 BL5      0.318300
    117 H352      -13.0740    0.3800   -6.3370 hn        1 BL5      0.297300
    118 H363       -7.2820    1.3040  -12.1510 hn        1 BL5      0.240467
@<TRIPOS>BOND
     1    1    2 ar  
     2    1    6 ar  
     3    1   51 1   
     4    2    3 ar  
     5    2   52 1   
     6    3    4 ar  
     7    3   53 1   
     8    4    5 ar  
     9    4   54 1   
    10    5    6 ar  
    11    5   55 1   
    12    6    7 1   
    13    7    8 1   
    14    7   56 1   
    15    8    9 2   
    16    8   10 1   
    17   10   11 1   
    18   10   16 1   
    19   10   57 1   
    20   11   12 1   
    21   11   58 1   
    22   11   59 1   
    23   12   13 1   
    24   12   60 1   
    25   12   61 1   
    26   13   14 1   
    27   13   62 1   
    28   13   63 1   
    29   14   15 1   
    30   14   64 1   
    31   14   65 1   
    32   15   66 1   
    33   15   67 1   
    34   15  113 1   
    35   16   17 1   
    36   16   68 1   
    37   16  114 1   
    38   17   18 2   
    39   17   19 1   
    40   19   20 1   
    41   19   24 1   
    42   19   69 1   
    43   20   21 1   
    44   20   70 1   
    45   20   71 1   
    46   21   22 1   
    47   21   72 1   
    48   21   73 1   
    49   22   23 1   
    50   22   74 1   
    51   22   75 1   
    52   23   76 1   
    53   23   77 1   
    54   23   78 1   
    55   24   25 1   
    56   24   79 1   
    57   24   80 1   
    58   25   26 1   
    59   25   81 1   
    60   25  115 1   
    61   26   27 1   
    62   26   82 1   
    63   26  116 1   
    64   27   28 1   
    65   27   83 1   
    66   27   84 1   
    67   28   29 1   
    68   28   33 1   
    69   28   85 1   
    70   29   30 1   
    71   29   86 1   
    72   29   87 1   
    73   30   31 1   
    74   30   88 1   
    75   30   89 1   
    76   31   32 1   
    77   31   90 1   
    78   31   91 1   
    79   32   92 1   
    80   32   93 1   
    81   32   94 1   
    82   33   34 2   
    83   33   35 1   
    84   35   36 1   
    85   35   95 1   
    86   35  117 1   
    87   36   37 1   
    88   36   42 1   
    89   36   96 1   
    90   37   38 1   
    91   37   97 1   
    92   37   98 1   
    93   38   39 1   
    94   38   99 1   
    95   38  100 1   
    96   39   40 1   
    97   39  101 1   
    98   39  102 1   
    99   40   41 1   
   100   40  103 1   
   101   40  104 1   
   102   41  105 1   
   103   41  106 1   
   104   41  118 1   
   105   42   43 2   
   106   42   44 1   
   107   44   45 1   
   108   44  107 1   
   109   45   46 ar  
   110   45   50 ar  
   111   46   47 ar  
   112   46  108 1   
   113   47   48 ar  
   114   47  109 1   
   115   48   49 ar  
   116   48  110 1   
   117   49   50 ar  
   118   49  111 1   
   119   50  112 1   
@<TRIPOS>SUBSTRUCTURE
     1 BL5         1 TEMP              0 ****  ****    0 ROOT
