@<TRIPOS>MOLECULE
BL5
  112   108     1     0     0
SMALL
bcc


@<TRIPOS>ATOM
      1 C5          2.7350    1.9220   -2.1990 c1        1 BL5     -0.182000
      2 C4          2.8290    2.1530   -3.5860 c1        1 BL5     -0.132667
      3 C3          4.0680    2.3580   -4.1750 c1        1 BL5     -0.132667
      4 C2          5.2320    2.3340   -3.3880 c1        1 BL5     -0.132667
      5 C1          5.1390    2.1050   -2.0150 c1        1 BL5     -0.132667
      6 C6          3.8780    1.8980   -1.4220 c1        1 BL5      0.074000
      7 N7          3.7770    1.6140    0.0200 n         1 BL5     -0.316000
      8 C8          4.5920    0.5460    0.6130 c2        1 BL5      0.287000
      9 O9          5.3580   -0.1090   -0.0980 o         1 BL5     -0.357000
     10 C10         4.5320    0.2770    2.1220 c3        1 BL5      0.009000
     11 C11         5.9410    0.5240    2.7450 c3        1 BL5     -0.162000
     12 C12         6.0660    2.0180    3.1670 c3        1 BL5     -0.156000
     13 C13         7.4230    2.5960    2.6480 c3        1 BL5     -0.199000
     14 C14         7.2280    4.0740    2.2420 c3        1 BL5     -0.086000
     15 N15         8.3370    4.4990    1.4240 n3        1 BL5     -0.337000
     16 N16         4.1490   -1.0380    2.3420 n         1 BL5     -0.377000
     17 C17         2.7800   -1.3420    2.7290 c2        1 BL5      0.312000
     18 O18         2.0740   -0.4630    3.2430 o         1 BL5     -0.394000
     19 C19         2.2610   -2.7690    2.6250 c3        1 BL5     -0.116000
     20 C20         2.6790   -3.5370    3.8310 c3        1 BL5     -0.162000
     21 C21         3.4330   -4.8340    3.3910 c3        1 BL5     -0.161000
     22 C22         4.3560   -5.2810    4.5060 c3        1 BL5     -0.160000
     23 C23         5.6990   -5.7230    3.9130 c3        1 BL5     -0.212000
     24 C24         0.7000   -2.7540    2.5270 c3        1 BL5     -0.099000
     25 N25         0.2900   -3.1350    1.1720 n3        1 BL5     -0.232000
     26 N26        -1.0780   -2.7870    0.9700 n3        1 BL5     -0.208000
     27 C27        -1.4990   -3.2020   -0.3800 c3        1 BL5     -0.085000
     28 C32        -2.9290   -2.7200   -0.6380 c3        1 BL5     -0.121000
     29 C31        -3.6860   -3.7630   -1.4490 c3        1 BL5     -0.152000
     30 C30        -4.6770   -4.5390   -0.5060 c3        1 BL5     -0.159000
     31 C29        -5.7500   -5.2010   -1.3310 c3        1 BL5     -0.159000
     32 C28        -6.9470   -5.5530   -0.4240 c3        1 BL5     -0.211000
     33 C34        -2.8830   -1.4240   -1.4030 c2        1 BL5      0.321000
     34 O33        -1.8470   -1.1020   -2.0090 o         1 BL5     -0.371000
     35 N35        -4.0640   -0.6050   -1.5190 n         1 BL5     -0.371000
     36 C41        -3.9620    0.7070   -2.0680 c3        1 BL5      0.014000
     37 C40        -4.8580    0.8200   -3.3090 c3        1 BL5     -0.169000
     38 C39        -4.2690    1.8860   -4.2810 c3        1 BL5     -0.161000
     39 C38        -5.3840    2.4230   -5.1820 c3        1 BL5     -0.159000
     40 C37        -5.2720    3.9740   -5.2840 c3        1 BL5     -0.078000
     41 N36        -6.4590    4.4990   -5.8890 n3        1 BL5     -0.348000
     42 C43        -4.4010    1.7240   -1.0350 c2        1 BL5      0.287000
     43 O42        -5.3800    1.5090   -0.3490 o         1 BL5     -0.357000
     44 N44        -3.7100    2.9570   -0.9130 n         1 BL5     -0.313000
     45 C45        -4.1780    3.9530    0.0320 c2        1 BL5      0.071000
     46 C46        -5.4140    4.5760   -0.1660 c2        1 BL5     -0.148000
     47 C47        -5.8560    5.5430    0.7270 c1        1 BL5     -0.107000
     48 C48        -5.0670    5.8940    1.8220 c1        1 BL5     -0.132667
     49 C49        -3.8390    5.2760    2.0200 c1        1 BL5     -0.132667
     50 C50        -3.3930    4.3000    1.1190 c1        1 BL5     -0.183000
     51 H5          1.8620    1.7780   -1.7870 ha        1 BL5      0.142000
     52 H4          2.0290    2.1700   -4.1260 ha        1 BL5      0.138333
     53 H3          4.1310    2.5190   -5.1380 ha        1 BL5      0.138333
     54 H2          6.0850    2.4760   -3.7940 ha        1 BL5      0.138333
     55 H1          5.9470    2.0890   -1.4670 ha        1 BL5      0.138333
     56 HN7         3.1630    2.0430    0.5210 hn        1 BL5      0.258000
     57 H10         3.8860    0.8750    2.5350 h1        1 BL5      0.132000
     58 H111        6.6090    0.3200    2.1050 hc        1 BL5      0.099000
     59 H112        6.0570   -0.0460    3.5270 hc        1 BL5      0.099000
     60 H121        5.3460    2.5150    2.7900 hc        1 BL5      0.091500
     61 H122        6.0340    2.0860    4.1400 hc        1 BL5      0.091500
     62 H131        8.1050    2.5360    3.3660 hc        1 BL5      0.079000
     63 H132        7.7240    2.0750    1.8620 hc        1 BL5      0.079000
     64 H141        6.3980    4.1640    1.7360 h1        1 BL5      0.093000
     65 H142        7.1820    4.6350    3.0510 h1        1 BL5      0.093000
     66 H151        9.1120    4.3740    1.8770 hn        1 BL5      0.140000
     67 H152        8.3530    4.0070    0.6520 hn        1 BL5      0.140000
     68 H16         4.7830   -1.7290    2.2760 hn        1 BL5      0.237000
     69 H19         2.6340   -3.1950    1.8180 hc        1 BL5      0.132000
     70 H201        3.2790   -2.9780    4.3850 hc        1 BL5      0.093500
     71 H202        1.8890   -3.7790    4.3510 hc        1 BL5      0.093500
     72 H211        2.7750   -5.5510    3.1980 hc        1 BL5      0.080500
     73 H212        3.9590   -4.6480    2.5850 hc        1 BL5      0.080500
     74 H221        3.9530   -6.0200    4.9800 hc        1 BL5      0.081000
     75 H222        4.5050   -4.5220    5.1390 hc        1 BL5      0.081000
     76 H231        5.5640   -6.5320    3.3480 hc        1 BL5      0.075333
     77 H232        6.3330   -5.9350    4.6500 hc        1 BL5      0.075333
     78 H233        6.0720   -4.9920    3.3570 hc        1 BL5      0.075333
     79 H241        0.3290   -3.3880    3.1680 h1        1 BL5      0.082000
     80 H242        0.3660   -1.8510    2.7280 h1        1 BL5      0.082000
     81 H25         0.7940   -2.7110    0.5810 hn        1 BL5      0.198000
     82 H26        -1.5910   -3.2060    1.5880 hn        1 BL5      0.122000
     83 H271       -0.8970   -2.8050   -1.0460 h1        1 BL5      0.097000
     84 H272       -1.4640   -4.1710   -0.4470 h1        1 BL5      0.097000
     85 H32        -3.3880   -2.5790    0.2250 hc        1 BL5      0.097000
     86 H311       -4.1930   -3.3170   -2.1640 hc        1 BL5      0.101000
     87 H312       -3.0230   -4.4210   -1.8590 hc        1 BL5      0.101000
     88 H301       -5.0990   -3.8960    0.1340 hc        1 BL5      0.077500
     89 H302       -4.1800   -5.2270   -0.0030 hc        1 BL5      0.077500
     90 H291       -6.0410   -4.5960   -2.0300 hc        1 BL5      0.082500
     91 H292       -5.3990   -6.0070   -1.7290 hc        1 BL5      0.082500
     92 H281       -7.1700   -4.7770    0.1430 hc        1 BL5      0.072667
     93 H282       -6.7110   -6.3160    0.1450 hc        1 BL5      0.072667
     94 H283       -7.7250   -5.7860   -0.9820 hc        1 BL5      0.072667
     95 H35        -4.8850   -0.9330   -1.2550 hn        1 BL5      0.234000
     96 H41        -3.0400    0.8780   -2.3200 h1        1 BL5      0.136000
     97 H401       -4.9010   -0.0600   -3.7680 hc        1 BL5      0.102000
     98 H402       -5.7400    1.0850   -3.0430 hc        1 BL5      0.102000
     99 H391       -3.8900    2.6080   -3.7720 hc        1 BL5      0.085000
    100 H392       -3.5930    1.4860   -4.8170 hc        1 BL5      0.085000
    101 H381       -6.2500    2.1860   -4.8020 hc        1 BL5      0.088500
    102 H382       -5.3010    2.0290   -6.0740 hc        1 BL5      0.088500
    103 H371       -5.1710    4.3500   -4.3940 h1        1 BL5      0.064500
    104 H372       -4.4970    4.2100   -5.8280 h1        1 BL5      0.064500
    105 H361       -6.2520    4.8520   -6.7190 hn        1 BL5      0.143500
    106 H362       -6.8110    5.1650   -5.3490 hn        1 BL5      0.143500
    107 H44        -2.9160    3.0840   -1.3570 hn        1 BL5      0.238000
    108 H46        -5.9620    4.3330   -0.9250 ha        1 BL5      0.167000
    109 H47        -6.7320    5.9840    0.5860 ha        1 BL5      0.134000
    110 H48        -5.3810    6.5820    2.4570 ha        1 BL5      0.138333
    111 H49        -3.2750    5.5280    2.8030 ha        1 BL5      0.138333
    112 H50        -2.5380    3.8690    1.2560 ha        1 BL5      0.131000
@<TRIPOS>BOND
     1    1    6 1   
     2    1   51 1   
     3    2    3 1   
     4    2   52 1   
     5    3   53 1   
     6    4    5 1   
     7    4   54 1   
     8    5   55 1   
     9    6    7 1   
    10    7    8 1   
    11    7   56 1   
    12    8    9 1   
    13    8   10 1   
    14   10   11 1   
    15   10   16 1   
    16   10   57 1   
    17   11   12 1   
    18   11   58 1   
    19   11   59 1   
    20   12   13 1   
    21   12   60 1   
    22   12   61 1   
    23   13   14 1   
    24   13   62 1   
    25   13   63 1   
    26   14   15 1   
    27   14   64 1   
    28   14   65 1   
    29   15   66 1   
    30   15   67 1   
    31   16   17 1   
    32   16   68 1   
    33   17   18 1   
    34   17   19 1   
    35   19   20 1   
    36   19   24 1   
    37   19   69 1   
    38   20   21 1   
    39   20   70 1   
    40   20   71 1   
    41   21   22 1   
    42   21   72 1   
    43   21   73 1   
    44   22   23 1   
    45   22   74 1   
    46   22   75 1   
    47   23   76 1   
    48   23   77 1   
    49   23   78 1   
    50   24   25 1   
    51   24   79 1   
    52   24   80 1   
    53   25   26 1   
    54   25   81 1   
    55   26   27 1   
    56   26   82 1   
    57   27   28 1   
    58   27   83 1   
    59   27   84 1   
    60   28   29 1   
    61   28   33 1   
    62   28   85 1   
    63   29   30 1   
    64   29   86 1   
    65   29   87 1   
    66   30   31 1   
    67   30   88 1   
    68   30   89 1   
    69   31   32 1   
    70   31   90 1   
    71   31   91 1   
    72   32   92 1   
    73   32   93 1   
    74   32   94 1   
    75   33   34 1   
    76   33   35 1   
    77   35   36 1   
    78   35   95 1   
    79   36   37 1   
    80   36   42 1   
    81   36   96 1   
    82   37   38 1   
    83   37   97 1   
    84   37   98 1   
    85   38   39 1   
    86   38   99 1   
    87   38  100 1   
    88   39   40 1   
    89   39  101 1   
    90   39  102 1   
    91   40   41 1   
    92   40  103 1   
    93   40  104 1   
    94   41  105 1   
    95   41  106 1   
    96   42   43 1   
    97   42   44 1   
    98   44   45 1   
    99   44  107 1   
   100   45   46 1   
   101   45   50 1   
   102   46   47 1   
   103   46  108 1   
   104   47  109 1   
   105   48   49 1   
   106   48  110 1   
   107   49  111 1   
   108   50  112 1   
@<TRIPOS>SUBSTRUCTURE
     1 BL5         1 TEMP              0 ****  ****    0 ROOT
