@<TRIPOS>MOLECULE
BL5
  112   113     1     0     0
SMALL
bcc


@<TRIPOS>ATOM
      1 C5         -7.6510   -1.9340   -2.0670 ca        1 BL5     -0.169500
      2 C4         -8.3310   -1.9690   -3.2820 ca        1 BL5     -0.105750
      3 C3         -7.6480   -2.1540   -4.4810 ca        1 BL5     -0.159500
      4 C2         -6.2620   -2.3060   -4.4640 ca        1 BL5     -0.105750
      5 C1         -5.5610   -2.2740   -3.2640 ca        1 BL5     -0.169500
      6 C6         -6.2480   -2.0860   -2.0380 ca        1 BL5      0.064100
      7 N7         -5.4940   -2.0650   -0.8540 n         1 BL5     -0.462600
      8 C8         -5.9550   -1.8660    0.4320 c         1 BL5      0.644600
      9 O9         -7.1470   -1.6770    0.7320 o         1 BL5     -0.596100
     10 C10        -4.8600   -1.9020    1.5410 c3        1 BL5      0.036700
     11 C11        -5.5640   -2.0390    2.8970 c3        1 BL5     -0.085400
     12 C12        -4.5830   -2.3010    4.0180 c3        1 BL5     -0.080900
     13 C13        -5.3150   -2.5610    5.3180 c3        1 BL5     -0.083900
     14 C14        -4.3130   -2.8040    6.4460 c3        1 BL5      0.160800
     15 N15        -4.9390   -3.1290    7.7050 n3        1 BL5     -0.916800
     16 N16        -4.0010   -0.7490    1.4580 n         1 BL5     -0.567400
     17 C17        -2.8660   -0.7250    0.6730 c         1 BL5      0.672100
     18 O18        -2.5940   -1.6950   -0.0680 o         1 BL5     -0.640100
     19 C19        -2.0000    0.5330    0.7440 c3        1 BL5     -0.130200
     20 C20        -1.4530    0.7200    2.1550 c3        1 BL5     -0.084400
     21 C21        -2.1040    1.8880    2.8670 c3        1 BL5     -0.080400
     22 C22        -1.5600    2.0420    4.2720 c3        1 BL5     -0.081400
     23 C23        -2.1970    3.2050    4.9870 c3        1 BL5     -0.094100
     24 C24        -0.8790    0.4150   -0.3010 c3        1 BL5      0.158300
     25 N25        -0.4290    1.7120   -0.8270 n3        1 BL5     -0.606000
     26 N26         0.3500    2.4440    0.0660 n3        1 BL5     -0.606000
     27 C27         1.1850    3.4890   -0.5430 c3        1 BL5      0.158300
     28 C32         2.6830    3.1500   -0.4510 c3        1 BL5     -0.130200
     29 C31         3.5080    4.3710   -0.8410 c3        1 BL5     -0.084400
     30 C30         3.6540    5.3430    0.3110 c3        1 BL5     -0.080400
     31 C29         4.4780    6.5470   -0.0950 c3        1 BL5     -0.081400
     32 C28         4.6300    7.5210    1.0450 c3        1 BL5     -0.094100
     33 C34         3.0210    1.9770   -1.3640 c         1 BL5      0.672100
     34 O33         2.2290    1.5420   -2.2290 o         1 BL5     -0.640100
     35 N35         4.2600    1.3910   -1.2040 n         1 BL5     -0.567400
     36 C41         4.7520    0.3590   -2.0810 c3        1 BL5      0.036700
     37 C40         6.2750    0.3940   -2.2590 c3        1 BL5     -0.085400
     38 C39         6.7360    1.6590   -2.9480 c3        1 BL5     -0.080900
     39 C38         8.2220    1.6020   -3.2330 c3        1 BL5     -0.083900
     40 C37         8.6800    2.8970   -3.9020 c3        1 BL5      0.160800
     41 N36        10.0730    2.8860   -4.2750 n3        1 BL5     -0.916800
     42 C43         4.3620   -1.0560   -1.5570 c         1 BL5      0.644600
     43 O42         5.2320   -1.8230   -1.1090 o         1 BL5     -0.596100
     44 N44         3.0200   -1.3620   -1.6470 n         1 BL5     -0.462600
     45 C45         2.3850   -2.5340   -1.2000 ca        1 BL5      0.064100
     46 C46         0.9690   -2.5590   -1.1750 ca        1 BL5     -0.169500
     47 C47         0.2910   -3.6890   -0.7330 ca        1 BL5     -0.105750
     48 C48         0.9950   -4.8200   -0.3200 ca        1 BL5     -0.159500
     49 C49         2.3870   -4.8090   -0.3510 ca        1 BL5     -0.105750
     50 C50         3.0870   -3.6850   -0.7830 ca        1 BL5     -0.169500
     51 H5         -8.2200   -1.7870   -1.1350 ha        1 BL5      0.151750
     52 H4         -9.4250   -1.8490   -3.2860 ha        1 BL5      0.135000
     53 H3         -8.1950   -2.1800   -5.4340 ha        1 BL5      0.131000
     54 H2         -5.7130   -2.4520   -5.4060 ha        1 BL5      0.135000
     55 H1         -4.4670   -2.3960   -3.2780 ha        1 BL5      0.151750
     56 HN7        -4.5070   -2.1990   -0.9680 hn        1 BL5      0.342000
     57 H10        -4.2270   -2.8290    1.3710 h1        1 BL5      0.090700
     58 H111       -6.1700   -1.1200    3.1110 hc        1 BL5      0.069950
     59 H112       -6.2880   -2.8920    2.8140 hc        1 BL5      0.069950
     60 H121       -3.9430   -3.1870    3.7630 hc        1 BL5      0.041450
     61 H122       -3.8960   -1.4230    4.1440 hc        1 BL5      0.041450
     62 H131       -5.9680   -1.6830    5.5660 hc        1 BL5      0.050950
     63 H132       -5.9840   -3.4540    5.2030 hc        1 BL5      0.050950
     64 H141       -3.6550   -3.6750    6.1650 h1        1 BL5      0.023450
     65 H142       -3.6430   -1.8950    6.5180 h1        1 BL5      0.023450
     66 H151       -4.2560   -3.1650    8.4350 hn        1 BL5      0.349550
     67 H152       -5.6430   -2.4600    7.9440 hn        1 BL5      0.349550
     68 H16        -4.2160    0.0260    2.0370 hn        1 BL5      0.322000
     69 H19        -2.6590    1.4080    0.4730 hc        1 BL5      0.083700
     70 H201       -0.3440    0.8870    2.1170 hc        1 BL5      0.055700
     71 H202       -1.6040   -0.2140    2.7600 hc        1 BL5      0.055700
     72 H211       -3.2150    1.7430    2.9130 hc        1 BL5      0.039450
     73 H212       -1.9200    2.8320    2.2890 hc        1 BL5      0.039450
     74 H221       -0.4480    2.1880    4.2280 hc        1 BL5      0.041700
     75 H222       -1.7450    1.0970    4.8500 hc        1 BL5      0.041700
     76 H231       -2.0020    4.1590    4.4390 hc        1 BL5      0.035200
     77 H232       -3.3020    3.0660    5.0630 hc        1 BL5      0.035200
     78 H233       -1.7810    3.3010    6.0190 hc        1 BL5      0.035200
     79 H241       -0.0500   -0.2110    0.1390 h1        1 BL5      0.058450
     80 H242       -1.2860   -0.1380   -1.1980 h1        1 BL5      0.058450
     81 H25         0.1400    1.5100   -1.6460 hn        1 BL5      0.373800
     82 H26        -0.3090    2.8970    0.6900 hn        1 BL5      0.373800
     83 H271        0.9400    3.6830   -1.6270 h1        1 BL5      0.058450
     84 H272        1.0250    4.4530    0.0180 h1        1 BL5      0.058450
     85 H32         2.9290    2.8580    0.6100 hc        1 BL5      0.083700
     86 H311        4.5330    4.0560   -1.1750 hc        1 BL5      0.055700
     87 H312        3.0250    4.8870   -1.7120 hc        1 BL5      0.055700
     88 H301        2.6430    5.6840    0.6570 hc        1 BL5      0.039450
     89 H302        4.1440    4.8300    1.1810 hc        1 BL5      0.039450
     90 H291        5.4920    6.2080   -0.4380 hc        1 BL5      0.041700
     91 H292        3.9890    7.0590   -0.9660 hc        1 BL5      0.041700
     92 H281        5.2410    8.3990    0.7250 hc        1 BL5      0.035200
     93 H282        3.6320    7.8910    1.3840 hc        1 BL5      0.035200
     94 H283        5.1370    7.0360    1.9140 hc        1 BL5      0.035200
     95 H35         4.8650    1.7050   -0.4840 hn        1 BL5      0.322000
     96 H41         4.2680    0.4990   -3.0970 h1        1 BL5      0.090700
     97 H401        6.7820    0.2810   -1.2650 hc        1 BL5      0.069950
     98 H402        6.5610   -0.5030   -2.8720 hc        1 BL5      0.069950
     99 H391        6.1740    1.7930   -3.9100 hc        1 BL5      0.041450
    100 H392        6.5110    2.5520   -2.3070 hc        1 BL5      0.041450
    101 H381        8.7840    1.4440   -2.2760 hc        1 BL5      0.050950
    102 H382        8.4460    0.7280   -3.9000 hc        1 BL5      0.050950
    103 H371        8.0820    3.0490   -4.8470 h1        1 BL5      0.023450
    104 H372        8.4240    3.7560   -3.2100 h1        1 BL5      0.023450
    105 H361       10.3560    3.7900   -4.5960 hn        1 BL5      0.349550
    106 H362       10.6530    2.6110   -3.5070 hn        1 BL5      0.349550
    107 H44         2.4130   -0.6510   -2.0060 hn        1 BL5      0.342000
    108 H46         0.3860   -1.6830   -1.5020 ha        1 BL5      0.151750
    109 H47        -0.8110   -3.6740   -0.7030 ha        1 BL5      0.135000
    110 H48         0.4540   -5.7110    0.0280 ha        1 BL5      0.131000
    111 H49         2.9510   -5.6980   -0.0300 ha        1 BL5      0.135000
    112 H50         4.1890   -3.7040   -0.7910 ha        1 BL5      0.151750
@<TRIPOS>BOND
     1    1    2 ar  
     2    1    6 ar  
     3    1   51 1   
     4    2    3 ar  
     5    2   52 1   
     6    3    4 ar  
     7    3   53 1   
     8    4    5 ar  
     9    4   54 1   
    10    5    6 ar  
    11    5   55 1   
    12    6    7 1   
    13    7    8 1   
    14    7   56 1   
    15    8    9 2   
    16    8   10 1   
    17   10   11 1   
    18   10   16 1   
    19   10   57 1   
    20   11   12 1   
    21   11   58 1   
    22   11   59 1   
    23   12   13 1   
    24   12   60 1   
    25   12   61 1   
    26   13   14 1   
    27   13   62 1   
    28   13   63 1   
    29   14   15 1   
    30   14   64 1   
    31   14   65 1   
    32   15   66 1   
    33   15   67 1   
    34   16   17 1   
    35   16   68 1   
    36   17   18 2   
    37   17   19 1   
    38   19   20 1   
    39   19   24 1   
    40   19   69 1   
    41   20   21 1   
    42   20   70 1   
    43   20   71 1   
    44   21   22 1   
    45   21   72 1   
    46   21   73 1   
    47   22   23 1   
    48   22   74 1   
    49   22   75 1   
    50   23   76 1   
    51   23   77 1   
    52   23   78 1   
    53   24   25 1   
    54   24   79 1   
    55   24   80 1   
    56   25   26 1   
    57   25   81 1   
    58   26   27 1   
    59   26   82 1   
    60   27   28 1   
    61   27   83 1   
    62   27   84 1   
    63   28   29 1   
    64   28   33 1   
    65   28   85 1   
    66   29   30 1   
    67   29   86 1   
    68   29   87 1   
    69   30   31 1   
    70   30   88 1   
    71   30   89 1   
    72   31   32 1   
    73   31   90 1   
    74   31   91 1   
    75   32   92 1   
    76   32   93 1   
    77   32   94 1   
    78   33   34 2   
    79   33   35 1   
    80   35   36 1   
    81   35   95 1   
    82   36   37 1   
    83   36   42 1   
    84   36   96 1   
    85   37   38 1   
    86   37   97 1   
    87   37   98 1   
    88   38   39 1   
    89   38   99 1   
    90   38  100 1   
    91   39   40 1   
    92   39  101 1   
    93   39  102 1   
    94   40   41 1   
    95   40  103 1   
    96   40  104 1   
    97   41  105 1   
    98   41  106 1   
    99   42   43 2   
   100   42   44 1   
   101   44   45 1   
   102   44  107 1   
   103   45   46 ar  
   104   45   50 ar  
   105   46   47 ar  
   106   46  108 1   
   107   47   48 ar  
   108   47  109 1   
   109   48   49 ar  
   110   48  110 1   
   111   49   50 ar  
   112   49  111 1   
   113   50  112 1   
@<TRIPOS>SUBSTRUCTURE
     1 BL5         1 TEMP              0 ****  ****    0 ROOT
