@<TRIPOS>MOLECULE
BL6
   38    41     1     0     0
SMALL
bcc


@<TRIPOS>ATOM
      1 C5         -0.0110   -0.0820   -0.0730 ca        1 BL6     -0.229600
      2 C4          1.4560   -0.0240   -0.0750 c         1 BL6      0.572700
      3 C3          2.0860    0.0760    1.3120 c3        1 BL6     -0.032500
      4 C2          3.5020   -0.5010    1.4530 c3        1 BL6     -0.111400
      5 C1          3.4980   -1.2420    2.8040 c3        1 BL6      0.222800
      6 C6         -0.7240    0.2390   -1.2330 ca        1 BL6     -0.050000
      7 C8         -2.8140   -0.0920   -0.0620 ca        1 BL6     -0.031300
      8 C10        -0.7070   -0.4470    1.1120 ca        1 BL6      0.220400
      9 C11         1.2450   -0.7310    2.3440 c2        1 BL6      0.679200
     10 C12         1.7640   -1.9380    4.4730 ca        1 BL6      0.171600
     11 C13         2.5780   -2.9720    4.9890 ca        1 BL6     -0.154000
     12 C14         2.2380   -3.6040    6.1810 ca        1 BL6     -0.109000
     13 C17         0.6120   -1.5580    5.1990 ca        1 BL6     -0.154000
     14 O2          2.1550    0.0160   -1.0910 o         1 BL6     -0.522100
     15 O1          2.0440    1.4290    1.7440 oh        1 BL6     -0.559800
     16 N1          2.1210   -1.2810    3.2830 nh        1 BL6     -0.623000
     17 C16         0.2870   -2.2100    6.3840 ca        1 BL6     -0.109000
     18 C15         1.0930   -3.2320    6.8820 ca        1 BL6     -0.150000
     19 N2         -0.0510   -0.9070    2.2710 ne        1 BL6     -0.634100
     20 C9         -2.1180   -0.4360    1.0980 ca        1 BL6     -0.131000
     21 C18        -4.2960   -0.0940   -0.0670 c3        1 BL6     -0.061800
     22 C7         -2.1120    0.2390   -1.2300 ca        1 BL6     -0.165000
     23 H2          4.2660    0.3130    1.4540 hc        1 BL6      0.077200
     24 H2A         3.7260   -1.1990    0.6100 hc        1 BL6      0.077200
     25 H1          4.1360   -0.7100    3.5610 h1        1 BL6      0.057200
     26 H1A         3.8900   -2.2880    2.6730 h1        1 BL6      0.057200
     27 H6         -0.1650    0.4970   -2.1470 ha        1 BL6      0.149000
     28 H13         3.4870   -3.2930    4.4600 ha        1 BL6      0.144000
     29 H14         2.8830   -4.4080    6.5670 ha        1 BL6      0.133000
     30 H17        -0.0400   -0.7470    4.8400 ha        1 BL6      0.144000
     31 HO1         2.5530    1.9380    1.0990 ho        1 BL6      0.416000
     32 H16        -0.6170   -1.9070    6.9330 ha        1 BL6      0.133000
     33 H15         0.8280   -3.7400    7.8200 ha        1 BL6      0.133000
     34 H9         -2.6750   -0.7070    2.0090 ha        1 BL6      0.153000
     35 H18        -4.6710   -1.0650   -0.4780 hc        1 BL6      0.050033
     36 H18A       -4.6910    0.7330   -0.7070 hc        1 BL6      0.050033
     37 H18B       -4.7040    0.0300    0.9660 hc        1 BL6      0.050033
     38 H7         -2.6660    0.5010   -2.1440 ha        1 BL6      0.138000
@<TRIPOS>BOND
     1    1    2 1   
     2    1    6 ar  
     3    1    8 ar  
     4    2    3 1   
     5    2   14 2   
     6    3    4 1   
     7    3    9 1   
     8    3   15 1   
     9    4    5 1   
    10    4   23 1   
    11    4   24 1   
    12    5   16 1   
    13    5   25 1   
    14    5   26 1   
    15    6   22 ar  
    16    6   27 1   
    17    7   20 ar  
    18    7   21 1   
    19    7   22 ar  
    20    8   19 1   
    21    8   20 ar  
    22    9   16 1   
    23    9   19 2   
    24   10   11 ar  
    25   10   13 ar  
    26   10   16 1   
    27   11   12 ar  
    28   11   28 1   
    29   12   18 ar  
    30   12   29 1   
    31   13   17 ar  
    32   13   30 1   
    33   15   31 1   
    34   17   18 ar  
    35   17   32 1   
    36   18   33 1   
    37   20   34 1   
    38   21   35 1   
    39   21   36 1   
    40   21   37 1   
    41   22   38 1   
@<TRIPOS>SUBSTRUCTURE
     1 BL6         1 TEMP              0 ****  ****    0 ROOT
