@<TRIPOS>MOLECULE
BL6
   38    35     1     0     0
SMALL
bcc


@<TRIPOS>ATOM
      1 C5         -0.5140    0.2320   -2.1810 c1        1 BL6     -0.229000
      2 C4          1.0450    0.0400   -2.1760 c1        1 BL6      0.263000
      3 C3          1.5970    0.0880   -1.2490 c3        1 BL6      0.028000
      4 C2          2.0630   -0.5580   -1.1910 c3        1 BL6     -0.156000
      5 C1          2.2650   -0.8200    0.3790 c3        1 BL6     -0.019000
      6 C6         -1.2240    0.2860   -3.4150 c2        1 BL6     -0.048000
      7 C8         -3.2620    0.4410   -2.2480 c1        1 BL6     -0.025000
      8 C10        -1.1540    0.2800   -1.0690 c1        1 BL6      0.062000
      9 C11         0.9020    0.2200   -0.0030 c2        1 BL6      0.118000
     10 C12         1.3230   -0.3560    2.2360 c1        1 BL6      0.077000
     11 C13         0.6960   -1.4010    2.8960 c1        1 BL6     -0.125000
     12 C14         0.6050   -1.3920    4.2790 c1        1 BL6     -0.125000
     13 C17         1.8590    0.6980    2.9590 c1        1 BL6     -0.161000
     14 O2          1.6330   -0.1620   -3.2220 o         1 BL6     -0.259000
     15 O1          2.4530    1.2040   -1.3500 oh        1 BL6     -0.288000
     16 N1          1.5140   -0.4200    0.8310 n3        1 BL6     -0.225000
     17 C16         1.7670    0.7070    4.3430 c1        1 BL6     -0.125000
     18 C15         1.1400   -0.3380    5.0020 c1        1 BL6     -0.125000
     19 N2         -0.5100    0.2490    0.0220 n1        1 BL6     -0.222000
     20 C9         -2.5810    0.3880   -1.0670 c2        1 BL6     -0.132000
     21 C18        -4.7610    0.6480   -2.2470 c2        1 BL6     -0.188000
     22 C7         -2.5900    0.3900   -3.4160 c2        1 BL6     -0.165000
     23 H2          1.5690   -1.3220   -1.5640 hc        1 BL6      0.125500
     24 H2A         2.9390   -0.3350   -1.5750 hc        1 BL6      0.125500
     25 H1          2.2690   -1.7870    0.5490 h1        1 BL6      0.098000
     26 H1A         3.0930   -0.3850    0.6770 h1        1 BL6      0.098000
     27 H6         -0.7360    0.2500   -4.2600 ha        1 BL6      0.150000
     28 H13         0.3180   -2.1440    2.3870 ha        1 BL6      0.140500
     29 H14         0.1630   -2.1280    4.7450 ha        1 BL6      0.140500
     30 H17         2.3000    1.4340    2.4950 ha        1 BL6      0.134000
     31 HO1         1.9960    1.9450   -1.1690 ho        1 BL6      0.217000
     32 H16         2.1450    1.4490    4.8520 ha        1 BL6      0.140500
     33 H15         1.0760   -0.3320    5.9770 ha        1 BL6      0.140500
     34 H9         -3.0660    0.4270   -0.2210 ha        1 BL6      0.153000
     35 H18        -4.9620    1.5800   -2.0180 ha        1 BL6      0.089333
     36 H18A       -5.1190    0.4450   -3.1370 ha        1 BL6      0.089333
     37 H18B       -5.1720    0.0530   -1.5870 ha        1 BL6      0.089333
     38 H7         -3.0760    0.4270   -4.2620 ha        1 BL6      0.139000
@<TRIPOS>BOND
     1    1    6 1   
     2    1    8 1   
     3    2    3 1   
     4    2   14 1   
     5    3    4 1   
     6    3    9 1   
     7    3   15 1   
     8    4    5 1   
     9    4   23 1   
    10    4   24 1   
    11    5   16 1   
    12    5   25 1   
    13    5   26 1   
    14    6   22 1   
    15    6   27 1   
    16    7   20 1   
    17    7   22 1   
    18    8   20 1   
    19    9   16 1   
    20    9   19 1   
    21   10   13 1   
    22   10   16 1   
    23   11   12 1   
    24   11   28 1   
    25   12   29 1   
    26   13   30 1   
    27   15   31 1   
    28   17   18 1   
    29   17   32 1   
    30   18   33 1   
    31   20   34 1   
    32   21   35 1   
    33   21   36 1   
    34   21   37 1   
    35   22   38 1   
@<TRIPOS>SUBSTRUCTURE
     1 BL6         1 TEMP              0 ****  ****    0 ROOT
