@<TRIPOS>MOLECULE
BL6
   38    41     1     0     0
SMALL
bcc


@<TRIPOS>ATOM
      1 C5          2.3620   -0.4810   -0.2680 ca        1 BL6     -0.247600
      2 C4          1.6650   -1.7760   -0.3450 c         1 BL6      0.571700
      3 C3          0.3530   -1.7920    0.4360 c3        1 BL6     -0.023500
      4 C2         -0.6630   -2.8760    0.0630 c3        1 BL6     -0.079400
      5 C1         -2.0120   -2.1410   -0.0530 c3        1 BL6      0.217800
      6 C6          3.7450   -0.4130   -0.4490 ca        1 BL6     -0.049000
      7 C8          3.6880    1.9800   -0.1010 ca        1 BL6     -0.033300
      8 C10         1.6120    0.7040   -0.0280 ca        1 BL6      0.200400
      9 C11        -0.3940   -0.4470    0.1790 c2        1 BL6      0.629200
     10 C12        -2.7900    0.2390   -0.0200 ca        1 BL6      0.166600
     11 C13        -3.9570   -0.0580   -0.7620 ca        1 BL6     -0.151500
     12 C14        -4.9890    0.8720   -0.8490 ca        1 BL6     -0.110000
     13 C17        -2.7040    1.4900    0.6310 ca        1 BL6     -0.151500
     14 O2          2.0870   -2.7670   -0.9410 o         1 BL6     -0.498100
     15 O1          0.6220   -1.9370    1.8200 oh        1 BL6     -0.558800
     16 N1         -1.7600   -0.7110    0.0910 nh        1 BL6     -0.615000
     17 C16        -3.7440    2.4080    0.5220 ca        1 BL6     -0.110000
     18 C15        -4.8880    2.1070   -0.2140 ca        1 BL6     -0.148000
     19 N2          0.2040    0.7150    0.0440 ne        1 BL6     -0.643100
     20 C9          2.3020    1.9320    0.0580 ca        1 BL6     -0.131000
     21 C18         4.4020    3.2740    0.0110 c3        1 BL6     -0.062800
     22 C7          4.4070    0.8060   -0.3590 ca        1 BL6     -0.163000
     23 H2         -0.3750   -3.3570   -0.9040 hc        1 BL6      0.086700
     24 H2A        -0.7060   -3.6600    0.8590 hc        1 BL6      0.086700
     25 H1         -2.4800   -2.3500   -1.0550 h1        1 BL6      0.058700
     26 H1A        -2.7240   -2.4710    0.7520 h1        1 BL6      0.058700
     27 H6          4.3020   -1.3400   -0.6630 ha        1 BL6      0.151000
     28 H13        -4.0680   -1.0220   -1.2800 ha        1 BL6      0.143500
     29 H14        -5.8890    0.6240   -1.4320 ha        1 BL6      0.133500
     30 H17        -1.8190    1.7560    1.2300 ha        1 BL6      0.143500
     31 HO1         1.2220   -1.2220    2.0750 ho        1 BL6      0.417000
     32 H16        -3.6570    3.3800    1.0300 ha        1 BL6      0.133500
     33 H15        -5.7050    2.8390   -0.2930 ha        1 BL6      0.134000
     34 H9          1.7400    2.8620    0.2410 ha        1 BL6      0.153000
     35 H18         4.8130    3.3920    1.0450 hc        1 BL6      0.050700
     36 H18A        5.2540    3.3200   -0.7120 hc        1 BL6      0.050700
     37 H18B        3.7170    4.1330   -0.1940 hc        1 BL6      0.050700
     38 H7          5.4980    0.8510   -0.4950 ha        1 BL6      0.139000
@<TRIPOS>BOND
     1    1    2 1   
     2    1    6 ar  
     3    1    8 ar  
     4    2    3 1   
     5    2   14 2   
     6    3    4 1   
     7    3    9 1   
     8    3   15 1   
     9    4    5 1   
    10    4   23 1   
    11    4   24 1   
    12    5   16 1   
    13    5   25 1   
    14    5   26 1   
    15    6   22 ar  
    16    6   27 1   
    17    7   20 ar  
    18    7   21 1   
    19    7   22 ar  
    20    8   19 1   
    21    8   20 ar  
    22    9   16 1   
    23    9   19 2   
    24   10   11 ar  
    25   10   13 ar  
    26   10   16 1   
    27   11   12 ar  
    28   11   28 1   
    29   12   18 ar  
    30   12   29 1   
    31   13   17 ar  
    32   13   30 1   
    33   15   31 1   
    34   17   18 ar  
    35   17   32 1   
    36   18   33 1   
    37   20   34 1   
    38   21   35 1   
    39   21   36 1   
    40   21   37 1   
    41   22   38 1   
@<TRIPOS>SUBSTRUCTURE
     1 BL6         1 TEMP              0 ****  ****    0 ROOT
