@<TRIPOS>MOLECULE
BL6
   38    41     1     0     0
SMALL
bcc


@<TRIPOS>ATOM
      1 C5         -0.0100   -0.0780   -0.0720 ca        1 BL6     -0.229600
      2 C4          1.4570   -0.0240   -0.0740 c         1 BL6      0.572700
      3 C3          2.0880    0.0730    1.3130 c3        1 BL6     -0.032500
      4 C2          3.5030   -0.5080    1.4530 c3        1 BL6     -0.111400
      5 C1          3.4960   -1.2500    2.8040 c3        1 BL6      0.222800
      6 C6         -0.7210    0.2460   -1.2320 ca        1 BL6     -0.050000
      7 C8         -2.8120   -0.0810   -0.0620 ca        1 BL6     -0.031300
      8 C10        -0.7060   -0.4430    1.1130 ca        1 BL6      0.220400
      9 C11         1.2450   -0.7330    2.3440 c2        1 BL6      0.679200
     10 C12         1.7600   -1.9430    4.4720 ca        1 BL6      0.171600
     11 C13         2.5720   -2.9810    4.9870 ca        1 BL6     -0.154000
     12 C14         2.2300   -3.6130    6.1780 ca        1 BL6     -0.109000
     13 C17         0.6100   -1.5610    5.1980 ca        1 BL6     -0.154000
     14 O2          2.1570    0.0150   -1.0900 o         1 BL6     -0.522100
     15 O1          2.0490    1.4260    1.7460 oh        1 BL6     -0.559800
     16 N1          2.1190   -1.2860    3.2830 nh        1 BL6     -0.623000
     17 C16         0.2830   -2.2140    6.3830 ca        1 BL6     -0.109000
     18 C15         1.0860   -3.2390    6.8800 ca        1 BL6     -0.150000
     19 N2         -0.0520   -0.9050    2.2710 ne        1 BL6     -0.634100
     20 C9         -2.1180   -0.4270    1.0980 ca        1 BL6     -0.131000
     21 C18        -4.2940   -0.0790   -0.0660 c3        1 BL6     -0.061800
     22 C7         -2.1100    0.2500   -1.2290 ca        1 BL6     -0.165000
     23 H2          3.7250   -1.2060    0.6100 hc        1 BL6      0.077200
     24 H2A         4.2690    0.3050    1.4550 hc        1 BL6      0.077200
     25 H1          4.1360   -0.7200    3.5610 h1        1 BL6      0.057200
     26 H1A         3.8860   -2.2970    2.6710 h1        1 BL6      0.057200
     27 H6         -0.1610    0.5030   -2.1460 ha        1 BL6      0.149000
     28 H13         3.4800   -3.3040    4.4570 ha        1 BL6      0.144000
     29 H14         2.8720   -4.4190    6.5630 ha        1 BL6      0.133000
     30 H17        -0.0400   -0.7470    4.8400 ha        1 BL6      0.144000
     31 HO1         2.5600    1.9340    1.1010 ho        1 BL6      0.416000
     32 H16        -0.6210   -1.9090    6.9320 ha        1 BL6      0.133000
     33 H15         0.8190   -3.7470    7.8170 ha        1 BL6      0.133000
     34 H9         -2.6750   -0.6980    2.0090 ha        1 BL6      0.153000
     35 H18        -4.6720   -1.0560   -0.4610 hc        1 BL6      0.050033
     36 H18A       -4.7010    0.0630    0.9650 hc        1 BL6      0.050033
     37 H18B       -4.6880    0.7380   -0.7190 hc        1 BL6      0.050033
     38 H7         -2.6620    0.5140   -2.1430 ha        1 BL6      0.138000
@<TRIPOS>BOND
     1    1    2 1   
     2    1    6 ar  
     3    1    8 ar  
     4    2    3 1   
     5    2   14 2   
     6    3    4 1   
     7    3    9 1   
     8    3   15 1   
     9    4    5 1   
    10    4   23 1   
    11    4   24 1   
    12    5   16 1   
    13    5   25 1   
    14    5   26 1   
    15    6   22 ar  
    16    6   27 1   
    17    7   20 ar  
    18    7   21 1   
    19    7   22 ar  
    20    8   19 1   
    21    8   20 ar  
    22    9   16 1   
    23    9   19 2   
    24   10   11 ar  
    25   10   13 ar  
    26   10   16 1   
    27   11   12 ar  
    28   11   28 1   
    29   12   18 ar  
    30   12   29 1   
    31   13   17 ar  
    32   13   30 1   
    33   15   31 1   
    34   17   18 ar  
    35   17   32 1   
    36   18   33 1   
    37   20   34 1   
    38   21   35 1   
    39   21   36 1   
    40   21   37 1   
    41   22   38 1   
@<TRIPOS>SUBSTRUCTURE
     1 BL6         1 TEMP              0 ****  ****    0 ROOT
