@<TRIPOS>MOLECULE
BL6
   38    41     1     0     0
SMALL
bcc


@<TRIPOS>ATOM
      1 C5         -0.0120   -0.0740   -0.0700 ca        1 BL6     -0.229600
      2 C4          1.4550   -0.0230   -0.0740 c         1 BL6      0.572700
      3 C3          2.0890    0.0710    1.3110 c3        1 BL6     -0.032500
      4 C2          3.5030   -0.5120    1.4480 c3        1 BL6     -0.111400
      5 C1          3.4970   -1.2560    2.7990 c3        1 BL6      0.222800
      6 C6         -0.7250    0.2520   -1.2280 ca        1 BL6     -0.050000
      7 C8         -2.8140   -0.0730   -0.0550 ca        1 BL6     -0.031300
      8 C10        -0.7070   -0.4400    1.1150 ca        1 BL6      0.220400
      9 C11         1.2460   -0.7350    2.3430 c2        1 BL6      0.679200
     10 C12         1.7630   -1.9480    4.4680 ca        1 BL6      0.171600
     11 C13         2.5740   -2.9870    4.9810 ca        1 BL6     -0.154000
     12 C14         2.2330   -3.6200    6.1730 ca        1 BL6     -0.109000
     13 C17         0.6140   -1.5650    5.1970 ca        1 BL6     -0.154000
     14 O2          2.1530    0.0160   -1.0920 o         1 BL6     -0.522100
     15 O1          2.0530    1.4230    1.7470 oh        1 BL6     -0.559800
     16 N1          2.1210   -1.2900    3.2790 nh        1 BL6     -0.623000
     17 C16         0.2890   -2.2180    6.3820 ca        1 BL6     -0.109000
     18 C15         1.0910   -3.2440    6.8760 ca        1 BL6     -0.150000
     19 N2         -0.0510   -0.9050    2.2720 ne        1 BL6     -0.634100
     20 C9         -2.1180   -0.4220    1.1030 ca        1 BL6     -0.131000
     21 C18        -4.2960   -0.0680   -0.0570 c3        1 BL6     -0.061800
     22 C7         -2.1130    0.2580   -1.2230 ca        1 BL6     -0.165000
     23 H2          4.2700    0.2990    1.4500 hc        1 BL6      0.077200
     24 H2A         3.7220   -1.2100    0.6040 hc        1 BL6      0.077200
     25 H1          4.1390   -0.7280    3.5550 h1        1 BL6      0.057200
     26 H1A         3.8850   -2.3030    2.6640 h1        1 BL6      0.057200
     27 H6         -0.1660    0.5100   -2.1430 ha        1 BL6      0.149000
     28 H13         3.4810   -3.3110    4.4500 ha        1 BL6      0.144000
     29 H14         2.8750   -4.4270    6.5560 ha        1 BL6      0.133000
     30 H17        -0.0350   -0.7500    4.8410 ha        1 BL6      0.144000
     31 HO1         2.5640    1.9310    1.1010 ho        1 BL6      0.416000
     32 H16        -0.6140   -1.9120    6.9330 ha        1 BL6      0.133000
     33 H15         0.8250   -3.7530    7.8140 ha        1 BL6      0.133000
     34 H9         -2.6750   -0.6930    2.0140 ha        1 BL6      0.153000
     35 H18        -4.6890    0.7660   -0.6900 hc        1 BL6      0.050033
     36 H18A       -4.6760   -1.0340   -0.4760 hc        1 BL6      0.050033
     37 H18B       -4.7020    0.0500    0.9770 hc        1 BL6      0.050033
     38 H7         -2.6670    0.5240   -2.1350 ha        1 BL6      0.138000
@<TRIPOS>BOND
     1    1    2 1   
     2    1    6 ar  
     3    1    8 ar  
     4    2    3 1   
     5    2   14 2   
     6    3    4 1   
     7    3    9 1   
     8    3   15 1   
     9    4    5 1   
    10    4   23 1   
    11    4   24 1   
    12    5   16 1   
    13    5   25 1   
    14    5   26 1   
    15    6   22 ar  
    16    6   27 1   
    17    7   20 ar  
    18    7   21 1   
    19    7   22 ar  
    20    8   19 1   
    21    8   20 ar  
    22    9   16 1   
    23    9   19 2   
    24   10   11 ar  
    25   10   13 ar  
    26   10   16 1   
    27   11   12 ar  
    28   11   28 1   
    29   12   18 ar  
    30   12   29 1   
    31   13   17 ar  
    32   13   30 1   
    33   15   31 1   
    34   17   18 ar  
    35   17   32 1   
    36   18   33 1   
    37   20   34 1   
    38   21   35 1   
    39   21   36 1   
    40   21   37 1   
    41   22   38 1   
@<TRIPOS>SUBSTRUCTURE
     1 BL6         1 TEMP              0 ****  ****    0 ROOT
