@<TRIPOS>MOLECULE
BL7
   35    38     1     0     0
SMALL
bcc


@<TRIPOS>ATOM
      1 O2         -0.0760   -0.0700    0.0170 o         1 BL7     -0.519100
      2 C4          1.1550   -0.0080   -0.0450 c         1 BL7      0.572700
      3 C3          2.0070   -0.1010    1.2180 c3        1 BL7     -0.033500
      4 O1          2.4290   -1.4460    1.3950 oh        1 BL7     -0.559800
      5 C2          1.3730    0.4500    2.5030 c3        1 BL7     -0.111400
      6 C1          2.5100    1.2110    3.2130 c3        1 BL7      0.222800
      7 N1          3.6360    1.2860    2.2910 nh        1 BL7     -0.623000
      8 C12         4.8220    1.9660    2.6150 ca        1 BL7      0.170600
      9 C17         4.8110    2.9970    3.5840 ca        1 BL7     -0.153500
     10 C16         5.9910    3.6520    3.9240 ca        1 BL7     -0.109000
     11 C15         7.1960    3.3090    3.3160 ca        1 BL7     -0.150000
     12 C14         7.2180    2.2910    2.3650 ca        1 BL7     -0.109000
     13 C13         6.0530    1.6150    2.0150 ca        1 BL7     -0.153500
     14 C11         3.3080    0.7370    1.0490 c2        1 BL7      0.679200
     15 N2          3.9220    0.9350   -0.0920 ne        1 BL7     -0.634100
     16 C10         3.2900    0.4680   -1.2600 ca        1 BL7      0.216400
     17 C5          1.9250    0.0720   -1.2940 ca        1 BL7     -0.223600
     18 C9          4.0170    0.4800   -2.4720 ca        1 BL7     -0.129000
     19 C8          3.3950    0.1290   -3.6650 ca        1 BL7     -0.088000
     20 C7          2.0460   -0.2330   -3.6910 ca        1 BL7     -0.162000
     21 C6          1.3150   -0.2560   -2.5090 ca        1 BL7     -0.054000
     22 HO1         1.6230   -1.9740    1.4940 ho        1 BL7      0.416000
     23 H2          0.5220    1.1320    2.2580 hc        1 BL7      0.077200
     24 H2A         0.9920   -0.3780    3.1470 hc        1 BL7      0.077200
     25 H1          2.8330    0.6770    4.1480 h1        1 BL7      0.057700
     26 H1A         2.1680    2.2470    3.4890 h1        1 BL7      0.057700
     27 H17         3.8770    3.2960    4.0800 ha        1 BL7      0.144000
     28 H16         5.9630    4.4530    4.6780 ha        1 BL7      0.133000
     29 H15         8.1230    3.8360    3.5860 ha        1 BL7      0.133000
     30 H14         8.1660    2.0100    1.8820 ha        1 BL7      0.133000
     31 H13         6.1060    0.8090    1.2680 ha        1 BL7      0.144000
     32 H9          5.0780    0.7760   -2.4700 ha        1 BL7      0.153000
     33 H8          3.9750    0.1400   -4.6010 ha        1 BL7      0.136000
     34 H7          1.5650   -0.4990   -4.6430 ha        1 BL7      0.138000
     35 H6          0.2490   -0.5380   -2.5120 ha        1 BL7      0.149000
@<TRIPOS>BOND
     1    1    2 2   
     2    2    3 1   
     3    2   17 1   
     4    3    4 1   
     5    3    5 1   
     6    3   14 1   
     7    4   22 1   
     8    5    6 1   
     9    5   23 1   
    10    5   24 1   
    11    6    7 1   
    12    6   25 1   
    13    6   26 1   
    14    7    8 1   
    15    7   14 1   
    16    8    9 ar  
    17    8   13 ar  
    18    9   10 ar  
    19    9   27 1   
    20   10   11 ar  
    21   10   28 1   
    22   11   12 ar  
    23   11   29 1   
    24   12   13 ar  
    25   12   30 1   
    26   13   31 1   
    27   14   15 2   
    28   15   16 1   
    29   16   17 ar  
    30   16   18 ar  
    31   17   21 ar  
    32   18   19 ar  
    33   18   32 1   
    34   19   20 ar  
    35   19   33 1   
    36   20   21 ar  
    37   20   34 1   
    38   21   35 1   
@<TRIPOS>SUBSTRUCTURE
     1 BL7         1 TEMP              0 ****  ****    0 ROOT
