@<TRIPOS>MOLECULE
BL7
   35    38     1     0     0
SMALL
bcc


@<TRIPOS>ATOM
      1 O2         -2.6730   -2.2200    0.9580 o         1 BL7     -0.496100
      2 C4         -2.1100   -1.3080    0.3520 c         1 BL7      0.570700
      3 C3         -0.8170   -1.5230   -0.4280 c3        1 BL7     -0.023500
      4 O1         -1.1040   -1.6370   -1.8120 oh        1 BL7     -0.558800
      5 C2          0.0280   -2.7440   -0.0480 c3        1 BL7     -0.079400
      6 C1          1.4720   -2.2160    0.0630 c3        1 BL7      0.217800
      7 N1          1.4320   -0.7650   -0.0880 nh        1 BL7     -0.615000
      8 C12         2.5920    0.0230    0.0170 ca        1 BL7      0.165600
      9 C17         3.7020   -0.4360    0.7650 ca        1 BL7     -0.150500
     10 C16         4.8590    0.3320    0.8470 ca        1 BL7     -0.110000
     11 C15         4.9430    1.5630    0.1990 ca        1 BL7     -0.147000
     12 C14         3.8570    2.0210   -0.5430 ca        1 BL7     -0.110000
     13 C13         2.6930    1.2660   -0.6470 ca        1 BL7     -0.150500
     14 C11         0.1220   -0.3020   -0.1800 c2        1 BL7      0.630200
     15 N2         -0.2980    0.9360   -0.0540 ne        1 BL7     -0.643100
     16 C10        -1.6920    1.1340    0.0170 ca        1 BL7      0.196400
     17 C5         -2.6100    0.0750    0.2640 ca        1 BL7     -0.241600
     18 C9         -2.1950    2.4500   -0.0780 ca        1 BL7     -0.128000
     19 C8         -3.5560    2.6920    0.0790 ca        1 BL7     -0.089000
     20 C7         -4.4450    1.6490    0.3420 ca        1 BL7     -0.160000
     21 C6         -3.9690    0.3440    0.4410 ca        1 BL7     -0.053000
     22 HO1        -1.5890   -0.8410   -2.0730 ho        1 BL7      0.417000
     23 H2         -0.3270   -3.1700    0.9220 hc        1 BL7      0.087200
     24 H2A        -0.0470   -3.5310   -0.8380 hc        1 BL7      0.087200
     25 H1          1.9050   -2.4880    1.0650 h1        1 BL7      0.058700
     26 H1A         2.1240   -2.6510   -0.7420 h1        1 BL7      0.058700
     27 H17         3.6670   -1.4010    1.2930 ha        1 BL7      0.143500
     28 H16         5.7120   -0.0400    1.4350 ha        1 BL7      0.134000
     29 H15         5.8590    2.1660    0.2740 ha        1 BL7      0.134000
     30 H14         3.9160    2.9910   -1.0610 ha        1 BL7      0.134000
     31 H13         1.8580    1.6540   -1.2500 ha        1 BL7      0.143500
     32 H9         -1.5050    3.2870   -0.2680 ha        1 BL7      0.153000
     33 H8         -3.9330    3.7240   -0.0000 ha        1 BL7      0.137000
     34 H7         -5.5170    1.8560    0.4730 ha        1 BL7      0.140000
     35 H6         -4.6560   -0.4900    0.6590 ha        1 BL7      0.151000
@<TRIPOS>BOND
     1    1    2 2   
     2    2    3 1   
     3    2   17 1   
     4    3    4 1   
     5    3    5 1   
     6    3   14 1   
     7    4   22 1   
     8    5    6 1   
     9    5   23 1   
    10    5   24 1   
    11    6    7 1   
    12    6   25 1   
    13    6   26 1   
    14    7    8 1   
    15    7   14 1   
    16    8    9 ar  
    17    8   13 ar  
    18    9   10 ar  
    19    9   27 1   
    20   10   11 ar  
    21   10   28 1   
    22   11   12 ar  
    23   11   29 1   
    24   12   13 ar  
    25   12   30 1   
    26   13   31 1   
    27   14   15 2   
    28   15   16 1   
    29   16   17 ar  
    30   16   18 ar  
    31   17   21 ar  
    32   18   19 ar  
    33   18   32 1   
    34   19   20 ar  
    35   19   33 1   
    36   20   21 ar  
    37   20   34 1   
    38   21   35 1   
@<TRIPOS>SUBSTRUCTURE
     1 BL7         1 TEMP              0 ****  ****    0 ROOT
