@<TRIPOS>MOLECULE
BL7
   35    38     1     0     0
SMALL
bcc


@<TRIPOS>ATOM
      1 O2         -0.0820   -0.0400    0.0040 o         1 BL7     -0.519100
      2 C4          1.1500    0.0100   -0.0520 c         1 BL7      0.572700
      3 C3          1.9940   -0.0840    1.2160 c3        1 BL7     -0.033500
      4 O1          2.4020   -1.4320    1.4030 oh        1 BL7     -0.559800
      5 C2          1.3580    0.4810    2.4940 c3        1 BL7     -0.111400
      6 C1          2.4990    1.2350    3.2070 c3        1 BL7      0.222800
      7 N1          3.6310    1.2940    2.2890 nh        1 BL7     -0.623000
      8 C12         4.8220    1.9640    2.6170 ca        1 BL7      0.170600
      9 C17         4.8160    3.0000    3.5800 ca        1 BL7     -0.153500
     10 C16         5.9990    3.6460    3.9220 ca        1 BL7     -0.109000
     11 C15         7.2050    3.2880    3.3230 ca        1 BL7     -0.150000
     12 C14         7.2210    2.2650    2.3770 ca        1 BL7     -0.109000
     13 C13         6.0520    1.5980    2.0250 ca        1 BL7     -0.153500
     14 C11         3.3040    0.7410    1.0490 c2        1 BL7      0.679200
     15 N2          3.9260    0.9260   -0.0890 ne        1 BL7     -0.634100
     16 C10         3.2960    0.4580   -1.2580 ca        1 BL7      0.216400
     17 C5          1.9270    0.0750   -1.2970 ca        1 BL7     -0.223600
     18 C9          4.0300    0.4560   -2.4660 ca        1 BL7     -0.129000
     19 C8          3.4110    0.1040   -3.6600 ca        1 BL7     -0.088000
     20 C7          2.0590   -0.2450   -3.6920 ca        1 BL7     -0.162000
     21 C6          1.3210   -0.2540   -2.5140 ca        1 BL7     -0.054000
     22 HO1         1.5910   -1.9510    1.5010 ho        1 BL7      0.416000
     23 H2          0.5160    1.1690    2.2410 hc        1 BL7      0.077200
     24 H2A         0.9670   -0.3400    3.1420 hc        1 BL7      0.077200
     25 H1          2.8110    0.7030    4.1460 h1        1 BL7      0.057700
     26 H1A         2.1660    2.2750    3.4750 h1        1 BL7      0.057700
     27 H17         3.8810    3.3110    4.0700 ha        1 BL7      0.144000
     28 H16         5.9760    4.4510    4.6730 ha        1 BL7      0.133000
     29 H15         8.1350    3.8070    3.5950 ha        1 BL7      0.133000
     30 H14         8.1700    1.9720    1.9010 ha        1 BL7      0.133000
     31 H13         6.1020    0.7870    1.2830 ha        1 BL7      0.144000
     32 H9          5.0930    0.7410   -2.4600 ha        1 BL7      0.153000
     33 H8          3.9960    0.1040   -4.5930 ha        1 BL7      0.136000
     34 H7          1.5800   -0.5120   -4.6450 ha        1 BL7      0.138000
     35 H6          0.2520   -0.5250   -2.5210 ha        1 BL7      0.149000
@<TRIPOS>BOND
     1    1    2 2   
     2    2    3 1   
     3    2   17 1   
     4    3    4 1   
     5    3    5 1   
     6    3   14 1   
     7    4   22 1   
     8    5    6 1   
     9    5   23 1   
    10    5   24 1   
    11    6    7 1   
    12    6   25 1   
    13    6   26 1   
    14    7    8 1   
    15    7   14 1   
    16    8    9 ar  
    17    8   13 ar  
    18    9   10 ar  
    19    9   27 1   
    20   10   11 ar  
    21   10   28 1   
    22   11   12 ar  
    23   11   29 1   
    24   12   13 ar  
    25   12   30 1   
    26   13   31 1   
    27   14   15 2   
    28   15   16 1   
    29   16   17 ar  
    30   16   18 ar  
    31   17   21 ar  
    32   18   19 ar  
    33   18   32 1   
    34   19   20 ar  
    35   19   33 1   
    36   20   21 ar  
    37   20   34 1   
    38   21   35 1   
@<TRIPOS>SUBSTRUCTURE
     1 BL7         1 TEMP              0 ****  ****    0 ROOT
