@<TRIPOS>MOLECULE
BL7
   35    38     1     0     0
SMALL
bcc


@<TRIPOS>ATOM
      1 O2         -0.0800   -0.0550    0.0150 o         1 BL7     -0.519100
      2 C4          1.1510    0.0010   -0.0460 c         1 BL7      0.572700
      3 C3          2.0010   -0.0910    1.2190 c3        1 BL7     -0.033500
      4 O1          2.4160   -1.4390    1.4010 oh        1 BL7     -0.559800
      5 C2          1.3670    0.4660    2.5010 c3        1 BL7     -0.111400
      6 C1          2.5070    1.2240    3.2110 c3        1 BL7      0.222800
      7 N1          3.6350    1.2910    2.2890 nh        1 BL7     -0.623000
      8 C12         4.8240    1.9660    2.6140 ca        1 BL7      0.170600
      9 C17         4.8170    2.9970    3.5820 ca        1 BL7     -0.153500
     10 C16         6.0000    3.6470    3.9220 ca        1 BL7     -0.109000
     11 C15         7.2040    3.2980    3.3160 ca        1 BL7     -0.150000
     12 C14         7.2210    2.2790    2.3650 ca        1 BL7     -0.109000
     13 C13         6.0540    1.6090    2.0160 ca        1 BL7     -0.153500
     14 C11         3.3070    0.7390    1.0490 c2        1 BL7      0.679200
     15 N2          3.9230    0.9300   -0.0920 ne        1 BL7     -0.634100
     16 C10         3.2910    0.4630   -1.2600 ca        1 BL7      0.216400
     17 C5          1.9230    0.0730   -1.2940 ca        1 BL7     -0.223600
     18 C9          4.0190    0.4680   -2.4700 ca        1 BL7     -0.129000
     19 C8          3.3970    0.1150   -3.6630 ca        1 BL7     -0.088000
     20 C7          2.0470   -0.2400   -3.6900 ca        1 BL7     -0.162000
     21 C6          1.3130   -0.2570   -2.5080 ca        1 BL7     -0.054000
     22 HO1         1.6080   -1.9620    1.5010 ho        1 BL7      0.416000
     23 H2          0.9820   -0.3580    3.1480 hc        1 BL7      0.077200
     24 H2A         0.5200    1.1510    2.2530 hc        1 BL7      0.077200
     25 H1          2.1700    2.2620    3.4820 h1        1 BL7      0.057700
     26 H1A         2.8260    0.6920    4.1480 h1        1 BL7      0.057700
     27 H17         3.8840    3.3010    4.0770 ha        1 BL7      0.144000
     28 H16         5.9750    4.4490    4.6760 ha        1 BL7      0.133000
     29 H15         8.1330    3.8200    3.5860 ha        1 BL7      0.133000
     30 H14         8.1690    1.9930    1.8840 ha        1 BL7      0.133000
     31 H13         6.1040    0.8000    1.2700 ha        1 BL7      0.144000
     32 H9          5.0810    0.7580   -2.4680 ha        1 BL7      0.153000
     33 H8          3.9780    0.1200   -4.5980 ha        1 BL7      0.136000
     34 H7          1.5650   -0.5070   -4.6420 ha        1 BL7      0.138000
     35 H6          0.2460   -0.5330   -2.5120 ha        1 BL7      0.149000
@<TRIPOS>BOND
     1    1    2 2   
     2    2    3 1   
     3    2   17 1   
     4    3    4 1   
     5    3    5 1   
     6    3   14 1   
     7    4   22 1   
     8    5    6 1   
     9    5   23 1   
    10    5   24 1   
    11    6    7 1   
    12    6   25 1   
    13    6   26 1   
    14    7    8 1   
    15    7   14 1   
    16    8    9 ar  
    17    8   13 ar  
    18    9   10 ar  
    19    9   27 1   
    20   10   11 ar  
    21   10   28 1   
    22   11   12 ar  
    23   11   29 1   
    24   12   13 ar  
    25   12   30 1   
    26   13   31 1   
    27   14   15 2   
    28   15   16 1   
    29   16   17 ar  
    30   16   18 ar  
    31   17   21 ar  
    32   18   19 ar  
    33   18   32 1   
    34   19   20 ar  
    35   19   33 1   
    36   20   21 ar  
    37   20   34 1   
    38   21   35 1   
@<TRIPOS>SUBSTRUCTURE
     1 BL7         1 TEMP              0 ****  ****    0 ROOT
