@<TRIPOS>MOLECULE
BL7
   35    32     1     0     0
SMALL
bcc


@<TRIPOS>ATOM
      1 O2         -3.5540   -0.3430   -0.8180 o         1 BL7     -0.257000
      2 C4         -2.3450   -0.2530   -0.7360 c1        1 BL7      0.262000
      3 C3         -1.8740   -0.2090    0.2310 c2        1 BL7      0.027000
      4 O1         -2.4480   -1.2390    1.0010 oh        1 BL7     -0.288000
      5 C2         -2.0700    0.4870    0.5870 c3        1 BL7     -0.156000
      6 C1         -0.8700    0.8280    1.5940 c3        1 BL7     -0.019000
      7 N1         -0.0820    0.3680    1.2520 n3        1 BL7     -0.225000
      8 C12         1.2020    0.3430    1.8620 c2        1 BL7      0.076000
      9 C17         2.1340    1.3220    1.5540 c2        1 BL7     -0.128000
     10 C16         3.4060    1.2670    2.1070 c1        1 BL7     -0.115000
     11 C15         3.7440    0.2330    2.9670 c1        1 BL7     -0.126750
     12 C14         2.8120   -0.7450    3.2740 c1        1 BL7     -0.126750
     13 C13         1.5410   -0.6910    2.7220 c1        1 BL7     -0.160000
     14 C11        -0.4600   -0.3580    0.3470 c2        1 BL7      0.118000
     15 N2          0.3340   -0.5160   -0.8150 n1        1 BL7     -0.222000
     16 C10        -0.2090   -0.4320   -1.9550 c1        1 BL7      0.058000
     17 C5         -1.4730   -0.2500   -2.0380 c2        1 BL7     -0.224000
     18 C9          0.5770   -0.5540   -3.1450 c1        1 BL7     -0.130000
     19 C8         -0.0210   -0.4770   -4.3680 c1        1 BL7     -0.126750
     20 C7         -1.3510   -0.2860   -4.4540 c1        1 BL7     -0.126750
     21 C6         -2.1000   -0.1690   -3.3150 c1        1 BL7     -0.053000
     22 HO1        -1.8730   -1.9150    1.0680 ho        1 BL7      0.217000
     23 H2         -2.0930    1.1860   -0.1050 hc        1 BL7      0.125500
     24 H2A        -2.8800    0.3340    1.1230 hc        1 BL7      0.125500
     25 H1         -1.0900    0.4390    2.4680 h1        1 BL7      0.098500
     26 H1A        -0.7000    1.7930    1.5440 h1        1 BL7      0.098500
     27 H17         1.8960    2.0500    0.9490 ha        1 BL7      0.160000
     28 H16         4.0630    1.9570    1.8900 ha        1 BL7      0.135000
     29 H15         4.6390    0.1950    3.3560 ha        1 BL7      0.136000
     30 H14         3.0500   -1.4730    3.8800 ha        1 BL7      0.136000
     31 H13         0.8840   -1.3800    2.9380 ha        1 BL7      0.134000
     32 H9          1.5410   -0.6920   -3.0810 ha        1 BL7      0.154000
     33 H8          0.5140   -0.5600   -5.1790 ha        1 BL7      0.136000
     34 H7         -1.7800   -0.2300   -5.3280 ha        1 BL7      0.136000
     35 H6         -3.0640   -0.0310   -3.3770 ha        1 BL7      0.151000
@<TRIPOS>BOND
     1    1    2 1   
     2    2   17 1   
     3    3    4 1   
     4    3    5 1   
     5    3   14 1   
     6    4   22 1   
     7    5    6 1   
     8    5   23 1   
     9    5   24 1   
    10    6    7 1   
    11    6   25 1   
    12    6   26 1   
    13    7    8 1   
    14    7   14 1   
    15    8    9 1   
    16    8   13 1   
    17    9   10 1   
    18    9   27 1   
    19   10   28 1   
    20   11   12 1   
    21   11   29 1   
    22   12   30 1   
    23   13   31 1   
    24   14   15 1   
    25   16   17 1   
    26   16   18 1   
    27   17   21 1   
    28   18   32 1   
    29   19   20 1   
    30   19   33 1   
    31   20   34 1   
    32   21   35 1   
@<TRIPOS>SUBSTRUCTURE
     1 BL7         1 TEMP              0 ****  ****    0 ROOT
