@<TRIPOS>MOLECULE
BLA
   75    78     1     0     0
SMALL
bcc


@<TRIPOS>ATOM
      1 CHA        -0.1960   -0.2450   -2.3140 ce        1 BLA      0.034800
      2 NA          1.4590   -0.0020   -0.4470 na        1 BLA     -0.149100
      3 C1A         1.1320   -0.2930   -1.7750 cc        1 BLA     -0.105100
      4 C2A         2.3340   -0.6260   -2.4690 cd        1 BLA     -0.066300
      5 C3A         3.3960   -0.5790   -1.5130 cd        1 BLA     -0.086300
      6 C4A         2.8290   -0.1920   -0.2660 cc        1 BLA     -0.133100
      7 CMA         4.8090   -0.8640   -1.7680 c3        1 BLA     -0.064800
      8 CAA         2.4850   -1.0010   -3.8850 c3        1 BLA     -0.020100
      9 CBA         3.4190   -0.0850   -4.6560 c3        1 BLA     -0.193400
     10 CGA         4.5360   -0.8480   -5.3900 c         1 BLA      0.905600
     11 O1A         5.0200   -1.8930   -4.8570 o         1 BLA     -0.853800
     12 O2A         4.9500   -0.3730   -6.4860 o         1 BLA     -0.853800
     13 CHB         3.5460   -0.0170    0.9580 ce        1 BLA     -0.040200
     14 NB          2.1270    1.6730    2.1270 n         1 BLA     -0.470100
     15 C1B         3.2350    0.7900    1.9980 cd        1 BLA     -0.040400
     16 C2B         4.0170    0.8870    3.2610 cd        1 BLA     -0.011200
     17 C3B         3.4400    1.8340    4.0680 cc        1 BLA     -0.170200
     18 C4B         2.2550    2.4030    3.3300 c         1 BLA      0.696700
     19 CMB         5.1890    0.0440    3.5110 c3        1 BLA     -0.056900
     20 OB          1.4920    3.3200    3.6660 o         1 BLA     -0.630500
     21 CAB         3.8490    2.2520    5.3790 ce        1 BLA     -0.103000
     22 CBB         3.2420    3.1920    6.1100 c2        1 BLA     -0.213000
     23 NC         -1.4680   -1.4940    2.6730 n         1 BLA     -0.477100
     24 C1C        -1.2640   -1.9300    3.9900 c         1 BLA      0.692700
     25 C2C        -2.5610   -1.6990    4.7300 cc        1 BLA     -0.168400
     26 C3C        -3.4600   -1.1550    3.8540 cd        1 BLA     -0.022000
     27 C4C        -2.7910   -1.0190    2.5170 cd        1 BLA      0.045600
     28 CAC        -4.8160   -0.7260    4.0740 cf        1 BLA     -0.108000
     29 CBC        -5.5960   -1.1440    5.0760 c2        1 BLA     -0.210000
     30 ND         -1.4740   -0.4230   -0.1950 nd        1 BLA     -0.623300
     31 C1D        -2.7760   -0.4310    0.0870 cc        1 BLA      0.466900
     32 C2D        -3.6110   -0.2770   -1.1370 cc        1 BLA     -0.245800
     33 C3D        -2.7360   -0.1830   -2.1960 cd        1 BLA     -0.033200
     34 C4D        -1.3590   -0.2750   -1.6160 cd        1 BLA      0.036600
     35 CGD        -5.1690    1.0770   -4.5770 c         1 BLA      0.905600
     36 O1D        -5.8240    0.0180   -4.3340 o         1 BLA     -0.852800
     37 O2D        -5.6080    2.0110   -5.3070 o         1 BLA     -0.852800
     38 HHA        -0.2410   -0.1890   -3.4200 ha        1 BLA      0.162000
     39 HA          0.8020    0.1170    0.2830 hn        1 BLA      0.314700
     40 HMA1        5.2230   -1.5450   -0.9840 hc        1 BLA      0.060700
     41 HMA2        4.9360   -1.3460   -2.7820 hc        1 BLA      0.060700
     42 HMA3        5.4050    0.0840   -1.7590 hc        1 BLA      0.060700
     43 HAA1        2.9080   -2.0480   -3.9240 hc        1 BLA      0.057700
     44 HAA2        1.4800   -1.0260   -4.3840 hc        1 BLA      0.057700
     45 HBA1        2.8390    0.5120   -5.4030 hc        1 BLA      0.032200
     46 HBA2        3.9230    0.6350   -3.9620 hc        1 BLA      0.032200
     47 HHB         4.4840   -0.6030    1.0170 ha        1 BLA      0.148000
     48 HB          1.6520    2.0330    1.3370 hn        1 BLA      0.335500
     49 HMB1        5.6430    0.2620    4.5080 hc        1 BLA      0.052700
     50 HMB2        4.8980   -1.0370    3.4810 hc        1 BLA      0.052700
     51 HMB3        5.9650    0.2170    2.7210 hc        1 BLA      0.052700
     52 HAB         4.7370    1.7260    5.7760 ha        1 BLA      0.109000
     53 HBB1        3.6030    3.4640    7.1090 ha        1 BLA      0.121500
     54 HBB2        2.3550    3.7370    5.7550 ha        1 BLA      0.121500
     55 HC         -0.7930   -1.5070    1.9510 hn        1 BLA      0.366500
     56 HMC1       -1.6680   -2.1590    6.6030 hc        1 BLA      0.049033
     57 HMC2       -3.2320   -1.2270    6.7000 hc        1 BLA      0.049033
     58 HMC3       -3.2470   -2.9910    6.2770 hc        1 BLA      0.049033
     59 HAC        -5.2020    0.0040    3.3390 ha        1 BLA      0.138000
     60 HBC1       -6.6230   -0.7780    5.1960 ha        1 BLA      0.111500
     61 HBC2       -5.2690   -1.8780    5.8240 ha        1 BLA      0.111500
     62 HHD        -4.4450   -0.2660    1.4220 ha        1 BLA      0.149000
     63 HMD1       -5.4570    0.6320   -0.5860 hc        1 BLA      0.057033
     64 HMD2       -5.4490   -0.1840   -2.2180 hc        1 BLA      0.057033
     65 HMD3       -5.4880   -1.1780   -0.6840 hc        1 BLA      0.057033
     66 HAD1       -2.1540   -0.1230   -4.2500 hc        1 BLA      0.060700
     67 HAD2       -3.7670   -0.8820   -3.9050 hc        1 BLA      0.060700
     68 HBD1       -3.9500    1.8640   -2.9930 hc        1 BLA      0.033200
     69 HBD2       -3.1580    1.8930   -4.6160 hc        1 BLA      0.033200
     70 CMD        -5.0720   -0.2520   -1.1550 c3        1 BLA     -0.061900
     71 CHD        -3.3820   -0.5620    1.3910 ce        1 BLA     -0.191600
     72 CMC        -2.6830   -2.0320    6.1480 c3        1 BLA     -0.037900
     73 CAD        -3.0770   -0.0340   -3.6190 c3        1 BLA     -0.034200
     74 OC         -0.2120   -2.4130    4.4320 o         1 BLA     -0.625500
     75 CBD        -3.7870    1.2730   -3.9300 c3        1 BLA     -0.191400
@<TRIPOS>BOND
     1    1    3 1   
     2    1   34 2   
     3    1   38 1   
     4    2    3 1   
     5    2    6 1   
     6    2   39 1   
     7    3    4 2   
     8    4    5 1   
     9    4    8 1   
    10    5    6 2   
    11    5    7 1   
    12    6   13 1   
    13    7   40 1   
    14    7   41 1   
    15    7   42 1   
    16    8    9 1   
    17    8   43 1   
    18    8   44 1   
    19    9   10 1   
    20    9   45 1   
    21    9   46 1   
    22   10   11 1   
    23   10   12 1   
    24   13   15 2   
    25   13   47 1   
    26   14   15 1   
    27   14   18 1   
    28   14   48 1   
    29   15   16 1   
    30   16   17 2   
    31   16   19 1   
    32   17   18 1   
    33   17   21 1   
    34   18   20 2   
    35   19   49 1   
    36   19   50 1   
    37   19   51 1   
    38   21   22 2   
    39   21   52 1   
    40   22   53 1   
    41   22   54 1   
    42   23   24 1   
    43   23   27 1   
    44   23   55 1   
    45   24   25 1   
    46   24   74 2   
    47   25   26 2   
    48   25   72 1   
    49   26   27 1   
    50   26   28 1   
    51   27   71 2   
    52   28   29 2   
    53   28   59 1   
    54   29   60 1   
    55   29   61 1   
    56   30   31 2   
    57   30   34 1   
    58   31   32 1   
    59   31   71 1   
    60   32   33 2   
    61   32   70 1   
    62   33   34 1   
    63   33   73 1   
    64   35   36 1   
    65   35   37 1   
    66   35   75 1   
    67   56   72 1   
    68   57   72 1   
    69   58   72 1   
    70   62   71 1   
    71   63   70 1   
    72   64   70 1   
    73   65   70 1   
    74   66   73 1   
    75   67   73 1   
    76   68   75 1   
    77   69   75 1   
    78   73   75 1   
@<TRIPOS>SUBSTRUCTURE
     1 BLA         1 TEMP              0 ****  ****    0 ROOT
