@<TRIPOS>MOLECULE
BLA
   75    76     1     0     0
SMALL
bcc


@<TRIPOS>ATOM
      1 CHA        -4.7330   -1.8320  -11.9670 c2        1 BLA     -0.121000
      2 NA         -2.4280   -1.1700  -12.6390 na        1 BLA     -0.263000
      3 C1A        -3.7590   -1.6210  -12.8790 c2        1 BLA      0.032000
      4 C2A        -3.9070   -1.7670  -14.3590 c2        1 BLA      0.013000
      5 C3A        -2.7010   -1.4600  -14.9340 c2        1 BLA     -0.155000
      6 C4A        -1.7410   -1.0950  -13.8510 c2        1 BLA      0.177000
      7 CMA        -2.3210   -1.4490  -16.3480 c3        1 BLA     -0.158000
      8 CAA        -5.1550   -2.1980  -15.0110 c3        1 BLA     -0.126000
      9 CBA        -6.1280   -1.0600  -15.2600 c3        1 BLA     -0.209000
     10 CGA        -7.2280   -0.9540  -14.2040 c2        1 BLA      0.326000
     11 O1A        -7.4840   -1.9480  -13.4500 o         1 BLA     -0.592000
     12 O2A        -7.8680    0.1320  -14.1160 o         1 BLA     -0.592000
     13 CHB        -0.4420   -0.7290  -14.0780 c2        1 BLA     -0.329000
     14 NB          0.2710    0.2120  -11.8800 n         1 BLA     -0.333000
     15 C1B         0.5350   -0.2630  -13.1560 c2        1 BLA      0.242000
     16 C2B         1.9400   -0.1890  -13.4450 c2        1 BLA     -0.301000
     17 C3B         2.6230    0.3880  -12.2270 c3        1 BLA     -0.115000
     18 C4B         1.4780    0.6500  -11.2570 c2        1 BLA      0.300000
     19 CMB         2.6340   -0.5520  -14.5540 c1        1 BLA     -0.226000
     20 OB          1.4980    1.1500  -10.1290 o         1 BLA     -0.325000
     21 CAB       103.4080   27.0520  323.3980 c1        1 BLA     -0.393000
     22 CBB       103.0210   26.9660  322.2430 c1        1 BLA     -0.699000
     23 NC         -1.1080   -2.7800   -8.2630 n         1 BLA     -0.331000
     24 C1C         0.1700   -3.1620   -7.8230 c2        1 BLA      0.331000
     25 C2C         0.3820   -2.5050   -6.4800 c2        1 BLA     -0.129000
     26 C3C        -0.7320   -1.7660   -6.1880 c2        1 BLA     -0.025000
     27 C4C        -1.7110   -1.9200   -7.3170 c2        1 BLA      0.055000
     28 CAC        -1.0060   -0.9300   -5.0500 c2        1 BLA     -0.114000
     29 CBC        -0.4090   -1.0420   -3.8590 c2        1 BLA     -0.201000
     30 ND         -3.5000   -1.6350   -9.8110 n2        1 BLA     -0.172000
     31 C1D        -3.8960   -1.4960   -8.4410 c2        1 BLA     -0.066000
     32 C2D        -5.2730   -1.4720   -8.3060 c2        1 BLA     -0.114000
     33 C3D        -5.8690   -1.6120   -9.6810 c3        1 BLA     -0.166000
     34 C4D        -4.6080   -1.6960  -10.5380 c2        1 BLA     -0.004000
     35 CGD       -10.6300   -0.2530  -11.0760 c2        1 BLA      0.276000
     36 O1D       -10.0970   -0.1930   -9.6980 os        1 BLA     -0.257000
     37 O2D       -11.8180   -0.3190  -11.2690 o         1 BLA     -0.243000
     38 HHA        -5.7550   -2.0980  -12.3350 ha        1 BLA      0.232000
     39 HA         -1.9830   -1.3090  -11.7660 hn        1 BLA      0.261000
     40 HMA1       -1.4770   -2.1610  -16.5330 hc        1 BLA      0.087667
     41 HMA2       -3.1840   -1.7450  -16.9950 hc        1 BLA      0.087667
     42 HMA3       -1.9860   -0.4250  -16.6530 hc        1 BLA      0.087667
     43 HAA1       -5.6710   -2.9700  -14.3700 hc        1 BLA      0.104500
     44 HAA2       -4.8960   -2.6880  -15.9890 hc        1 BLA      0.104500
     45 HBA1       -5.5940   -0.0790  -15.3190 hc        1 BLA      0.085000
     46 HBA2       -6.6380   -1.2270  -16.2450 hc        1 BLA      0.085000
     47 HHB        -0.0790   -0.8060  -15.1200 ha        1 BLA      0.170000
     48 HB         -0.6250    0.3670  -11.4920 hn        1 BLA      0.251000
     49 HMB1        5.0080   -1.8080  -13.1130 ha        1 BLA     -0.001000
     50 HMB2        4.5400   -1.4840  -13.4860 ha        1 BLA     -0.001000
     51 HMB3        2.1060   -0.9720  -15.4190 ha        1 BLA      0.038000
     52 HAB         3.1570    1.3410  -12.4580 hc        1 BLA      0.127500
     53 HBB1        3.3490   -0.3370  -11.7820 hc        1 BLA      0.127500
     54 HBB2      102.6860   26.8920  321.2420 ha        1 BLA      0.092000
     55 HC         -1.4940   -2.9910   -9.1460 hn        1 BLA      0.269000
     56 HMC1        2.4280   -3.0800   -6.4250 hc        1 BLA      0.093333
     57 HMC2        1.9710   -1.7320   -5.2850 hc        1 BLA      0.093333
     58 HMC3        1.4840   -3.4420   -4.9180 hc        1 BLA      0.093333
     59 HAC        -1.7660   -0.1450   -5.2170 ha        1 BLA      0.133000
     60 HBC1       -0.6510   -0.3690   -3.0270 ha        1 BLA      0.114500
     61 HBC2        0.3440   -1.8100   -3.6370 ha        1 BLA      0.114500
     62 HHD        -3.2910   -0.7620   -6.5130 ha        1 BLA      0.140000
     63 HMD1       -5.5240   -0.8510   -6.2750 hc        1 BLA      0.088333
     64 HMD2       -6.4260   -2.3490   -6.7530 hc        1 BLA      0.088333
     65 HMD3       -7.0060   -0.7290   -7.3240 hc        1 BLA      0.088333
     66 HAD1       -6.5110   -0.7320   -9.9600 hc        1 BLA      0.162500
     67 HAD2       -6.4870   -2.5380   -9.7850 hc        1 BLA      0.162500
     68 HBD1       -8.8380   -1.0850  -12.1780 hc        1 BLA      0.222500
     69 HBD2       -8.9460    0.6900  -12.2480 hc        1 BLA      0.222500
     70 CMD        -6.0930   -1.3390   -7.1060 c3        1 BLA     -0.167000
     71 CHD        -2.9410   -1.3670   -7.3670 c2        1 BLA     -0.117000
     72 CMC         1.6280   -2.6960   -5.7420 c3        1 BLA     -0.165000
     73 CAD        -8.8190   -0.1220  -10.1170 c1        1 BLA      0.092000
     74 OC          0.9390   -3.9080   -8.4430 o         1 BLA     -0.337000
     75 CBD        -9.1990   -0.1840  -11.6000 c3        1 BLA     -0.329000
@<TRIPOS>BOND
     1    1    3 1   
     2    1   34 1   
     3    1   38 1   
     4    2    3 1   
     5    2    6 1   
     6    2   39 1   
     7    3    4 1   
     8    4    5 1   
     9    4    8 1   
    10    5    6 1   
    11    5    7 1   
    12    6   13 1   
    13    7   40 1   
    14    7   41 1   
    15    7   42 1   
    16    8    9 1   
    17    8   43 1   
    18    8   44 1   
    19    9   10 1   
    20    9   45 1   
    21    9   46 1   
    22   10   11 1   
    23   10   12 1   
    24   13   15 1   
    25   13   47 1   
    26   14   15 1   
    27   14   18 1   
    28   14   48 1   
    29   15   16 1   
    30   16   17 1   
    31   16   19 1   
    32   17   18 1   
    33   17   52 1   
    34   17   53 1   
    35   18   20 1   
    36   19   51 1   
    37   21   22 1   
    38   22   54 1   
    39   23   24 1   
    40   23   27 1   
    41   23   55 1   
    42   24   25 1   
    43   24   74 1   
    44   25   26 1   
    45   25   72 1   
    46   26   27 1   
    47   26   28 1   
    48   27   71 1   
    49   28   29 1   
    50   28   59 1   
    51   29   60 1   
    52   29   61 1   
    53   30   31 1   
    54   30   34 1   
    55   31   32 1   
    56   31   71 1   
    57   32   33 1   
    58   32   70 1   
    59   33   34 1   
    60   33   66 1   
    61   33   67 1   
    62   35   36 1   
    63   35   37 1   
    64   35   75 1   
    65   36   73 1   
    66   49   50 1   
    67   56   72 1   
    68   57   72 1   
    69   58   72 1   
    70   62   71 1   
    71   63   70 1   
    72   64   70 1   
    73   65   70 1   
    74   68   75 1   
    75   69   75 1   
    76   73   75 1   
@<TRIPOS>SUBSTRUCTURE
     1 BLA         1 TEMP              0 ****  ****    0 ROOT
