@<TRIPOS>MOLECULE
BLA
   75    77     1     0     0
SMALL
bcc


@<TRIPOS>ATOM
      1 CHA        -0.5620    0.8280    0.7400 c1        1 BLA     -0.098000
      2 NA          1.7770    0.0470    1.0920 na        1 BLA     -0.129000
      3 C1A         0.7130    0.5180    0.2800 c2        1 BLA     -0.131000
      4 C2A         1.2100    0.5580   -1.0760 c2        1 BLA      0.041000
      5 C3A         2.5460    0.0820   -1.0540 c2        1 BLA     -0.157000
      6 C4A         2.8700   -0.2210    0.3110 c2        1 BLA     -0.027000
      7 CMA         3.4450   -0.0780   -2.1980 c3        1 BLA     -0.180000
      8 CAA         0.4760    0.9550   -2.2880 c3        1 BLA     -0.124000
      9 CBA         1.1160    2.1150   -3.0310 c3        1 BLA     -0.217000
     10 CGA         1.3650    1.8170   -4.5190 c2        1 BLA      0.324000
     11 O1A         1.6970    0.6430   -4.8670 o         1 BLA     -0.591000
     12 O2A         1.2620    2.7760   -5.3360 o         1 BLA     -0.591000
     13 CHB         4.1440   -0.7290    0.7390 c2        1 BLA     -0.087000
     14 NB          4.3400    0.1900    3.0560 ns        1 BLA     -0.329000
     15 C1B         4.7650   -0.5480    1.9240 c2        1 BLA      0.000000
     16 C2B         6.1140   -1.1070    2.2580 c2        1 BLA     -0.028000
     17 C3B         6.4600   -0.6820    3.5020 c2        1 BLA     -0.231000
     18 C4B         5.3490    0.1780    4.0350 c2        1 BLA      0.337000
     19 CMB         6.8660   -1.9610    1.3360 c3        1 BLA     -0.178000
     20 OB          5.3050    0.7800    5.1180 o         1 BLA     -0.362000
     21 CAB         5.5360    2.8390    8.9140 c1        1 BLA      0.070000
     22 CBB         4.7460    2.3600    8.0070 c2        1 BLA     -0.541000
     23 NC          0.6580    0.3250    6.1230 ns        1 BLA     -0.297000
     24 C1C         1.2960    0.5390    7.3410 c2        1 BLA      0.329000
     25 C2C         1.5530   -0.8180    7.9490 c2        1 BLA     -0.164000
     26 C3C         1.0760   -1.7670    7.0830 c2        1 BLA     -0.019000
     27 C4C         0.4980   -1.0700    5.8950 c2        1 BLA     -0.028000
     28 CAC         1.0610   -3.2000    7.2090 c2        1 BLA     -0.096000
     29 CBC         1.8350   -3.9090    8.0360 c2        1 BLA     -0.228000
     30 ND         -0.1560    0.1950    3.1720 n2        1 BLA     -0.482000
     31 C1D        -0.6860   -0.9410    3.7010 c2        1 BLA      0.055000
     32 C2D        -1.8700   -1.3960    3.1020 c2        1 BLA     -0.450000
     33 C3D        -2.2390   -0.4300    2.0250 c3        1 BLA     -0.053000
     34 C4D        -1.0640    0.6250    2.1070 c3        1 BLA     -0.056000
     35 CGD        -4.0110    3.2420   -1.3810 cv        1 BLA      0.332000
     36 O1D        -3.7380    2.5270   -0.1460 os        1 BLA     -0.304000
     37 O2D        -5.0640    3.8210   -1.5650 o         1 BLA     -0.317000
     38 HHA        -1.5050    1.6270    2.4050 h1        1 BLA      0.099000
     39 HA          1.6620   -0.1370    2.0680 hn        1 BLA      0.288000
     40 HMA1        3.9040   -1.0980   -2.2020 hc        1 BLA      0.093667
     41 HMA2        2.8810    0.0720   -3.1640 hc        1 BLA      0.093667
     42 HMA3        4.2730    0.6750   -2.1570 hc        1 BLA      0.093667
     43 HAA1       -0.5850    1.2120   -2.0240 hc        1 BLA      0.110500
     44 HAA2        0.4500    0.0630   -2.9830 hc        1 BLA      0.110500
     45 HBA1        0.4640    3.0200   -2.9490 hc        1 BLA      0.071500
     46 HBA2        2.1100    2.3690   -2.5810 hc        1 BLA      0.071500
     47 HHB         4.6760   -1.3050   -0.0420 ha        1 BLA      0.150000
     48 HB          3.5100    0.7240    3.0990 hn        1 BLA      0.272000
     49 HMB1        7.0790   -1.4100    0.3840 hc        1 BLA      0.091000
     50 HMB2        6.2710   -2.8760    1.0820 hc        1 BLA      0.091000
     51 HMB3        7.8370   -2.2800    1.7880 hc        1 BLA      0.091000
     52 HAB         7.3560   -0.8780    4.0830 ha        1 BLA      0.159000
     53 HBB1        3.6390    2.3160    8.0930 ha        1 BLA      0.233000
     54 HBB2        5.0720    1.9320    7.0370 ha        1 BLA      0.233000
     55 HC          0.4230    1.0100    5.4470 hn        1 BLA      0.287000
     56 HMC1        2.2030    0.0410    9.7800 hc        1 BLA      0.082000
     57 HMC2        3.2710   -1.2700    9.1240 hc        1 BLA      0.082000
     58 HMC3        1.6830   -1.7020    9.8880 hc        1 BLA      0.082000
     59 HAC         0.3400   -3.7190    6.5490 ha        1 BLA      0.131000
     60 HBC1        1.7740   -5.0030    8.0860 ha        1 BLA      0.107000
     61 HBC2        2.5800   -3.4510    8.6990 ha        1 BLA      0.107000
     62 HHD        -0.1780   -2.7470    4.7860 ha        1 BLA      0.124000
     63 HMD1       -2.0810   -3.3640    3.9090 hc        1 BLA      0.026333
     64 HMD2       -3.5160   -2.2920    4.1400 hc        1 BLA      0.026333
     65 HMD3       -3.1630   -2.9740    2.5060 hc        1 BLA      0.026333
     66 HAD1       -3.2170    0.0740    2.2120 hc        1 BLA      0.057000
     67 HAD2       -2.2890   -0.9160    1.0200 hc        1 BLA      0.057000
     68 HBD1       -1.6570    1.5520   -0.1120 h4        1 BLA      0.333000
     69 HBD2       -2.1470    3.0550   -2.8160 ha        1 BLA      0.184000
     70 CMD        -2.6860   -2.5520    3.4280 c3        1 BLA     -0.071000
     71 CHD        -0.0910   -1.6480    4.8260 c2        1 BLA     -0.033000
     72 CMC         2.2050   -0.9450    9.2500 c3        1 BLA     -0.154000
     73 CAD        -2.4630    2.1980   -0.7080 cv        1 BLA      0.013000
     74 OC          1.5720    1.6520    7.8310 o         1 BLA     -0.409000
     75 CBD        -2.6690    2.8610   -1.8960 cv        1 BLA     -0.401000
@<TRIPOS>BOND
     1    1    3 1   
     2    1   34 1   
     3    2    3 1   
     4    2    6 1   
     5    2   39 1   
     6    3    4 1   
     7    4    5 1   
     8    4    8 1   
     9    5    6 1   
    10    5    7 1   
    11    6   13 1   
    12    7   40 1   
    13    7   41 1   
    14    7   42 1   
    15    8    9 1   
    16    8   43 1   
    17    8   44 1   
    18    9   10 1   
    19    9   45 1   
    20    9   46 1   
    21   10   11 1   
    22   10   12 1   
    23   13   15 1   
    24   13   47 1   
    25   14   15 1   
    26   14   18 1   
    27   14   48 1   
    28   15   16 1   
    29   16   17 1   
    30   16   19 1   
    31   17   18 1   
    32   17   52 1   
    33   18   20 1   
    34   19   49 1   
    35   19   50 1   
    36   19   51 1   
    37   21   22 1   
    38   22   53 1   
    39   22   54 1   
    40   23   24 1   
    41   23   27 1   
    42   23   55 1   
    43   24   25 1   
    44   24   74 1   
    45   25   26 1   
    46   25   72 1   
    47   26   27 1   
    48   26   28 1   
    49   27   71 1   
    50   28   29 1   
    51   28   59 1   
    52   29   60 1   
    53   29   61 1   
    54   30   31 1   
    55   30   34 1   
    56   31   32 1   
    57   31   71 1   
    58   32   33 1   
    59   32   70 1   
    60   33   34 1   
    61   33   66 1   
    62   33   67 1   
    63   34   38 1   
    64   35   36 1   
    65   35   37 1   
    66   35   75 1   
    67   36   73 1   
    68   56   72 1   
    69   57   72 1   
    70   58   72 1   
    71   62   71 1   
    72   63   70 1   
    73   64   70 1   
    74   65   70 1   
    75   68   73 1   
    76   69   75 1   
    77   73   75 1   
@<TRIPOS>SUBSTRUCTURE
     1 BLA         1 TEMP              0 ****  ****    0 ROOT
