@<TRIPOS>MOLECULE
BLA
   75    66     1     0     0
SMALL
bcc


@<TRIPOS>ATOM
      1 CHA        -0.4080   -1.7790    0.9510 c1        1 BLA      0.039000
      2 NA          1.7030   -1.0570   -0.3730 n2        1 BLA     -0.149000
      3 C1A         0.9960   -1.1620    0.8010 c1        1 BLA     -0.083500
      4 C2A         1.8470   -0.8270    1.8420 c1        1 BLA     -0.064000
      5 C3A         3.0670   -0.5190    1.3070 c1        1 BLA     -0.064000
      6 C4A         2.9800   -0.6610   -0.0670 c1        1 BLA     -0.083500
      7 CMA         4.3080   -0.1540    2.0840 c2        1 BLA     -0.192000
      8 CAA         1.5050   -0.8900    3.3470 c2        1 BLA     -0.112000
      9 CBA         2.0620    0.3530    4.0500 c3        1 BLA     -0.220000
     10 CGA         1.1930    0.6860    5.2660 c2        1 BLA      0.325000
     11 O1A         0.3670    1.6390    5.2110 o         1 BLA     -0.588000
     12 O2A         1.3200    0.0230    6.3340 o         1 BLA     -0.588000
     13 CHB         4.1520   -0.5250   -1.0710 c1        1 BLA     -0.049000
     14 NB          4.1860   -3.1370   -1.5410 n3        1 BLA     -0.317000
     15 C1B         4.6580   -1.6490   -1.7040 c2        1 BLA     -0.046000
     16 C2B         5.7400   -1.7150   -2.6640 c2        1 BLA     -0.006000
     17 C3B         5.9880   -2.9420   -3.0980 c1        1 BLA     -0.154000
     18 C4B         5.1320   -3.9440   -2.5130 c1        1 BLA      0.334000
     19 CMB         6.0380   -0.5230   -3.5500 c3        1 BLA     -0.179000
     20 OB          5.1350   -5.1360   -2.7230 o         1 BLA     -0.356000
     21 CAB         6.5660   -3.1540   -4.5000 c2        1 BLA     -0.102000
     22 CBB         7.6830   -3.9050   -4.6670 c1        1 BLA     -0.214000
     23 NC         -3.1780    3.9190    0.9720 n         1 BLA     -0.317000
     24 C1C        -3.4270    5.4560    0.7480 c2        1 BLA      0.331000
     25 C2C        -3.8430    5.5540   -0.6270 c2        1 BLA     -0.142000
     26 C3C        -3.8880    4.3750   -1.2510 c1        1 BLA     -0.025000
     27 C4C        -3.5070    3.2630   -0.4070 c1        1 BLA      0.047000
     28 CMC        -4.7670    6.6840   -1.0660 c3        1 BLA     -0.161000
     29 OC         -3.2960    6.3560    1.5520 o         1 BLA     -0.346000
     30 CAC        -4.8560    4.1610   -2.3960 c2        1 BLA     -0.108000
     31 CBC        -4.5110    4.5320   -3.6540 c1        1 BLA     -0.209000
     32 CHD        -3.4490    1.9290   -0.7430 c1        1 BLA     -0.110000
     33 ND         -1.6210    0.4830    0.4080 n1        1 BLA     -0.187000
     34 C1D        -3.0130    0.8790    0.3130 c1        1 BLA      0.004000
     35 C2D        -3.8520   -0.2530    0.5890 c2        1 BLA     -0.181000
     36 C3D        -3.0290   -1.3990    0.8620 c1        1 BLA     -0.008000
     37 C4D        -1.5290   -0.9990    0.7640 c1        1 BLA     -0.124000
     38 CMD        -5.1630   -0.0630    1.3350 c3        1 BLA     -0.146000
     39 CAD        -3.4790   -2.4370    1.8890 c3        1 BLA     -0.123000
     40 CBD        -4.6130   -3.2870    1.2960 c3        1 BLA     -0.224000
     41 CGD        -4.4530   -4.7310    1.7460 c2        1 BLA      0.328000
     42 O1D        -5.0180   -5.6600    1.1000 o         1 BLA     -0.585000
     43 O2D        -3.8120   -4.9940    2.7960 o         1 BLA     -0.585000
     44 HHA        -0.5040   -2.7300    1.1800 ha        1 BLA      0.170000
     45 HA          1.3820   -1.2210   -1.2040 DU        1 BLA      0.173000
     46 HMA1        4.3730    0.8170    2.1550 ha        1 BLA      0.100667
     47 HMA2        5.0950   -0.5000    1.6220 ha        1 BLA      0.100667
     48 HMA3        4.2580   -0.5440    2.9820 ha        1 BLA      0.100667
     49 HAA1        0.5350   -0.9210    3.4610 ha        1 BLA      0.100000
     50 HAA2        1.9060   -1.6940    3.7400 ha        1 BLA      0.100000
     51 HBA1        2.0570    1.1050    3.4310 hc        1 BLA      0.073000
     52 HBA2        2.9830    0.1780    4.3440 hc        1 BLA      0.073000
     53 HHB         4.5360    0.3570   -1.2590 ha        1 BLA      0.149000
     54 HB          3.7290   -3.4810   -0.8270 hn        1 BLA      0.265000
     55 HMB1        6.2750   -0.8360   -4.4530 hc        1 BLA      0.092333
     56 HMB2        6.7870   -0.0160   -3.1730 hc        1 BLA      0.092333
     57 HMB3        5.2480    0.0510   -3.6000 hc        1 BLA      0.092333
     58 HAB         6.1330   -2.7530   -5.2680 ha        1 BLA      0.110000
     59 HBB1        8.1190   -4.3080   -3.8940 DU        1 BLA      0.173000
     60 HBB2        8.0550   -4.0420   -5.5700 ha        1 BLA      0.097000
     61 HC         -2.9030    3.5040    1.7360 hn        1 BLA      0.265000
     62 HMC1       -4.7980    6.7170   -2.0450 hc        1 BLA      0.088333
     63 HMC2       -4.4270    7.5360   -0.7200 hc        1 BLA      0.088333
     64 HMC3       -5.6670    6.5250   -0.7160 hc        1 BLA      0.088333
     65 HAC        -5.7400    3.7850   -2.2230 ha        1 BLA      0.134000
     66 HBC1       -5.1390    4.3920   -4.3970 DU        1 BLA      0.173000
     67 HBC2       -3.6230    4.9060   -3.8290 ha        1 BLA      0.114000
     68 HHD        -3.6830    1.6430   -1.6500 ha        1 BLA      0.144000
     69 HMD1       -5.5650   -0.9440    1.5210 hc        1 BLA      0.076000
     70 HMD2       -5.7740    0.4650    0.7890 hc        1 BLA      0.076000
     71 HMD3       -4.9930    0.4030    2.1790 hc        1 BLA      0.076000
     72 HAD1       -3.8010   -1.9790    2.7000 hc        1 BLA      0.113000
     73 HAD2       -2.7210   -3.0170    2.1200 hc        1 BLA      0.113000
     74 HBD1       -5.4750   -2.9420    1.6050 hc        1 BLA      0.064000
     75 HBD2       -4.5760   -3.2440    0.3140 hc        1 BLA      0.064000
@<TRIPOS>BOND
     1    1   37 1   
     2    1   44 1   
     3    2    3 1   
     4    2    6 1   
     5    3    4 1   
     6    4    5 1   
     7    5    6 1   
     8    7   46 1   
     9    7   47 1   
    10    7   48 1   
    11    8    9 1   
    12    8   49 1   
    13    8   50 1   
    14    9   10 1   
    15    9   51 1   
    16    9   52 1   
    17   10   11 1   
    18   10   12 1   
    19   13   15 1   
    20   13   53 1   
    21   14   15 1   
    22   14   18 1   
    23   14   54 1   
    24   15   16 1   
    25   16   17 1   
    26   16   19 1   
    27   17   21 1   
    28   18   20 1   
    29   19   55 1   
    30   19   56 1   
    31   19   57 1   
    32   21   22 1   
    33   21   58 1   
    34   22   60 1   
    35   23   24 1   
    36   23   27 1   
    37   23   61 1   
    38   24   25 1   
    39   24   29 1   
    40   25   26 1   
    41   25   28 1   
    42   26   30 1   
    43   27   32 1   
    44   28   62 1   
    45   28   63 1   
    46   28   64 1   
    47   30   31 1   
    48   30   65 1   
    49   31   67 1   
    50   32   68 1   
    51   33   34 1   
    52   34   35 1   
    53   35   36 1   
    54   35   38 1   
    55   36   39 1   
    56   38   69 1   
    57   38   70 1   
    58   38   71 1   
    59   39   40 1   
    60   39   72 1   
    61   39   73 1   
    62   40   41 1   
    63   40   74 1   
    64   40   75 1   
    65   41   42 1   
    66   41   43 1   
@<TRIPOS>SUBSTRUCTURE
     1 BLA         1 TEMP              0 ****  ****    0 ROOT
