@<TRIPOS>MOLECULE
BLF
   69    61     1     0     0
SMALL
bcc


@<TRIPOS>ATOM
      1 CL1        -7.4810   -0.2010   -1.7290 cl        1 BLF     -0.011000
      2 C2         -5.7260   -0.0880   -1.5440 c2        1 BLF     -0.036000
      3 CL2         2.9350   -6.5920   -5.7800 cl        1 BLF     -0.008000
      4 C3         -5.0260   -0.0230   -0.3450 c2        1 BLF     -0.139000
      5 C5         -3.5830   -0.0580   -0.3510 c1        1 BLF      0.014000
      6 N6         -2.6350    0.0060    0.6820 n1        1 BLF     -0.173000
      7 C8         -1.3930   -0.0530    0.1210 c1        1 BLF     -0.045000
      8 C9         -1.5470   -0.1530   -1.2570 c1        1 BLF     -0.062000
      9 C10        -2.9070   -0.1550   -1.5370 c1        1 BLF     -0.088000
     10 C11        -3.6200   -0.2210   -2.7550 c1        1 BLF     -0.069000
     11 C13        -5.0330   -0.1870   -2.7510 c1        1 BLF     -0.150000
     12 C15        -0.4410   -0.1240   -2.3600 c1        1 BLF     -0.061500
     13 N16         0.2850   -1.1800   -2.7740 n2        1 BLF     -0.140500
     14 C17         1.1330   -0.7520   -3.7470 c1        1 BLF     -0.081000
     15 N19         0.9220    0.5980   -3.9330 n2        1 BLF     -0.140500
     16 C20        -0.0400    0.9850   -3.0860 c1        1 BLF     -0.061500
     17 C21        -0.6080    2.4850   -2.9160 c1        1 BLF     -0.014000
     18 C22         0.0260    3.3670   -2.0670 c2        1 BLF     -0.106000
     19 C24        -0.3640    4.7070   -2.0300 c1        1 BLF     -0.139000
     20 C26        -1.3960    5.1560   -2.8520 c1        1 BLF     -0.130000
     21 C28        -2.0360    4.2690   -3.7090 c1        1 BLF     -0.130000
     22 C30        -1.6460    2.9350   -3.7450 c1        1 BLF     -0.119000
     23 C32         0.2730   -2.4620   -2.1950 c2        1 BLF      0.015000
     24 C35         0.9030   -3.4630   -3.1630 c2        1 BLF     -0.115000
     25 C36         2.2150   -3.2460   -3.6500 c2        1 BLF     -0.094000
     26 C38         2.8200   -4.1950   -4.4490 c1        1 BLF     -0.122000
     27 C40         2.1430   -5.3670   -4.7760 c1        1 BLF     -0.052000
     28 C41         0.8500   -5.5840   -4.2970 c1        1 BLF     -0.128000
     29 C43         0.2320   -4.6260   -3.4880 c1        1 BLF     -0.109000
     30 C46        -0.0990   -0.0300    0.8890 c1        1 BLF      0.353000
     31 O47         0.9750    0.0090    0.2840 o         1 BLF     -0.379000
     32 N48        -0.1200    0.0640    2.3810 n3        1 BLF     -0.356000
     33 C50         1.1260   -0.0130    3.1360 c3        1 BLF     -0.030000
     34 C53         0.8530    0.3260    4.5970 c3        1 BLF     -0.090000
     35 N56         2.1330    0.7520    5.2610 n3        1 BLF     -0.253000
     36 C57         2.4590   -0.1600    6.3000 c3        1 BLF     -0.103500
     37 C60         3.6670    0.2920    7.1030 c3        1 BLF     -0.024000
     38 O63         3.5360    1.6260    7.5670 os        1 BLF     -0.272000
     39 C64         3.2040    2.5390    6.5290 c3        1 BLF     -0.024000
     40 C67         2.0080    2.0950    5.7320 c3        1 BLF     -0.103500
     41 H3         -5.5090   -0.0380    0.4990 ha        1 BLF      0.155000
     42 H11        -3.1440   -0.2920   -3.5860 ha        1 BLF      0.150000
     43 H13        -5.5220   -0.2020   -3.5920 ha        1 BLF      0.151000
     44 H17         1.7910   -1.3160   -4.2390 DU        1 BLF      0.239000
     45 H22         0.7050    3.0740   -1.5250 ha        1 BLF      0.148000
     46 H24         0.0950    5.3410   -1.4170 ha        1 BLF      0.132000
     47 H26        -1.6740    6.1110   -2.8260 ha        1 BLF      0.132000
     48 H28        -2.7970    4.5990   -4.3160 ha        1 BLF      0.132000
     49 H30        -2.0630    2.3570   -4.3020 ha        1 BLF      0.144000
     50 H32        -0.6930   -2.7370   -1.9970 ha        1 BLF      0.115000
     51 H32A        0.7780   -2.4490   -1.3760 ha        1 BLF      0.115000
     52 H36         2.6900   -2.4290   -3.4230 ha        1 BLF      0.149000
     53 H38         3.7430   -4.0420   -4.7910 ha        1 BLF      0.157000
     54 H41         0.3680   -6.4210   -4.5310 ha        1 BLF      0.150000
     55 H43        -0.6770   -4.7800   -3.1510 ha        1 BLF      0.136000
     56 HN48       -0.9210    0.0900    2.8260 hn        1 BLF      0.249000
     57 H50         1.7740    0.6240    2.7680 h1        1 BLF      0.111000
     58 H50A        1.4930   -0.9340    3.0740 h1        1 BLF      0.111000
     59 H53         0.4850   -0.4840    5.0680 h1        1 BLF      0.080500
     60 H53A        0.1980    1.0570    4.6440 h1        1 BLF      0.080500
     61 H57         1.7070   -0.2390    6.8910 h1        1 BLF      0.080750
     62 H57A        2.6560   -1.0740    5.8890 h1        1 BLF      0.080750
     63 H60         3.7770   -0.2990    7.8720 h1        1 BLF      0.093750
     64 H60A        4.4730    0.2280    6.5320 h1        1 BLF      0.093750
     65 H64         3.9650    2.6280    5.9290 h1        1 BLF      0.093750
     66 H64A        3.0110    3.4050    6.9250 h1        1 BLF      0.093750
     67 H67         1.9000    2.7070    4.9460 h1        1 BLF      0.080750
     68 H67A        1.2220    2.1590    6.2880 h1        1 BLF      0.080750
     69 HN6        -2.8290    0.0780    1.6280 DU        1 BLF      0.239000
@<TRIPOS>BOND
     1    1    2 1   
     2    2    4 1   
     3    2   11 1   
     4    3   27 1   
     5    4    5 1   
     6    4   41 1   
     7    6    7 1   
     8    7    8 1   
     9    8    9 1   
    10    9   10 1   
    11   10   42 1   
    12   11   43 1   
    13   12   13 1   
    14   12   16 1   
    15   13   14 1   
    16   14   15 1   
    17   15   16 1   
    18   17   18 1   
    19   17   22 1   
    20   18   19 1   
    21   18   45 1   
    22   19   46 1   
    23   20   21 1   
    24   20   47 1   
    25   21   48 1   
    26   22   49 1   
    27   23   24 1   
    28   23   50 1   
    29   23   51 1   
    30   24   25 1   
    31   24   29 1   
    32   25   26 1   
    33   25   52 1   
    34   26   53 1   
    35   27   28 1   
    36   28   54 1   
    37   29   55 1   
    38   30   31 1   
    39   30   32 1   
    40   32   33 1   
    41   32   56 1   
    42   33   34 1   
    43   33   57 1   
    44   33   58 1   
    45   34   35 1   
    46   34   59 1   
    47   34   60 1   
    48   35   36 1   
    49   35   40 1   
    50   36   37 1   
    51   36   61 1   
    52   36   62 1   
    53   37   38 1   
    54   37   63 1   
    55   37   64 1   
    56   38   39 1   
    57   39   40 1   
    58   39   65 1   
    59   39   66 1   
    60   40   67 1   
    61   40   68 1   
@<TRIPOS>SUBSTRUCTURE
     1 BLF         1 TEMP              0 ****  ****    0 ROOT
