@<TRIPOS>MOLECULE
BLF
   69    74     1     0     0
SMALL
bcc


@<TRIPOS>ATOM
      1 CL1        -4.7370    0.9030    4.5910 cl        1 BLF     -0.090400
      2 C2         -3.5520    0.6630    3.3940 ca        1 BLF      0.043400
      3 CL2        -7.2580   -2.3370   -2.2380 cl        1 BLF     -0.086400
      4 C3         -2.3570    0.0510    3.7400 ca        1 BLF     -0.142000
      5 C5         -1.4090   -0.1280    2.7160 ca        1 BLF     -0.031200
      6 N6         -0.1370   -0.6900    2.7520 na        1 BLF     -0.149400
      7 C8          0.4130   -0.6350    1.4650 cc        1 BLF     -0.094300
      8 C9         -0.5010   -0.0290    0.5860 cd        1 BLF     -0.033400
      9 C10        -1.6740    0.3070    1.3630 ca        1 BLF     -0.096800
     10 C11        -2.8940    0.9260    1.0670 ca        1 BLF     -0.064000
     11 C13        -3.8240    1.1000    2.0770 ca        1 BLF     -0.151000
     12 C15        -0.3330    0.2110   -0.8210 cd        1 BLF     -0.145400
     13 N16        -0.6920   -0.7160   -1.8170 na        1 BLF     -0.190900
     14 C17        -0.3610   -0.1310   -3.0460 cd        1 BLF      0.395400
     15 N19         0.1890    1.0880   -2.8910 nc        1 BLF     -0.658000
     16 C20         0.2160    1.3290   -1.5080 cc        1 BLF      0.363800
     17 C21         0.7430    2.5560   -0.9330 ca        1 BLF     -0.118500
     18 C22         1.7880    3.2430   -1.5700 ca        1 BLF     -0.111000
     19 C24         2.2900    4.4200   -1.0190 ca        1 BLF     -0.136500
     20 C26         1.7560    4.9260    0.1660 ca        1 BLF     -0.125000
     21 C28         0.7120    4.2520    0.7990 ca        1 BLF     -0.136500
     22 C30         0.2040    3.0760    0.2530 ca        1 BLF     -0.111000
     23 C32        -1.3060   -1.9990   -1.6270 c3        1 BLF      0.084600
     24 C35        -2.8010   -2.0370   -1.7780 ca        1 BLF     -0.114300
     25 C36        -3.5640   -2.7110   -0.8190 ca        1 BLF     -0.105000
     26 C38        -4.9460   -2.8100   -0.9580 ca        1 BLF     -0.123000
     27 C40        -5.5720   -2.2230   -2.0630 ca        1 BLF      0.023400
     28 C41        -4.8190   -1.5420   -3.0250 ca        1 BLF     -0.123000
     29 C43        -3.4360   -1.4530   -2.8780 ca        1 BLF     -0.105000
     30 C46         1.7790   -1.1820    1.2320 c         1 BLF      0.679300
     31 O47         2.3010   -1.9460    2.0750 o         1 BLF     -0.619100
     32 N48         2.4040   -0.8480    0.0530 n         1 BLF     -0.543900
     33 C50         3.7630   -1.2320   -0.2170 c3        1 BLF      0.084000
     34 C53         4.7870   -0.1110    0.0880 c3        1 BLF      0.141800
     35 N56         6.1270   -0.4610   -0.3610 n3        1 BLF     -0.725600
     36 C57         6.7500   -1.4830    0.4720 c3        1 BLF      0.131300
     37 C60         8.1920   -1.7870    0.0510 c3        1 BLF      0.126400
     38 O63         8.9800   -0.6040   -0.0240 os        1 BLF     -0.415600
     39 C64         8.4120    0.3620   -0.9000 c3        1 BLF      0.126400
     40 C67         6.9760    0.7180   -0.4980 c3        1 BLF      0.131300
     41 H3         -2.1530   -0.2810    4.7680 ha        1 BLF      0.154000
     42 H11        -3.1020    1.2690    0.0430 ha        1 BLF      0.153000
     43 H13        -4.7880    1.5840    1.8590 ha        1 BLF      0.152000
     44 H17        -0.5260   -0.6370   -4.0040 h5        1 BLF      0.064100
     45 H22         2.2080    2.8580   -2.5120 ha        1 BLF      0.145500
     46 H24         3.1080    4.9540   -1.5250 ha        1 BLF      0.132000
     47 H26         2.1540    5.8560    0.5980 ha        1 BLF      0.131000
     48 H28         0.2820    4.6510    1.7300 ha        1 BLF      0.132000
     49 H30        -0.6270    2.5500    0.7500 ha        1 BLF      0.145500
     50 H32        -0.8610   -2.7090   -2.3870 h1        1 BLF      0.076200
     51 H32A       -1.0250   -2.3650   -0.5950 h1        1 BLF      0.076200
     52 H36        -3.0750   -3.1670    0.0560 ha        1 BLF      0.141000
     53 H38        -5.5400   -3.3420   -0.2000 ha        1 BLF      0.152000
     54 H41        -5.3120   -1.0770   -3.8920 ha        1 BLF      0.152000
     55 H43        -2.8470   -0.9130   -3.6360 ha        1 BLF      0.141000
     56 HN48        2.0180   -0.1190   -0.5060 hn        1 BLF      0.330500
     57 H50         4.0110   -2.1430    0.4000 h1        1 BLF      0.072200
     58 H50A        3.8280   -1.5070   -1.3080 h1        1 BLF      0.072200
     59 H53         4.4720    0.8240   -0.4580 h1        1 BLF      0.041700
     60 H53A        4.7590    0.1140    1.1940 h1        1 BLF      0.041700
     61 H57         6.7510   -1.1880    1.5620 h1        1 BLF      0.042700
     62 H57A        6.1450   -2.4260    0.3690 h1        1 BLF      0.042700
     63 H60         8.6990   -2.4110    0.8330 h1        1 BLF      0.054200
     64 H60A        8.2140   -2.3150   -0.9380 h1        1 BLF      0.054200
     65 H64         9.0750    1.2600   -0.7950 h1        1 BLF      0.054200
     66 H64A        8.4450   -0.0220   -1.9540 h1        1 BLF      0.054200
     67 H67         6.5330    1.3690   -1.3020 h1        1 BLF      0.042700
     68 H67A        7.0120    1.3170    0.4580 h1        1 BLF      0.042700
     69 HN6         0.3090   -1.1100    3.5290 hn        1 BLF      0.324700
@<TRIPOS>BOND
     1    1    2 1   
     2    2    4 ar  
     3    2   11 ar  
     4    3   27 1   
     5    4    5 ar  
     6    4   41 1   
     7    5    6 1   
     8    5    9 ar  
     9    6    7 1   
    10    6   69 1   
    11    7    8 2   
    12    7   30 1   
    13    8    9 1   
    14    8   12 1   
    15    9   10 ar  
    16   10   11 ar  
    17   10   42 1   
    18   11   43 1   
    19   12   13 1   
    20   12   16 2   
    21   13   14 1   
    22   13   23 1   
    23   14   15 2   
    24   14   44 1   
    25   15   16 1   
    26   16   17 1   
    27   17   18 ar  
    28   17   22 ar  
    29   18   19 ar  
    30   18   45 1   
    31   19   20 ar  
    32   19   46 1   
    33   20   21 ar  
    34   20   47 1   
    35   21   22 ar  
    36   21   48 1   
    37   22   49 1   
    38   23   24 1   
    39   23   50 1   
    40   23   51 1   
    41   24   25 ar  
    42   24   29 ar  
    43   25   26 ar  
    44   25   52 1   
    45   26   27 ar  
    46   26   53 1   
    47   27   28 ar  
    48   28   29 ar  
    49   28   54 1   
    50   29   55 1   
    51   30   31 2   
    52   30   32 1   
    53   32   33 1   
    54   32   56 1   
    55   33   34 1   
    56   33   57 1   
    57   33   58 1   
    58   34   35 1   
    59   34   59 1   
    60   34   60 1   
    61   35   36 1   
    62   35   40 1   
    63   36   37 1   
    64   36   61 1   
    65   36   62 1   
    66   37   38 1   
    67   37   63 1   
    68   37   64 1   
    69   38   39 1   
    70   39   40 1   
    71   39   65 1   
    72   39   66 1   
    73   40   67 1   
    74   40   68 1   
@<TRIPOS>SUBSTRUCTURE
     1 BLF         1 TEMP              0 ****  ****    0 ROOT
