@<TRIPOS>MOLECULE
BLF
   70    75     1     0     0
SMALL
bcc


@<TRIPOS>ATOM
      1 CL1        -0.4230    0.2280    0.6930 cl        1 BLF     -0.032400
      2 C2          1.2630    0.1970    0.5630 ca        1 BLF      0.075400
      3 CL2         5.3400   -5.7360   -6.0910 cl        1 BLF     -0.056400
      4 C3          2.0360    0.4450    1.7010 ca        1 BLF     -0.144000
      5 C5          3.4250    0.4080    1.5530 ca        1 BLF     -0.013200
      6 N6          4.4290    0.5700    2.5450 na        1 BLF     -0.163400
      7 C8          5.6820    0.4780    1.8390 cc        1 BLF     -0.277300
      8 C9          5.4710    0.2020    0.4710 cd        1 BLF      0.220600
      9 C10         4.0330    0.1290    0.2790 ca        1 BLF     -0.151800
     10 C11         3.2280   -0.1070   -0.8380 ca        1 BLF     -0.040000
     11 C13         1.8490   -0.0720   -0.6910 ca        1 BLF     -0.140000
     12 C15         6.4580    0.0300   -0.5450 cd        1 BLF     -0.273400
     13 N16         6.6000   -1.1220   -1.3510 na        1 BLF     -0.184900
     14 C17         7.6700   -0.8740   -2.2100 cd        1 BLF      0.458400
     15 N19         8.1820    0.3670   -2.0390 nc        1 BLF     -0.656000
     16 C20         7.4450    0.9550   -1.0120 cc        1 BLF      0.466800
     17 C21         7.6490    2.3270   -0.5770 ca        1 BLF     -0.143500
     18 C22         8.9440    2.8620   -0.5160 ca        1 BLF     -0.104500
     19 C24         9.1340    4.1850   -0.1190 ca        1 BLF     -0.137000
     20 C26         8.0400    4.9850    0.2090 ca        1 BLF     -0.112000
     21 C28         6.7490    4.4610    0.1380 ca        1 BLF     -0.137000
     22 C30         6.5510    3.1390   -0.2550 ca        1 BLF     -0.104500
     23 C32         5.9050   -2.3720   -1.1760 c3        1 BLF      0.082600
     24 C35         5.7930   -3.1920   -2.4250 ca        1 BLF     -0.139300
     25 C36         6.4580   -4.4200   -2.5140 ca        1 BLF     -0.101500
     26 C38         6.3180   -5.2140   -3.6500 ca        1 BLF     -0.121000
     27 C40         5.5120   -4.7750   -4.7070 ca        1 BLF      0.036400
     28 C41         4.8470   -3.5450   -4.6260 ca        1 BLF     -0.121000
     29 C43         4.9890   -2.7600   -3.4850 ca        1 BLF     -0.101500
     30 C46         6.9570    0.4540    2.5090 c         1 BLF      0.589300
     31 O47         8.0880    0.4270    2.0450 o         1 BLF     -0.418100
     32 N48         6.8790    0.4020    4.0400 n4        1 BLF     -0.674800
     33 C50         8.2100    0.2360    4.6860 c3        1 BLF      0.090800
     34 C53         8.0890    0.1480    6.2280 c3        1 BLF      0.166800
     35 N56         9.4100    0.0750    6.8160 n3        1 BLF     -0.739600
     36 C57         9.9100   -1.2900    6.9340 c3        1 BLF      0.134300
     37 C60        11.2940   -1.3510    7.5930 c3        1 BLF      0.125900
     38 O63        11.3030   -0.6560    8.8330 os        1 BLF     -0.397600
     39 C64        10.9260    0.7060    8.6830 c3        1 BLF      0.125900
     40 C67         9.5300    0.8320    8.0570 c3        1 BLF      0.134300
     41 H3          1.5660    0.6570    2.6730 ha        1 BLF      0.169000
     42 H11         3.6840   -0.3110   -1.8200 ha        1 BLF      0.162000
     43 H13         1.2000   -0.2540   -1.5640 ha        1 BLF      0.172000
     44 H17         8.0230   -1.6110   -2.9440 h5        1 BLF      0.087100
     45 H22         9.8100    2.2390   -0.7910 ha        1 BLF      0.143000
     46 H24        10.1520    4.6010   -0.0780 ha        1 BLF      0.142000
     47 H26         8.1930    6.0330    0.5080 ha        1 BLF      0.143000
     48 H28         5.8830    5.0980    0.3720 ha        1 BLF      0.142000
     49 H30         5.5310    2.7360   -0.3370 ha        1 BLF      0.143000
     50 H32         6.4420   -2.9690   -0.3790 h1        1 BLF      0.067700
     51 H32A        4.8660   -2.1390   -0.7940 h1        1 BLF      0.067700
     52 H36         7.0930   -4.7690   -1.6850 ha        1 BLF      0.138000
     53 H38         6.8400   -6.1820   -3.7140 ha        1 BLF      0.161000
     54 H41         4.2140   -3.2000   -5.4590 ha        1 BLF      0.161000
     55 H43         4.4660   -1.7940   -3.4210 ha        1 BLF      0.138000
     56 HN48        6.2700   -0.3800    4.3050 hn        1 BLF      0.449800
     57 H50         8.8570    1.1100    4.3880 hx        1 BLF      0.120200
     58 H50A        8.6830   -0.7000    4.2720 hx        1 BLF      0.120200
     59 H53         7.4520   -0.7480    6.4890 h1        1 BLF      0.047200
     60 H53A        7.5590    1.0690    6.6030 h1        1 BLF      0.047200
     61 H57         9.9870   -1.7220    5.8970 h1        1 BLF      0.045200
     62 H57A        9.2020   -1.9370    7.5320 h1        1 BLF      0.045200
     63 H60        11.5460   -2.4110    7.8610 h1        1 BLF      0.068200
     64 H60A       12.0770   -0.9260    6.9110 h1        1 BLF      0.068200
     65 H64        10.9130    1.1120    9.7290 h1        1 BLF      0.068200
     66 H64A       11.6880    1.2470    8.0640 h1        1 BLF      0.068200
     67 H67         9.3430    1.9170    7.8220 h1        1 BLF      0.045200
     68 H67A        8.7660    0.4970    8.8170 h1        1 BLF      0.045200
     69 HN6         4.3140    1.3780    3.1240 hn        1 BLF      0.257700
     70 H482        6.4500    1.2680    4.3750 hn        1 BLF      0.449800
@<TRIPOS>BOND
     1    1    2 1   
     2    2    4 ar  
     3    2   11 ar  
     4    3   27 1   
     5    4    5 ar  
     6    4   41 1   
     7    5    6 1   
     8    5    9 ar  
     9    6    7 1   
    10    6   69 1   
    11    7    8 2   
    12    7   30 1   
    13    8    9 1   
    14    8   12 1   
    15    9   10 ar  
    16   10   11 ar  
    17   10   42 1   
    18   11   43 1   
    19   12   13 1   
    20   12   16 2   
    21   13   14 1   
    22   13   23 1   
    23   14   15 2   
    24   14   44 1   
    25   15   16 1   
    26   16   17 1   
    27   17   18 ar  
    28   17   22 ar  
    29   18   19 ar  
    30   18   45 1   
    31   19   20 ar  
    32   19   46 1   
    33   20   21 ar  
    34   20   47 1   
    35   21   22 ar  
    36   21   48 1   
    37   22   49 1   
    38   23   24 1   
    39   23   50 1   
    40   23   51 1   
    41   24   25 ar  
    42   24   29 ar  
    43   25   26 ar  
    44   25   52 1   
    45   26   27 ar  
    46   26   53 1   
    47   27   28 ar  
    48   28   29 ar  
    49   28   54 1   
    50   29   55 1   
    51   30   31 2   
    52   30   32 1   
    53   32   33 1   
    54   32   56 1   
    55   32   70 1   
    56   33   34 1   
    57   33   57 1   
    58   33   58 1   
    59   34   35 1   
    60   34   59 1   
    61   34   60 1   
    62   35   36 1   
    63   35   40 1   
    64   36   37 1   
    65   36   61 1   
    66   36   62 1   
    67   37   38 1   
    68   37   63 1   
    69   37   64 1   
    70   38   39 1   
    71   39   40 1   
    72   39   65 1   
    73   39   66 1   
    74   40   67 1   
    75   40   68 1   
@<TRIPOS>SUBSTRUCTURE
     1 BLF         1 TEMP              0 ****  ****    0 ROOT
