@<TRIPOS>MOLECULE
BLF
   70    75     1     0     0
SMALL
bcc


@<TRIPOS>ATOM
      1 Cl1        -0.4310    0.1660    0.7300 cl        1 BLF     -0.032400
      2 C2          1.2540    0.1510    0.5910 ca        1 BLF      0.075400
      3 Cl2         5.3590   -5.7220   -6.1010 cl        1 BLF     -0.056400
      4 C3          2.0300    0.4020    1.7260 ca        1 BLF     -0.144000
      5 C5          3.4190    0.3790    1.5710 ca        1 BLF     -0.013200
      6 N6          4.4260    0.5480    2.5580 na        1 BLF     -0.163400
      7 C8          5.6770    0.4710    1.8450 cc        1 BLF     -0.277300
      8 C9          5.4620    0.1980    0.4780 cd        1 BLF      0.220600
      9 C10         4.0230    0.1110    0.2920 ca        1 BLF     -0.151800
     10 C11         3.2160   -0.1280   -0.8210 ca        1 BLF     -0.040000
     11 C13         1.8360   -0.1080   -0.6670 ca        1 BLF     -0.140000
     12 C15         6.4450    0.0390   -0.5440 cd        1 BLF     -0.273400
     13 N16         6.5950   -1.1090   -1.3550 na        1 BLF     -0.184900
     14 C17         7.6570   -0.8480   -2.2180 cd        1 BLF      0.458400
     15 N19         8.1580    0.3980   -2.0460 nc        1 BLF     -0.656000
     16 C20         7.4210    0.9750   -1.0130 cc        1 BLF      0.466800
     17 C21         7.6120    2.3480   -0.5750 ca        1 BLF     -0.143500
     18 C22         8.9030    2.8950   -0.5200 ca        1 BLF     -0.104500
     19 C24         9.0810    4.2190   -0.1200 ca        1 BLF     -0.137000
     20 C26         7.9810    5.0070    0.2160 ca        1 BLF     -0.112000
     21 C28         6.6940    4.4700    0.1500 ca        1 BLF     -0.137000
     22 C30         6.5080    3.1470   -0.2450 ca        1 BLF     -0.104500
     23 C32         5.9130   -2.3670   -1.1790 c3        1 BLF      0.082600
     24 C35         5.8040   -3.1850   -2.4310 ca        1 BLF     -0.139300
     25 C36         6.4820   -4.4040   -2.5270 ca        1 BLF     -0.101500
     26 C38         6.3450   -5.1960   -3.6650 ca        1 BLF     -0.121000
     27 C40         5.5280   -4.7640   -4.7160 ca        1 BLF      0.036400
     28 C41         4.8490   -3.5420   -4.6270 ca        1 BLF     -0.121000
     29 C43         4.9880   -2.7590   -3.4850 ca        1 BLF     -0.101500
     30 C46         6.9550    0.4570    2.5080 c         1 BLF      0.589300
     31 O47         8.0840    0.4450    2.0390 o         1 BLF     -0.418100
     32 N48         6.8860    0.3950    4.0390 ny        1 BLF     -0.674800
     33 C50         8.2220    0.2370    4.6780 c3        1 BLF      0.090800
     34 C53         8.1090    0.1390    6.2200 c3        1 BLF      0.166800
     35 N56         9.4340    0.0720    6.8010 n3        1 BLF     -0.739600
     36 C57         9.9450   -1.2890    6.9080 c3        1 BLF      0.134300
     37 C60        11.3340   -1.3420    7.5600 c3        1 BLF      0.125900
     38 O63        11.3430   -0.6550    8.8040 os        1 BLF     -0.397600
     39 C64        10.9540    0.7040    8.6640 c3        1 BLF      0.125900
     40 C67         9.5530    0.8240    8.0460 c3        1 BLF      0.134300
     41 H3          1.5630    0.6060    2.7010 ha        1 BLF      0.169000
     42 H11         3.6680   -0.3240   -1.8070 ha        1 BLF      0.162000
     43 H13         1.1850   -0.2920   -1.5370 ha        1 BLF      0.172000
     44 H17         8.0140   -1.5790   -2.9570 h5        1 BLF      0.087100
     45 H22         9.7740    2.2820   -0.8020 ha        1 BLF      0.143000
     46 H24        10.0950    4.6460   -0.0830 ha        1 BLF      0.142000
     47 H26         8.1250    6.0560    0.5180 ha        1 BLF      0.143000
     48 H28         5.8240    5.0980    0.3910 ha        1 BLF      0.142000
     49 H30         5.4920    2.7340   -0.3230 ha        1 BLF      0.143000
     50 H32         4.8730   -2.1450   -0.7930 h1        1 BLF      0.067700
     51 H32A        6.4590   -2.9600   -0.3870 h1        1 BLF      0.067700
     52 H36         7.1260   -4.7480   -1.7030 ha        1 BLF      0.138000
     53 H38         6.8790   -6.1580   -3.7350 ha        1 BLF      0.161000
     54 H41         4.2070   -3.2020   -5.4560 ha        1 BLF      0.161000
     55 H43         4.4540   -1.8000   -3.4150 ha        1 BLF      0.138000
     56 HN48        6.2850   -0.3930    4.3040 hn        1 BLF      0.449800
     57 H50         8.8590    1.1200    4.3820 hx        1 BLF      0.120200
     58 H50A        8.7010   -0.6920    4.2550 hx        1 BLF      0.120200
     59 H53         7.4810   -0.7640    6.4780 h1        1 BLF      0.046700
     60 H53A        7.5730    1.0530    6.6040 h1        1 BLF      0.046700
     61 H57        10.0210   -1.7130    5.8690 h1        1 BLF      0.045200
     62 H57A        9.2460   -1.9450    7.5050 h1        1 BLF      0.045200
     63 H60        12.1090   -0.9060    6.8770 h1        1 BLF      0.068200
     64 H60A       11.5950   -2.4020    7.8200 h1        1 BLF      0.068200
     65 H64        10.9430    1.1040    9.7120 h1        1 BLF      0.068200
     66 H64A       11.7080    1.2560    8.0440 h1        1 BLF      0.068200
     67 H67         8.7960    0.4770    8.8070 h1        1 BLF      0.045200
     68 H67A        9.3570    1.9080    7.8190 h1        1 BLF      0.045200
     69 HN6         4.3070    1.3530    3.1410 hn        1 BLF      0.257700
     70 H482        6.4500    1.2560    4.3820 hn        1 BLF      0.449800
@<TRIPOS>BOND
     1    1    2 1   
     2    2    4 ar  
     3    2   11 ar  
     4    3   27 1   
     5    4    5 ar  
     6    4   41 1   
     7    5    6 1   
     8    5    9 ar  
     9    6    7 1   
    10    6   69 1   
    11    7    8 2   
    12    7   30 1   
    13    8    9 1   
    14    8   12 1   
    15    9   10 ar  
    16   10   11 ar  
    17   10   42 1   
    18   11   43 1   
    19   12   13 1   
    20   12   16 2   
    21   13   14 1   
    22   13   23 1   
    23   14   15 2   
    24   14   44 1   
    25   15   16 1   
    26   16   17 1   
    27   17   18 ar  
    28   17   22 ar  
    29   18   19 ar  
    30   18   45 1   
    31   19   20 ar  
    32   19   46 1   
    33   20   21 ar  
    34   20   47 1   
    35   21   22 ar  
    36   21   48 1   
    37   22   49 1   
    38   23   24 1   
    39   23   50 1   
    40   23   51 1   
    41   24   25 ar  
    42   24   29 ar  
    43   25   26 ar  
    44   25   52 1   
    45   26   27 ar  
    46   26   53 1   
    47   27   28 ar  
    48   28   29 ar  
    49   28   54 1   
    50   29   55 1   
    51   30   31 2   
    52   30   32 1   
    53   32   33 1   
    54   32   56 1   
    55   32   70 1   
    56   33   34 1   
    57   33   57 1   
    58   33   58 1   
    59   34   35 1   
    60   34   59 1   
    61   34   60 1   
    62   35   36 1   
    63   35   40 1   
    64   36   37 1   
    65   36   61 1   
    66   36   62 1   
    67   37   38 1   
    68   37   63 1   
    69   37   64 1   
    70   38   39 1   
    71   39   40 1   
    72   39   65 1   
    73   39   66 1   
    74   40   67 1   
    75   40   68 1   
@<TRIPOS>SUBSTRUCTURE
     1 BLF         1 TEMP              0 ****  ****    0 ROOT
