@<TRIPOS>MOLECULE
BLF
   70    75     1     0     0
SMALL
bcc


@<TRIPOS>ATOM
      1 CL1        -0.4240    0.2420    0.7030 cl        1 BLF     -0.032400
      2 C2          1.2620    0.2090    0.5710 ca        1 BLF      0.075400
      3 CL2         5.3230   -5.7420   -6.0790 cl        1 BLF     -0.056400
      4 C3          2.0370    0.4570    1.7060 ca        1 BLF     -0.144000
      5 C5          3.4260    0.4180    1.5570 ca        1 BLF     -0.013200
      6 N6          4.4310    0.5810    2.5470 na        1 BLF     -0.163400
      7 C8          5.6830    0.4860    1.8390 cc        1 BLF     -0.277300
      8 C9          5.4700    0.2090    0.4710 cd        1 BLF      0.220600
      9 C10         4.0310    0.1380    0.2810 ca        1 BLF     -0.151800
     10 C11         3.2240   -0.0990   -0.8340 ca        1 BLF     -0.040000
     11 C13         1.8450   -0.0620   -0.6840 ca        1 BLF     -0.140000
     12 C15         6.4550    0.0350   -0.5460 cd        1 BLF     -0.273400
     13 N16         6.5940   -1.1190   -1.3510 na        1 BLF     -0.184900
     14 C17         7.6630   -0.8740   -2.2120 cd        1 BLF      0.458400
     15 N19         8.1760    0.3670   -2.0440 nc        1 BLF     -0.656000
     16 C20         7.4420    0.9580   -1.0160 cc        1 BLF      0.466800
     17 C21         7.6470    2.3300   -0.5850 ca        1 BLF     -0.143500
     18 C22         8.9430    2.8640   -0.5280 ca        1 BLF     -0.104500
     19 C24         9.1350    4.1880   -0.1340 ca        1 BLF     -0.137000
     20 C26         8.0420    4.9890    0.1940 ca        1 BLF     -0.112000
     21 C28         6.7500    4.4660    0.1270 ca        1 BLF     -0.137000
     22 C30         6.5510    3.1440   -0.2620 ca        1 BLF     -0.104500
     23 C32         5.8980   -2.3680   -1.1710 c3        1 BLF      0.082600
     24 C35         5.7840   -3.1920   -2.4190 ca        1 BLF     -0.139300
     25 C36         6.4480   -4.4190   -2.5060 ca        1 BLF     -0.101500
     26 C38         6.3060   -5.2150   -3.6410 ca        1 BLF     -0.121000
     27 C40         5.4980   -4.7790   -4.6970 ca        1 BLF      0.036400
     28 C41         4.8330   -3.5490   -4.6170 ca        1 BLF     -0.121000
     29 C43         4.9780   -2.7610   -3.4780 ca        1 BLF     -0.101500
     30 C46         6.9590    0.4620    2.5060 c         1 BLF      0.589300
     31 O47         8.0890    0.4360    2.0410 o         1 BLF     -0.418100
     32 N48         6.8840    0.4070    4.0370 n4        1 BLF     -0.674800
     33 C50         8.2150    0.2370    4.6810 c3        1 BLF      0.090800
     34 C53         8.0970    0.1460    6.2220 c3        1 BLF      0.166800
     35 N56         9.4180    0.0670    6.8080 n3        1 BLF     -0.739600
     36 C57         9.9130   -1.3010    6.9230 c3        1 BLF      0.134300
     37 C60        11.2990   -1.3670    7.5800 c3        1 BLF      0.125900
     38 O63        11.3120   -0.6750    8.8210 os        1 BLF     -0.397600
     39 C64        10.9390    0.6880    8.6740 c3        1 BLF      0.125900
     40 C67         9.5430    0.8210    8.0510 c3        1 BLF      0.134300
     41 H3          1.5690    0.6710    2.6790 ha        1 BLF      0.169000
     42 H11         3.6780   -0.3050   -1.8170 ha        1 BLF      0.162000
     43 H13         1.1940   -0.2440   -1.5560 ha        1 BLF      0.172000
     44 H17         8.0140   -1.6130   -2.9450 h5        1 BLF      0.087100
     45 H22         9.8080    2.2400   -0.8040 ha        1 BLF      0.143000
     46 H24        10.1530    4.6030   -0.0960 ha        1 BLF      0.142000
     47 H26         8.1960    6.0380    0.4910 ha        1 BLF      0.143000
     48 H28         5.8850    5.1040    0.3610 ha        1 BLF      0.142000
     49 H30         5.5300    2.7410   -0.3420 ha        1 BLF      0.143000
     50 H32         4.8600   -2.1340   -0.7900 h1        1 BLF      0.067700
     51 H32A        6.4350   -2.9640   -0.3740 h1        1 BLF      0.067700
     52 H36         7.0850   -4.7660   -1.6780 ha        1 BLF      0.138000
     53 H38         6.8280   -6.1830   -3.7040 ha        1 BLF      0.161000
     54 H41         4.1990   -3.2050   -5.4500 ha        1 BLF      0.161000
     55 H43         4.4540   -1.7950   -3.4160 ha        1 BLF      0.138000
     56 HN48        6.4570    1.2740    4.3750 hn        1 BLF      0.449800
     57 H50         8.6860   -0.6990    4.2640 hx        1 BLF      0.120200
     58 H50A        8.8640    1.1110    4.3840 hx        1 BLF      0.120200
     59 H53         7.5700    1.0680    6.6010 h1        1 BLF      0.046700
     60 H53A        7.4570   -0.7480    6.4830 h1        1 BLF      0.046700
     61 H57         9.2040   -1.9460    7.5200 h1        1 BLF      0.045200
     62 H57A        9.9880   -1.7300    5.8850 h1        1 BLF      0.045200
     63 H60        11.5460   -2.4290    7.8450 h1        1 BLF      0.068200
     64 H60A       12.0820   -0.9440    6.8970 h1        1 BLF      0.068200
     65 H64        11.7030    1.2280    8.0550 h1        1 BLF      0.068200
     66 H64A       10.9300    1.0920    9.7210 h1        1 BLF      0.068200
     67 H67         8.7790    0.4870    8.8110 h1        1 BLF      0.045200
     68 H67A        9.3590    1.9070    7.8190 h1        1 BLF      0.045200
     69 HN6         4.3180    1.3900    3.1250 hn        1 BLF      0.257700
     70 H482        6.2730   -0.3730    4.3020 hn        1 BLF      0.449800
@<TRIPOS>BOND
     1    1    2 1   
     2    2    4 ar  
     3    2   11 ar  
     4    3   27 1   
     5    4    5 ar  
     6    4   41 1   
     7    5    6 1   
     8    5    9 ar  
     9    6    7 1   
    10    6   69 1   
    11    7    8 2   
    12    7   30 1   
    13    8    9 1   
    14    8   12 1   
    15    9   10 ar  
    16   10   11 ar  
    17   10   42 1   
    18   11   43 1   
    19   12   13 1   
    20   12   16 2   
    21   13   14 1   
    22   13   23 1   
    23   14   15 2   
    24   14   44 1   
    25   15   16 1   
    26   16   17 1   
    27   17   18 ar  
    28   17   22 ar  
    29   18   19 ar  
    30   18   45 1   
    31   19   20 ar  
    32   19   46 1   
    33   20   21 ar  
    34   20   47 1   
    35   21   22 ar  
    36   21   48 1   
    37   22   49 1   
    38   23   24 1   
    39   23   50 1   
    40   23   51 1   
    41   24   25 ar  
    42   24   29 ar  
    43   25   26 ar  
    44   25   52 1   
    45   26   27 ar  
    46   26   53 1   
    47   27   28 ar  
    48   28   29 ar  
    49   28   54 1   
    50   29   55 1   
    51   30   31 2   
    52   30   32 1   
    53   32   33 1   
    54   32   56 1   
    55   32   70 1   
    56   33   34 1   
    57   33   57 1   
    58   33   58 1   
    59   34   35 1   
    60   34   59 1   
    61   34   60 1   
    62   35   36 1   
    63   35   40 1   
    64   36   37 1   
    65   36   61 1   
    66   36   62 1   
    67   37   38 1   
    68   37   63 1   
    69   37   64 1   
    70   38   39 1   
    71   39   40 1   
    72   39   65 1   
    73   39   66 1   
    74   40   67 1   
    75   40   68 1   
@<TRIPOS>SUBSTRUCTURE
     1 BLF         1 TEMP              0 ****  ****    0 ROOT
