@<TRIPOS>MOLECULE
BLI
   68    71     1     0     0
SMALL
bcc


@<TRIPOS>ATOM
      1 N1          1.2690    0.2030   -1.1670 n         1 BLI     -0.478800
      2 C1          2.5130    0.2050   -0.3800 c3        1 BLI      0.059700
      3 C2          2.2680    0.3440    1.1440 c3        1 BLI      0.206800
      4 N3          1.1780   -0.4860    1.5830 n3        1 BLI     -0.800500
      5 C4         -0.0700   -0.1810    0.9550 c3        1 BLI      0.163800
      6 C5          0.0220    0.0680   -0.5530 c         1 BLI      0.692500
      7 O11        -1.0020    0.1220   -1.2710 o         1 BLI     -0.689500
      8 C01         1.4130    1.0290   -2.3510 c3        1 BLI      0.034700
      9 C09         1.2400    0.2620   -3.6690 c         1 BLI      0.533100
     10 O09         1.7540    0.5330   -4.7410 o         1 BLI     -0.412100
     11 N10         0.2740   -0.9030   -3.6330 n4        1 BLI     -0.682800
     12 C03         2.8120    1.6940   -2.2980 c3        1 BLI     -0.082400
     13 C06         3.4040    1.3260   -0.9400 c3        1 BLI     -0.097400
     14 S1          1.4290   -1.9140    2.4210 s6        1 BLI      1.420900
     15 O2          0.3790   -2.7760    2.0500 o         1 BLI     -0.634800
     16 C02         1.2880   -1.3990    4.0450 c3        1 BLI     -0.240300
     17 O1          2.7450   -2.3220    2.1370 o         1 BLI     -0.634800
     18 C1'        -0.1830   -1.3930   -4.9620 c3        1 BLI      0.103800
     19 C2'        -1.3730   -0.6150   -5.5350 c3        1 BLI     -0.084700
     20 C3'        -1.5610   -1.0360   -6.9880 c3        1 BLI     -0.116900
     21 C7'        -2.7640   -0.3260   -7.6020 c3        1 BLI      0.171300
     22 C4'        -2.6510   -0.8740   -4.7520 c3        1 BLI     -0.116900
     23 C5'        -3.8430   -0.1800   -5.4120 c3        1 BLI      0.171300
     24 N1'        -4.0090   -0.4100   -6.8430 nh        1 BLI     -0.686600
     25 C6'        -4.8390   -1.5320   -7.1820 c2        1 BLI      0.568100
     26 N2'        -6.0810   -1.0820   -7.9260 n4        1 BLI     -0.820600
     27 N3'        -4.5780   -2.7910   -6.8940 n2        1 BLI     -0.342200
     28 O3'        -5.4310   -3.6960   -7.2570 oh        1 BLI     -0.336500
     29 C6B         1.4710   -2.5330    4.9880 ca        1 BLI     -0.116300
     30 C1B         2.7470   -3.0760    5.1920 ca        1 BLI     -0.107500
     31 C2B         2.9250   -4.1160    6.1010 ca        1 BLI     -0.120500
     32 C3B         1.8360   -4.6150    6.8170 ca        1 BLI     -0.099000
     33 C4B         0.5660   -4.0740    6.6200 ca        1 BLI     -0.120500
     34 C5B         0.3810   -3.0340    5.7100 ca        1 BLI     -0.107500
     35 H11         3.0080   -0.7960   -0.5660 h1        1 BLI      0.091700
     36 H21         3.2180    0.0350    1.6700 h1        1 BLI      0.086700
     37 H22         2.0530    1.4220    1.3950 h1        1 BLI      0.086700
     38 H41        -0.5100    0.7710    1.3810 h1        1 BLI      0.113700
     39 H42        -0.8100   -1.0220    1.1170 h1        1 BLI      0.113700
     40 H011        0.5970    1.8170   -2.3910 h1        1 BLI      0.115700
     41 H101        0.7450   -1.6720   -3.1380 hn        1 BLI      0.481300
     42 H031        3.4620    1.3320   -3.1330 hc        1 BLI      0.091200
     43 H032        2.6990    2.8020   -2.4050 hc        1 BLI      0.091200
     44 H061        4.4580    0.9680   -1.0410 hc        1 BLI      0.088700
     45 H062        3.4080    2.2130   -0.2570 hc        1 BLI      0.088700
     46 H021        2.0530   -0.6130    4.3010 h1        1 BLI      0.126700
     47 H022        0.2930   -0.9160    4.2510 h1        1 BLI      0.126700
     48 H1'1        0.6870   -1.3250   -5.6810 hx        1 BLI      0.114700
     49 H1'2       -0.4670   -2.4790   -4.8440 hx        1 BLI      0.114700
     50 H2'1       -1.1440    0.4890   -5.5130 hc        1 BLI      0.079700
     51 H3'1       -0.6530   -0.7660   -7.5900 hc        1 BLI      0.075450
     52 H3'2       -1.6930   -2.1490   -7.0470 hc        1 BLI      0.075450
     53 H7'1       -2.9280   -0.7200   -8.6440 h1        1 BLI      0.085950
     54 H7'2       -2.5430    0.7800   -7.6760 h1        1 BLI      0.085950
     55 H4'1       -2.5710   -0.4770   -3.7050 hc        1 BLI      0.075450
     56 H4'2       -2.8390   -1.9780   -4.6850 hc        1 BLI      0.075450
     57 H5'1       -3.7160    0.9390   -5.3140 h1        1 BLI      0.085950
     58 H5'2       -4.7830   -0.4750   -4.8680 h1        1 BLI      0.085950
     59 HN21       -6.6940   -1.8820   -8.1240 hn        1 BLI      0.475800
     60 HN22       -6.5900   -0.3950   -7.3570 hn        1 BLI      0.475800
     61 HO31       -5.0600   -4.5610   -6.9490 ho        1 BLI      0.510000
     62 H1A1        3.6070   -2.6880    4.6240 ha        1 BLI      0.139000
     63 H2A1        3.9290   -4.5400    6.2560 ha        1 BLI      0.148000
     64 H3A1        1.9800   -5.4350    7.5390 ha        1 BLI      0.149000
     65 H4A1       -0.2940   -4.4650    7.1860 ha        1 BLI      0.148000
     66 H5A1       -0.6230   -2.6070    5.5650 ha        1 BLI      0.139000
     67 H102       -0.5500   -0.6180   -3.0670 hn        1 BLI      0.481300
     68 H2'3       -5.8030   -0.6390   -8.8100 hn        1 BLI      0.475800
@<TRIPOS>BOND
     1    1    2 1   
     2    1    6 1   
     3    1    8 1   
     4    2    3 1   
     5    2   13 1   
     6    2   35 1   
     7    3    4 1   
     8    3   36 1   
     9    3   37 1   
    10    4    5 1   
    11    4   14 1   
    12    5    6 1   
    13    5   38 1   
    14    5   39 1   
    15    6    7 2   
    16    8    9 1   
    17    8   12 1   
    18    8   40 1   
    19    9   10 2   
    20    9   11 1   
    21   11   18 1   
    22   11   41 1   
    23   11   67 1   
    24   12   13 1   
    25   12   42 1   
    26   12   43 1   
    27   13   44 1   
    28   13   45 1   
    29   14   15 2   
    30   14   16 1   
    31   14   17 2   
    32   16   29 1   
    33   16   46 1   
    34   16   47 1   
    35   18   19 1   
    36   18   48 1   
    37   18   49 1   
    38   19   20 1   
    39   19   22 1   
    40   19   50 1   
    41   20   21 1   
    42   20   51 1   
    43   20   52 1   
    44   21   24 1   
    45   21   53 1   
    46   21   54 1   
    47   22   23 1   
    48   22   55 1   
    49   22   56 1   
    50   23   24 1   
    51   23   57 1   
    52   23   58 1   
    53   24   25 1   
    54   25   26 1   
    55   25   27 2   
    56   26   59 1   
    57   26   60 1   
    58   26   68 1   
    59   27   28 1   
    60   28   61 1   
    61   29   30 ar  
    62   29   34 ar  
    63   30   31 ar  
    64   30   62 1   
    65   31   32 ar  
    66   31   63 1   
    67   32   33 ar  
    68   32   64 1   
    69   33   34 ar  
    70   33   65 1   
    71   34   66 1   
@<TRIPOS>SUBSTRUCTURE
     1 BLI         1 TEMP              0 ****  ****    0 ROOT
