@<TRIPOS>MOLECULE
BLI
   66    69     1     0     0
SMALL
bcc


@<TRIPOS>ATOM
      1 N1          0.3840   -1.3710    1.3560 n         1 BLI     -0.436800
      2 C1          1.5650   -1.4450    2.2130 c3        1 BLI      0.076700
      3 C2          2.8830   -1.5430    1.4100 c3        1 BLI      0.203800
      4 N3          2.9550   -0.5710    0.3530 n3        1 BLI     -0.819500
      5 C4          1.8210   -0.5080   -0.5270 c3        1 BLI      0.147800
      6 C5          0.5010   -1.0620    0.0130 c         1 BLI      0.693500
      7 O11        -0.4700   -1.1780   -0.7640 o         1 BLI     -0.650500
      8 C01        -0.6730   -2.2520    1.8450 c3        1 BLI      0.024700
      9 C09        -1.9250   -1.4770    2.3210 c         1 BLI      0.656100
     10 O09        -2.3970   -1.6650    3.4610 o         1 BLI     -0.618100
     11 N10        -2.4860   -0.5990    1.4280 n         1 BLI     -0.553900
     12 C03        -0.0690   -3.0980    2.9880 c3        1 BLI     -0.089400
     13 C06         1.3830   -2.6570    3.1460 c3        1 BLI     -0.090400
     14 S1          4.2060    0.4790    0.2010 s6        1 BLI      1.440900
     15 O2          3.7330    1.6920   -0.3290 o         1 BLI     -0.637300
     16 C02         5.1800   -0.3260   -0.9870 c3        1 BLI     -0.245300
     17 O1          4.9250    0.5200    1.4130 o         1 BLI     -0.637300
     18 C1'        -3.7100    0.1040    1.6970 c3        1 BLI      0.088000
     19 C2'        -4.9070   -0.3410    0.8420 c3        1 BLI     -0.086700
     20 C3'        -6.1570    0.3660    1.3470 c3        1 BLI     -0.107400
     21 C7'        -7.3640    0.0090    0.4810 c3        1 BLI      0.176800
     22 C4'        -4.6850   -0.0300   -0.6280 c3        1 BLI     -0.107400
     23 C5'        -5.9390   -0.3240   -1.4510 c3        1 BLI      0.176800
     24 N1'        -7.1940    0.2160   -0.9520 nh        1 BLI     -0.685600
     25 C6'        -7.5130    1.5760   -1.3710 c2        1 BLI      0.692100
     26 N2'        -8.9050    1.8420   -1.4740 nh        1 BLI     -0.898800
     27 N3'        -6.5350    2.4630   -1.5680 n2        1 BLI     -0.553200
     28 O3'        -6.8980    3.6400   -2.0450 oh        1 BLI     -0.367500
     29 C6B         6.4040    0.4360   -1.3340 ca        1 BLI     -0.080300
     30 C1B         7.4350    0.5760   -0.3940 ca        1 BLI     -0.113000
     31 C2B         8.5980    1.2660   -0.7300 ca        1 BLI     -0.126000
     32 C3B         8.7440    1.8170   -2.0030 ca        1 BLI     -0.118000
     33 C4B         7.7210    1.6800   -2.9410 ca        1 BLI     -0.126000
     34 C5B         6.5560    0.9900   -2.6110 ca        1 BLI     -0.113000
     35 H11         1.5870   -0.4970    2.8290 h1        1 BLI      0.081700
     36 H21         3.7370   -1.3820    2.1300 h1        1 BLI      0.068700
     37 H22         2.9750   -2.5790    0.9720 h1        1 BLI      0.068700
     38 H41         1.6270    0.5700   -0.8160 h1        1 BLI      0.088700
     39 H42         2.0350   -1.0970   -1.4690 h1        1 BLI      0.088700
     40 H011       -1.0220   -2.9240    1.0050 h1        1 BLI      0.081700
     41 H101       -2.1380   -0.5620    0.4950 hn        1 BLI      0.334500
     42 H031       -0.6410   -2.9400    3.9380 hc        1 BLI      0.078700
     43 H032       -0.1320   -4.1810    2.7220 hc        1 BLI      0.078700
     44 H061        1.6000   -2.3600    4.2010 hc        1 BLI      0.059700
     45 H062        2.0830   -3.4830    2.8700 hc        1 BLI      0.059700
     46 H021        5.4980   -1.3400   -0.6200 h1        1 BLI      0.112700
     47 H022        4.5920   -0.5180   -1.9250 h1        1 BLI      0.112700
     48 H1'1       -3.5270    1.2020    1.5110 h1        1 BLI      0.063200
     49 H1'2       -3.9760   -0.0310    2.7860 h1        1 BLI      0.063200
     50 H2'1       -5.0540   -1.4510    0.9590 hc        1 BLI      0.054700
     51 H3'1       -5.9940    1.4750    1.3360 hc        1 BLI      0.056450
     52 H3'2       -6.3690    0.0590    2.4030 hc        1 BLI      0.056450
     53 H7'1       -8.2580    0.5880    0.8430 h1        1 BLI      0.058450
     54 H7'2       -7.5860   -1.0900    0.6060 h1        1 BLI      0.058450
     55 H4'1       -4.3890    1.0450   -0.7460 hc        1 BLI      0.056450
     56 H4'2       -3.8500   -0.6580   -1.0350 hc        1 BLI      0.056450
     57 H5'1       -6.0940   -1.4420   -1.4750 h1        1 BLI      0.058450
     58 H5'2       -5.7750    0.0250   -2.5080 h1        1 BLI      0.058450
     59 HN21       -9.4760    1.0410   -1.6270 hn        1 BLI      0.402300
     60 HN22       -9.1190    2.6020   -2.0840 hn        1 BLI      0.402300
     61 HO31       -6.0500    4.1070   -2.1800 ho        1 BLI      0.435000
     62 H1A1        7.3130    0.1550    0.6170 ha        1 BLI      0.142000
     63 H2A1        9.4000    1.3770    0.0150 ha        1 BLI      0.136500
     64 H3A1        9.6630    2.3620   -2.2650 ha        1 BLI      0.135000
     65 H4A1        7.8310    2.1170   -3.9440 ha        1 BLI      0.136500
     66 H5A1        5.7520    0.8870   -3.3550 ha        1 BLI      0.142000
@<TRIPOS>BOND
     1    1    2 1   
     2    1    6 1   
     3    1    8 1   
     4    2    3 1   
     5    2   13 1   
     6    2   35 1   
     7    3    4 1   
     8    3   36 1   
     9    3   37 1   
    10    4    5 1   
    11    4   14 1   
    12    5    6 1   
    13    5   38 1   
    14    5   39 1   
    15    6    7 2   
    16    8    9 1   
    17    8   12 1   
    18    8   40 1   
    19    9   10 2   
    20    9   11 1   
    21   11   18 1   
    22   11   41 1   
    23   12   13 1   
    24   12   42 1   
    25   12   43 1   
    26   13   44 1   
    27   13   45 1   
    28   14   15 2   
    29   14   16 1   
    30   14   17 2   
    31   16   29 1   
    32   16   46 1   
    33   16   47 1   
    34   18   19 1   
    35   18   48 1   
    36   18   49 1   
    37   19   20 1   
    38   19   22 1   
    39   19   50 1   
    40   20   21 1   
    41   20   51 1   
    42   20   52 1   
    43   21   24 1   
    44   21   53 1   
    45   21   54 1   
    46   22   23 1   
    47   22   55 1   
    48   22   56 1   
    49   23   24 1   
    50   23   57 1   
    51   23   58 1   
    52   24   25 1   
    53   25   26 1   
    54   25   27 2   
    55   26   59 1   
    56   26   60 1   
    57   27   28 1   
    58   28   61 1   
    59   29   30 ar  
    60   29   34 ar  
    61   30   31 ar  
    62   30   62 1   
    63   31   32 ar  
    64   31   63 1   
    65   32   33 ar  
    66   32   64 1   
    67   33   34 ar  
    68   33   65 1   
    69   34   66 1   
@<TRIPOS>SUBSTRUCTURE
     1 BLI         1 TEMP              0 ****  ****    0 ROOT
