@<TRIPOS>MOLECULE
BLI
   68    71     1     0     0
SMALL
bcc


@<TRIPOS>ATOM
      1 N1          1.2450    0.2350   -1.1630 n         1 BLI     -0.478800
      2 C1          2.4890    0.2600   -0.3770 c3        1 BLI      0.059700
      3 C2          2.2420    0.3900    1.1470 c3        1 BLI      0.206800
      4 N3          1.1700   -0.4620    1.5850 n3        1 BLI     -0.800500
      5 C4         -0.0840   -0.1810    0.9580 c3        1 BLI      0.163800
      6 C5          0.0020    0.0730   -0.5490 c         1 BLI      0.692500
      7 O11        -1.0240    0.1080   -1.2660 o         1 BLI     -0.689500
      8 C01         1.3710    1.0660   -2.3460 c3        1 BLI      0.034700
      9 C09         1.2130    0.3000   -3.6650 c         1 BLI      0.533100
     10 O09         1.7200    0.5840   -4.7370 o         1 BLI     -0.412100
     11 N10         0.2710   -0.8850   -3.6310 n4        1 BLI     -0.682800
     12 C03         2.7570    1.7600   -2.2920 c3        1 BLI     -0.082400
     13 C06         3.3570    1.4010   -0.9350 c3        1 BLI     -0.097400
     14 S1          1.4510   -1.8870    2.4180 s6        1 BLI      1.420900
     15 O2          0.4190   -2.7690    2.0460 o         1 BLI     -0.634800
     16 C02         1.3010   -1.3800    4.0450 c3        1 BLI     -0.240300
     17 O1          2.7750   -2.2680    2.1320 o         1 BLI     -0.634800
     18 C1'        -0.1760   -1.3810   -4.9620 c3        1 BLI      0.103800
     19 C2'        -1.3820   -0.6270   -5.5330 c3        1 BLI     -0.084700
     20 C3'        -1.5610   -1.0490   -6.9860 c3        1 BLI     -0.116900
     21 C7'        -2.7790   -0.3620   -7.5990 c3        1 BLI      0.171300
     22 C4'        -2.6540   -0.9130   -4.7510 c3        1 BLI     -0.116900
     23 C5'        -3.8600   -0.2410   -5.4090 c3        1 BLI      0.171300
     24 N1'        -4.0210   -0.4720   -6.8410 nh        1 BLI     -0.686600
     25 C6'        -4.8290   -1.6100   -7.1810 c2        1 BLI      0.568100
     26 N2'        -6.0810   -1.1840   -7.9230 n4        1 BLI     -0.820600
     27 N3'        -4.5410   -2.8640   -6.8970 n2        1 BLI     -0.342200
     28 O3'        -5.3760   -3.7870   -7.2620 oh        1 BLI     -0.336500
     29 C6B         1.5080   -2.5120    4.9840 ca        1 BLI     -0.116300
     30 C1B         2.7950   -3.0290    5.1860 ca        1 BLI     -0.107500
     31 C2B         2.9960   -4.0670    6.0920 ca        1 BLI     -0.120500
     32 C3B         1.9180   -4.5910    6.8080 ca        1 BLI     -0.099000
     33 C4B         0.6360   -4.0760    6.6120 ca        1 BLI     -0.120500
     34 C5B         0.4300   -3.0370    5.7060 ca        1 BLI     -0.107500
     35 H11         3.0040   -0.7300   -0.5660 h1        1 BLI      0.091700
     36 H21         2.0060    1.4630    1.4010 h1        1 BLI      0.086700
     37 H22         3.1990    0.1000    1.6710 h1        1 BLI      0.086700
     38 H41        -0.5430    0.7610    1.3870 h1        1 BLI      0.113700
     39 H42        -0.8070   -1.0380    1.1190 h1        1 BLI      0.113700
     40 H011        0.5390    1.8380   -2.3830 h1        1 BLI      0.115700
     41 H101       -0.5580   -0.6180   -3.0650 hn        1 BLI      0.481300
     42 H031        3.4140    1.4130   -3.1280 hc        1 BLI      0.091200
     43 H032        2.6210    2.8660   -2.3970 hc        1 BLI      0.091200
     44 H061        3.3430    2.2870   -0.2500 hc        1 BLI      0.088700
     45 H062        4.4180    1.0650   -1.0380 hc        1 BLI      0.088700
     46 H021        2.0500   -0.5790    4.3020 h1        1 BLI      0.126700
     47 H022        0.2970   -0.9180    4.2530 h1        1 BLI      0.126700
     48 H1'1       -0.4380   -2.4730   -4.8450 hx        1 BLI      0.114700
     49 H1'2        0.6920   -1.2940   -5.6810 hx        1 BLI      0.114700
     50 H2'1       -1.1750    0.4810   -5.5090 hc        1 BLI      0.079700
     51 H3'1       -1.6710   -2.1640   -7.0480 hc        1 BLI      0.075450
     52 H3'2       -0.6590   -0.7600   -7.5880 hc        1 BLI      0.075450
     53 H7'1       -2.5800    0.7480   -7.6710 h1        1 BLI      0.085950
     54 H7'2       -2.9350   -0.7580   -8.6420 h1        1 BLI      0.085950
     55 H4'1       -2.8190   -2.0210   -4.6860 hc        1 BLI      0.075450
     56 H4'2       -2.5830   -0.5160   -3.7030 hc        1 BLI      0.075450
     57 H5'1       -4.7940   -0.5560   -4.8660 h1        1 BLI      0.085950
     58 H5'2       -3.7550    0.8790   -5.3090 h1        1 BLI      0.085950
     59 HN21       -6.6790   -1.9950   -8.1170 hn        1 BLI      0.475800
     60 HN22       -5.8140   -0.7380   -8.8080 hn        1 BLI      0.475800
     61 HO31       -4.9870   -4.6440   -6.9570 ho        1 BLI      0.510000
     62 H1A1        3.6470   -2.6220    4.6180 ha        1 BLI      0.139000
     63 H2A1        4.0080   -4.4720    6.2450 ha        1 BLI      0.148000
     64 H3A1        2.0790   -5.4090    7.5270 ha        1 BLI      0.149000
     65 H4A1       -0.2150   -4.4860    7.1770 ha        1 BLI      0.148000
     66 H5A1       -0.5830   -2.6310    5.5620 ha        1 BLI      0.139000
     67 H102        0.7580   -1.6450   -3.1380 hn        1 BLI      0.481300
     68 H2'3       -6.6000   -0.5060   -7.3530 hn        1 BLI      0.475800
@<TRIPOS>BOND
     1    1    2 1   
     2    1    6 1   
     3    1    8 1   
     4    2    3 1   
     5    2   13 1   
     6    2   35 1   
     7    3    4 1   
     8    3   36 1   
     9    3   37 1   
    10    4    5 1   
    11    4   14 1   
    12    5    6 1   
    13    5   38 1   
    14    5   39 1   
    15    6    7 2   
    16    8    9 1   
    17    8   12 1   
    18    8   40 1   
    19    9   10 2   
    20    9   11 1   
    21   11   18 1   
    22   11   41 1   
    23   11   67 1   
    24   12   13 1   
    25   12   42 1   
    26   12   43 1   
    27   13   44 1   
    28   13   45 1   
    29   14   15 2   
    30   14   16 1   
    31   14   17 2   
    32   16   29 1   
    33   16   46 1   
    34   16   47 1   
    35   18   19 1   
    36   18   48 1   
    37   18   49 1   
    38   19   20 1   
    39   19   22 1   
    40   19   50 1   
    41   20   21 1   
    42   20   51 1   
    43   20   52 1   
    44   21   24 1   
    45   21   53 1   
    46   21   54 1   
    47   22   23 1   
    48   22   55 1   
    49   22   56 1   
    50   23   24 1   
    51   23   57 1   
    52   23   58 1   
    53   24   25 1   
    54   25   26 1   
    55   25   27 2   
    56   26   59 1   
    57   26   60 1   
    58   26   68 1   
    59   27   28 1   
    60   28   61 1   
    61   29   30 ar  
    62   29   34 ar  
    63   30   31 ar  
    64   30   62 1   
    65   31   32 ar  
    66   31   63 1   
    67   32   33 ar  
    68   32   64 1   
    69   33   34 ar  
    70   33   65 1   
    71   34   66 1   
@<TRIPOS>SUBSTRUCTURE
     1 BLI         1 TEMP              0 ****  ****    0 ROOT
