@<TRIPOS>MOLECULE
BLI
   66    65     1     0     0
SMALL
bcc


@<TRIPOS>ATOM
      1 N1          1.0610    0.6030    0.7250 n         1 BLI     -0.287000
      2 C1          2.2750    0.1790    0.4020 c3        1 BLI     -0.010000
      3 C2          3.3600    0.6170    1.3590 c3        1 BLI     -0.031000
      4 N3          3.0490    0.3100    2.7410 n3        1 BLI     -0.833000
      5 C4          1.8350    0.7970    3.1430 c3        1 BLI     -0.027000
      6 C5          0.7110    0.3230    2.0780 c2        1 BLI      0.287000
      7 O11        -0.4590    0.2770    2.4080 o         1 BLI     -0.361000
      8 C01         0.2410    0.8430   -0.6940 c3        1 BLI      0.000000
      9 C09        -0.3380   -0.4340   -1.1470 c2        1 BLI      0.302000
     10 O09         0.3680   -1.4140   -1.2570 o         1 BLI     -0.379000
     11 N10        -1.7440   -0.4990   -1.5460 n         1 BLI     -0.372000
     12 C03         1.1880    1.3400   -1.5140 c3        1 BLI     -0.167000
     13 C06         2.5550    0.7800   -0.9900 c3        1 BLI     -0.168000
     14 S1          4.2810    0.1230    3.8490 s4        1 BLI      2.013800
     15 O2          4.7250    1.3970    4.3580 o         1 BLI     -0.524400
     16 C02         3.7680   -0.9550    5.1660 c2        1 BLI     -0.801000
     17 O1          5.4750   -0.3580    3.2220 o         1 BLI     -0.524400
     18 C1'        -2.2770    0.4620   -2.5080 c3        1 BLI     -0.033000
     19 C2'        -3.0800   -0.3090   -3.6340 c3        1 BLI     -0.116000
     20 C3'        -4.3680   -0.7850   -3.0650 c3        1 BLI     -0.157500
     21 C7'        -5.2870   -1.3740   -4.1260 c3        1 BLI     -0.054000
     22 C4'        -3.2770    0.5990   -4.7880 c3        1 BLI     -0.157500
     23 C5'        -4.2010    0.0050   -5.8410 c3        1 BLI     -0.054000
     24 N1'        -5.4740   -0.4700   -5.2720 n3        1 BLI     -0.238000
     25 C6'        -6.6650   -0.5900   -6.1210 c2        1 BLI      0.099000
     26 N2'        -6.8090   -1.7110   -7.0000 n3        1 BLI     -0.312000
     27 N3'        -7.5990    0.3320   -6.0740 n1        1 BLI     -0.157000
     28 O3'        -7.4620    1.4040   -5.2340 o         1 BLI     -0.240000
     29 C6B         4.6600   -0.7120    6.4090 c2        1 BLI     -0.069000
     30 C1B         6.0520   -0.7710    6.2870 c2        1 BLI     -0.106000
     31 C2B         6.8580   -0.3900    7.3480 c1        1 BLI     -0.129000
     32 C3B         6.2820    0.0520    8.5390 c1        1 BLI     -0.122000
     33 C4B         4.8970    0.1110    8.6630 c1        1 BLI     -0.122000
     34 C5B         4.0860   -0.2710    7.5970 c1        1 BLI     -0.122000
     35 H11         2.2720   -0.7950    0.3400 h1        1 BLI      0.117000
     36 H21         3.4880    1.5930    1.2710 h1        1 BLI      0.113000
     37 H22         4.2050    0.1600    1.1130 h1        1 BLI      0.113000
     38 H41         1.7360    0.4890    4.0770 h1        1 BLI      0.128000
     39 H42         1.8160    1.7690    3.0510 h1        1 BLI      0.128000
     40 H011       -0.5530    1.4190   -0.6760 h1        1 BLI      0.128000
     41 H101       -2.2890   -1.1420   -1.1950 hn        1 BLI      0.233000
     42 H031        1.0280    1.0350   -2.4430 hc        1 BLI      0.108500
     43 H032        1.1870    2.3110   -1.4760 hc        1 BLI      0.108500
     44 H061        2.8890    0.0790   -1.6000 hc        1 BLI      0.100000
     45 H062        3.2090    1.5030   -0.9190 hc        1 BLI      0.100000
     46 H021        3.8560   -1.8810    4.8790 ha        1 BLI      0.155000
     47 H022        2.8260   -0.7710    5.3950 ha        1 BLI      0.155000
     48 H1'1       -1.5380    0.9600   -2.9170 h1        1 BLI      0.097000
     49 H1'2       -2.8790    1.0890   -2.0460 h1        1 BLI      0.097000
     50 H2'1       -2.5590   -1.0780   -3.9230 hc        1 BLI      0.092000
     51 H3'1       -4.1830   -1.4690   -2.3910 hc        1 BLI      0.095750
     52 H3'2       -4.8230   -0.0290   -2.6350 hc        1 BLI      0.095750
     53 H7'1       -4.9010   -2.2180   -4.4470 h1        1 BLI      0.083000
     54 H7'2       -6.1580   -1.5570   -3.7240 h1        1 BLI      0.083000
     55 H4'1       -2.4050    0.7830   -5.1990 hc        1 BLI      0.095750
     56 H4'2       -3.6610    1.4420   -4.4670 hc        1 BLI      0.095750
     57 H5'1       -4.3920    0.6880   -6.5130 h1        1 BLI      0.083000
     58 H5'2       -3.7450   -0.7490   -6.2750 h1        1 BLI      0.083000
     59 HN21       -7.6090   -1.8410   -7.4590 hn        1 BLI      0.182500
     60 HN22       -6.0990   -2.2550   -7.1630 hn        1 BLI      0.182500
     61 HO31       -8.1560    1.9530   -5.3370 ho        1 BLI      0.230000
     62 H1A1        6.4560   -1.0800    5.4530 ha        1 BLI      0.133000
     63 H2A1        7.8360   -0.4320    7.2620 ha        1 BLI      0.135000
     64 H3A1        6.8580    0.3230    9.2960 ha        1 BLI      0.135500
     65 H4A1        4.4920    0.4220    9.5010 ha        1 BLI      0.135500
     66 H5A1        3.1100   -0.2290    7.6850 ha        1 BLI      0.153000
@<TRIPOS>BOND
     1    1    2 1   
     2    1    6 1   
     3    1    8 1   
     4    2    3 1   
     5    2   13 1   
     6    2   35 1   
     7    3    4 1   
     8    3   36 1   
     9    3   37 1   
    10    4    5 1   
    11    4   14 1   
    12    5    6 1   
    13    5   38 1   
    14    5   39 1   
    15    6    7 1   
    16    8    9 1   
    17    8   12 1   
    18    8   40 1   
    19    9   10 1   
    20    9   11 1   
    21   11   18 1   
    22   11   41 1   
    23   12   13 1   
    24   12   42 1   
    25   12   43 1   
    26   13   44 1   
    27   13   45 1   
    28   14   15 1   
    29   14   17 1   
    30   16   29 1   
    31   16   46 1   
    32   16   47 1   
    33   18   19 1   
    34   18   48 1   
    35   18   49 1   
    36   19   20 1   
    37   19   22 1   
    38   19   50 1   
    39   20   21 1   
    40   20   51 1   
    41   20   52 1   
    42   21   24 1   
    43   21   53 1   
    44   21   54 1   
    45   22   23 1   
    46   22   55 1   
    47   22   56 1   
    48   23   24 1   
    49   23   57 1   
    50   23   58 1   
    51   24   25 1   
    52   25   26 1   
    53   25   27 1   
    54   26   59 1   
    55   26   60 1   
    56   28   61 1   
    57   29   30 1   
    58   29   34 1   
    59   30   31 1   
    60   30   62 1   
    61   31   63 1   
    62   32   33 1   
    63   32   64 1   
    64   33   65 1   
    65   34   66 1   
@<TRIPOS>SUBSTRUCTURE
     1 BLI         1 TEMP              0 ****  ****    0 ROOT
