@<TRIPOS>MOLECULE
BLI
   68    71     1     0     0
SMALL
bcc


@<TRIPOS>ATOM
      1 N1          1.2860    0.1900   -1.1790 n         1 BLI     -0.478800
      2 C1          2.5280    0.1860   -0.3890 c3        1 BLI      0.059700
      3 C2          2.2820    0.3480    1.1320 c3        1 BLI      0.206800
      4 N3          1.1800   -0.4610    1.5790 n3        1 BLI     -0.800500
      5 C4         -0.0620   -0.1470    0.9450 c3        1 BLI      0.163800
      6 C5          0.0360    0.0800   -0.5660 c         1 BLI      0.692500
      7 O11        -0.9850    0.1380   -1.2870 o         1 BLI     -0.689500
      8 C01         1.4440    0.9980   -2.3740 c3        1 BLI      0.034700
      9 C09         1.2630    0.2160   -3.6820 c         1 BLI      0.533100
     10 O09         1.7830    0.4660   -4.7560 o         1 BLI     -0.412100
     11 N10         0.2820   -0.9350   -3.6320 ny        1 BLI     -0.682800
     12 C03         2.8520    1.6450   -2.3260 c3        1 BLI     -0.082400
     13 C06         3.4350    1.2880   -0.9620 c3        1 BLI     -0.097400
     14 S1          1.4100   -1.8810    2.4360 s6        1 BLI      1.420900
     15 O2          0.3490   -2.7330    2.0750 o         1 BLI     -0.634800
     16 C02         1.2730   -1.3430    4.0540 c3        1 BLI     -0.240300
     17 O1          2.7210   -2.3110    2.1600 o         1 BLI     -0.634800
     18 C1'        -0.1790   -1.4370   -4.9560 c3        1 BLI      0.103800
     19 C2'        -1.3570   -0.6510   -5.5420 c3        1 BLI     -0.084700
     20 C3'        -1.5480   -1.0900   -6.9890 c3        1 BLI     -0.116900
     21 C7'        -2.7410   -0.3710   -7.6160 c3        1 BLI      0.171300
     22 C4'        -2.6400   -0.8820   -4.7580 c3        1 BLI     -0.116900
     23 C5'        -3.8210   -0.1810   -5.4300 c3        1 BLI      0.171300
     24 N1'        -3.9880   -0.4280   -6.8580 nh        1 BLI     -0.686600
     25 C6'        -4.8320   -1.5430   -7.1840 c2        1 BLI      0.568100
     26 N2'        -6.0660   -1.0870   -7.9380 nz        1 BLI     -0.820600
     27 N3'        -4.5890   -2.8020   -6.8770 n2        1 BLI     -0.342200
     28 O3'        -5.4540   -3.7010   -7.2300 oh        1 BLI     -0.336500
     29 C6B         1.4380   -2.4670    5.0120 ca        1 BLI     -0.116300
     30 C1B         2.7070   -3.0250    5.2250 ca        1 BLI     -0.107500
     31 C2B         2.8690   -4.0550    6.1490 ca        1 BLI     -0.120500
     32 C3B         1.7720   -4.5300    6.8690 ca        1 BLI     -0.099000
     33 C4B         0.5090   -3.9740    6.6620 ca        1 BLI     -0.120500
     34 C5B         0.3410   -2.9430    5.7390 ca        1 BLI     -0.107500
     35 H11         3.0100   -0.8240   -0.5610 h1        1 BLI      0.091700
     36 H21         3.2270    0.0340    1.6640 h1        1 BLI      0.086700
     37 H22         2.0820    1.4320    1.3690 h1        1 BLI      0.086700
     38 H41        -0.4900    0.8170    1.3570 h1        1 BLI      0.113700
     39 H42        -0.8140   -0.9760    1.1170 h1        1 BLI      0.113700
     40 H011        0.6380    1.7970   -2.4260 h1        1 BLI      0.115700
     41 H101        0.7420   -1.7030   -3.1260 hn        1 BLI      0.481300
     42 H031        3.4990    1.2630   -3.1550 hc        1 BLI      0.091200
     43 H032        2.7540    2.7530   -2.4490 hc        1 BLI      0.091200
     44 H061        4.4850    0.9140   -1.0560 hc        1 BLI      0.088700
     45 H062        3.4500    2.1840   -0.2910 hc        1 BLI      0.088700
     46 H021        0.2850   -0.8440    4.2520 h1        1 BLI      0.126700
     47 H022        2.0480   -0.5640    4.3010 h1        1 BLI      0.126700
     48 H1'1       -0.4780   -2.5170   -4.8230 hx        1 BLI      0.114700
     49 H1'2        0.6930   -1.3900   -5.6740 hx        1 BLI      0.114700
     50 H2'1       -1.1140    0.4500   -5.5340 hc        1 BLI      0.079700
     51 H3'1       -0.6350   -0.8400   -7.5920 hc        1 BLI      0.075450
     52 H3'2       -1.6950   -2.2000   -7.0330 hc        1 BLI      0.075450
     53 H7'1       -2.5040    0.7300   -7.7040 h1        1 BLI      0.085950
     54 H7'2       -2.9080   -0.7770   -8.6520 h1        1 BLI      0.085950
     55 H4'1       -2.8430   -1.9820   -4.6760 hc        1 BLI      0.075450
     56 H4'2       -2.5580   -0.4710   -3.7170 hc        1 BLI      0.075450
     57 H5'1       -4.7670   -0.4560   -4.8850 h1        1 BLI      0.085950
     58 H5'2       -3.6800    0.9380   -5.3470 h1        1 BLI      0.085950
     59 HN21       -6.6890   -1.8810   -8.1250 hn        1 BLI      0.475800
     60 HN22       -6.5660   -0.3850   -7.3790 hn        1 BLI      0.475800
     61 HO31       -5.0950   -4.5660   -6.9080 ho        1 BLI      0.510000
     62 H1A1        3.5730   -2.6560    4.6540 ha        1 BLI      0.139000
     63 H2A1        3.8660   -4.4910    6.3110 ha        1 BLI      0.148000
     64 H3A1        1.9030   -5.3420    7.6010 ha        1 BLI      0.149000
     65 H4A1       -0.3570   -4.3450    7.2310 ha        1 BLI      0.148000
     66 H5A1       -0.6570   -2.5050    5.5860 ha        1 BLI      0.139000
     67 H102       -0.5390   -0.6320   -3.0720 hn        1 BLI      0.481300
     68 H2'3       -5.7800   -0.6610   -8.8270 hn        1 BLI      0.475800
@<TRIPOS>BOND
     1    1    2 1   
     2    1    6 1   
     3    1    8 1   
     4    2    3 1   
     5    2   13 1   
     6    2   35 1   
     7    3    4 1   
     8    3   36 1   
     9    3   37 1   
    10    4    5 1   
    11    4   14 1   
    12    5    6 1   
    13    5   38 1   
    14    5   39 1   
    15    6    7 2   
    16    8    9 1   
    17    8   12 1   
    18    8   40 1   
    19    9   10 2   
    20    9   11 1   
    21   11   18 1   
    22   11   41 1   
    23   11   67 1   
    24   12   13 1   
    25   12   42 1   
    26   12   43 1   
    27   13   44 1   
    28   13   45 1   
    29   14   15 2   
    30   14   16 1   
    31   14   17 2   
    32   16   29 1   
    33   16   46 1   
    34   16   47 1   
    35   18   19 1   
    36   18   48 1   
    37   18   49 1   
    38   19   20 1   
    39   19   22 1   
    40   19   50 1   
    41   20   21 1   
    42   20   51 1   
    43   20   52 1   
    44   21   24 1   
    45   21   53 1   
    46   21   54 1   
    47   22   23 1   
    48   22   55 1   
    49   22   56 1   
    50   23   24 1   
    51   23   57 1   
    52   23   58 1   
    53   24   25 1   
    54   25   26 1   
    55   25   27 2   
    56   26   59 1   
    57   26   60 1   
    58   26   68 1   
    59   27   28 1   
    60   28   61 1   
    61   29   30 ar  
    62   29   34 ar  
    63   30   31 ar  
    64   30   62 1   
    65   31   32 ar  
    66   31   63 1   
    67   32   33 ar  
    68   32   64 1   
    69   33   34 ar  
    70   33   65 1   
    71   34   66 1   
@<TRIPOS>SUBSTRUCTURE
     1 BLI         1 TEMP              0 ****  ****    0 ROOT
