@<TRIPOS>MOLECULE
BLK
   72    67     1     0     0
SMALL
bcc


@<TRIPOS>ATOM
      1 CT1        -4.8960   -3.3530    2.1990 c3        1 BLK     -0.231000
      2 CT         -6.0370   -3.0250    1.2470 c3        1 BLK      0.115000
      3 CT2        -6.8920   -4.2620    1.0360 c3        1 BLK     -0.231000
      4 CT3        -6.8950   -1.9080    1.8460 c3        1 BLK     -0.231000
      5 O2         -5.5000   -2.5920   -0.0150 os        1 BLK     -0.295000
      6 CZ         -4.5960   -3.5320   -0.6170 c2        1 BLK      0.384000
      7 O1         -4.4190   -4.6310   -0.1000 o         1 BLK     -0.400000
      8 NZ         -3.9030   -3.1880   -1.8620 n         1 BLK     -0.320000
      9 CE         -2.7440   -3.9590   -2.2850 c3        1 BLK     -0.044000
     10 CD         -2.0170   -3.2120   -3.4490 c3        1 BLK     -0.193000
     11 CG         -0.4840   -3.4520   -3.3440 c3        1 BLK     -0.150000
     12 CB          0.2630   -2.3990   -4.1980 c3        1 BLK     -0.155000
     13 CA          1.7360   -2.3430   -3.7710 c3        1 BLK     -0.026000
     14 N           1.8170   -2.2950   -2.3690 n3        1 BLK     -0.323000
     15 C           2.3870   -1.1060   -4.3560 c1        1 BLK      0.300000
     16 O           1.7720   -0.4110   -5.1500 o         1 BLK     -0.397000
     17 O3P         3.6820   -0.7320   -3.9480 o         1 BLK     -0.918500
     18 P           4.0510    0.8150   -3.9230 p3        1 BLK      2.569000
     19 O1P         2.8260    1.6270   -4.2360 o         1 BLK     -0.918500
     20 O2P         5.1180    1.0960   -4.9560 os        1 BLK     -1.111000
     21 O5'         4.5910    1.2050   -2.4860 os        1 BLK     -0.726000
     22 C5'         3.9860    2.3020   -1.8080 c3        1 BLK      0.049000
     23 C4'         3.5890    1.8650   -0.3680 c3        1 BLK     -0.048000
     24 O4'         4.0910    2.6840    0.5070 os        1 BLK     -0.275000
     25 C3'         2.0720    1.9630   -0.1830 c3        1 BLK      0.002000
     26 O3'         1.5320    0.7300   -0.0940 oh        1 BLK     -0.362000
     27 C2'         1.8650    2.7420    1.1520 c3        1 BLK      0.000000
     28 O2'         0.8940    2.0160    2.0290 oh        1 BLK     -0.315000
     29 C1'         3.0220    2.7720    1.7000 c3        1 BLK      0.121000
     30 N9          3.1950    4.0110    2.4330 n3        1 BLK     -0.185000
     31 C8          3.6350    5.1960    1.9600 c1        1 BLK     -0.027000
     32 N7          3.7100    6.0640    3.0060 n2        1 BLK     -0.136000
     33 C5          3.3130    5.4070    4.1290 c1        1 BLK     -0.230000
     34 C4          2.9950    4.1410    3.7820 c1        1 BLK      0.064000
     35 N3          2.5610    3.2600    4.7340 n1        1 BLK     -0.193000
     36 C2          2.4500    3.6620    6.0400 c1        1 BLK      0.006000
     37 N1          2.7730    4.9440    6.3920 n1        1 BLK     -0.274000
     38 C6          3.2000    5.8130    5.4570 c1        1 BLK      0.212000
     39 N6          3.4620    7.0960    6.0480 n2        1 BLK     -0.344000
     40 H1         -4.6480   -4.2920    2.0970 hc        1 BLK      0.089444
     41 H2         -5.1860   -3.1890    3.1280 hc        1 BLK      0.089444
     42 H3         -4.1310   -2.7910    1.9940 hc        1 BLK      0.089444
     43 H4         -7.5760   -4.3090    1.7360 hc        1 BLK      0.089444
     44 H5         -7.3250   -4.2140    0.1580 hc        1 BLK      0.089444
     45 H6         -6.3270   -5.0590    1.0780 hc        1 BLK      0.089444
     46 H7         -6.4240   -1.0390    1.7460 hc        1 BLK      0.089444
     47 H8         -7.0500   -2.0890    2.8020 hc        1 BLK      0.089444
     48 H9         -7.7590   -1.8700    1.3740 hc        1 BLK      0.089444
     49 H10        -4.2280   -2.5190   -2.3960 hn        1 BLK      0.219000
     50 H11        -2.1340   -4.0630   -1.5360 h1        1 BLK      0.108000
     51 H12        -3.0330   -4.8380   -2.5930 h1        1 BLK      0.108000
     52 H13        -2.2000   -2.2600   -3.3880 hc        1 BLK      0.086000
     53 H14        -2.3430   -3.5540   -4.3100 hc        1 BLK      0.086000
     54 H15        -0.2040   -3.3730   -2.4090 hc        1 BLK      0.088500
     55 H16        -0.2710   -4.3510   -3.6740 hc        1 BLK      0.088500
     56 H17         0.2070   -2.6480   -5.1490 hc        1 BLK      0.098500
     57 H18        -0.1460   -1.5250   -4.0680 hc        1 BLK      0.098500
     58 H19         2.1940   -3.1290   -4.0920 h1        1 BLK      0.118000
     59 H20         2.6050   -1.8750   -2.1190 hn        1 BLK      0.153000
     60 H21         1.8040   -3.1510   -2.0320 hn        1 BLK      0.153000
     61 H24         3.1850    2.5860   -2.2960 h1        1 BLK      0.064500
     62 H25         4.6200    3.0470   -1.7600 h1        1 BLK      0.064500
     63 H26         3.8930    0.9550   -0.1940 h1        1 BLK      0.135000
     64 H27         1.6740    2.4520   -0.9240 h1        1 BLK      0.128000
     65 H28         0.8690    0.6550   -0.6790 ho        1 BLK      0.279000
     66 H29         1.5540    3.6350    0.9740 h1        1 BLK      0.127000
     67 H30         0.0620    2.3050    1.8590 ho        1 BLK      0.226000
     68 H31         3.1280    2.0100    2.3010 h2        1 BLK      0.155000
     69 H32         3.8040    5.4100    1.0320 DU        1 BLK      0.218000
     70 H33         2.0900    3.0500    6.7080 ha        1 BLK      0.179000
     71 H34         4.3240    7.4040    6.1130 hn        1 BLK      0.225000
     72 H35         2.7640    7.6190    6.3370 hn        1 BLK      0.225000
@<TRIPOS>BOND
     1    1    2 1   
     2    1   40 1   
     3    1   41 1   
     4    1   42 1   
     5    2    3 1   
     6    2    4 1   
     7    2    5 1   
     8    3   43 1   
     9    3   44 1   
    10    3   45 1   
    11    4   46 1   
    12    4   47 1   
    13    4   48 1   
    14    5    6 1   
    15    6    7 1   
    16    6    8 1   
    17    8    9 1   
    18    8   49 1   
    19    9   10 1   
    20    9   50 1   
    21    9   51 1   
    22   10   11 1   
    23   10   52 1   
    24   10   53 1   
    25   11   12 1   
    26   11   54 1   
    27   11   55 1   
    28   12   13 1   
    29   12   56 1   
    30   12   57 1   
    31   13   14 1   
    32   13   15 1   
    33   13   58 1   
    34   14   59 1   
    35   14   60 1   
    36   15   16 1   
    37   17   18 1   
    38   18   19 1   
    39   18   21 1   
    40   21   22 1   
    41   22   23 1   
    42   22   61 1   
    43   22   62 1   
    44   23   24 1   
    45   23   25 1   
    46   23   63 1   
    47   24   29 1   
    48   25   26 1   
    49   25   27 1   
    50   25   64 1   
    51   26   65 1   
    52   27   28 1   
    53   27   29 1   
    54   27   66 1   
    55   28   67 1   
    56   29   30 1   
    57   29   68 1   
    58   30   31 1   
    59   30   34 1   
    60   31   32 1   
    61   32   33 1   
    62   33   38 1   
    63   34   35 1   
    64   36   37 1   
    65   36   70 1   
    66   39   71 1   
    67   39   72 1   
@<TRIPOS>SUBSTRUCTURE
     1 BLK         1 TEMP              0 ****  ****    0 ROOT
