@<TRIPOS>MOLECULE
BLK
   75    77     1     0     0
SMALL
bcc


@<TRIPOS>ATOM
      1 CT1        -1.4830   -3.5390   -2.2990 c3        1 BLK     -0.127100
      2 CT         -0.1120   -2.9340   -2.0870 c3        1 BLK      0.195800
      3 CT2         0.0150   -2.2330   -0.7500 c3        1 BLK     -0.127100
      4 CT3         0.2930   -2.0280   -3.2410 c3        1 BLK     -0.127100
      5 O2          0.9190   -4.0050   -2.1810 os        1 BLK     -0.418900
      6 CZ          0.8830   -5.0280   -1.3190 c         1 BLK      0.631100
      7 O1          0.1110   -5.2010   -0.3840 o         1 BLK     -0.454000
      8 NZ          1.9620   -6.0120   -1.6240 n4        1 BLK     -0.633800
      9 CE          3.1020   -5.8710   -0.6740 c3        1 BLK      0.126800
     10 CD          4.1890   -6.9170   -0.8850 c3        1 BLK     -0.114400
     11 CG          3.9060   -8.2090   -0.1430 c3        1 BLK     -0.087400
     12 CB          5.0740   -9.1780   -0.2570 c3        1 BLK     -0.093400
     13 CA          4.7420  -10.3680   -1.1680 c3        1 BLK      0.055500
     14 N           5.9640  -11.1910   -1.4640 n4        1 BLK     -0.837600
     15 C           4.1630   -9.8720   -2.4900 c         1 BLK      0.649100
     16 O           4.7690   -9.1720   -3.3100 o         1 BLK     -0.545000
     17 O3P         2.9260  -10.2230   -2.7610 os        1 BLK     -0.492500
     18 P           2.2260   -9.2540   -4.0140 p5        1 BLK      1.516800
     19 O1P         2.3130   -7.9440   -3.3400 o         1 BLK     -0.833000
     20 O2P         2.7080   -9.7580   -5.3000 o         1 BLK     -0.833000
     21 O5'         0.7180   -9.7950   -3.7770 os        1 BLK     -0.575200
     22 C5'         0.2050  -10.7860   -4.6230 c3        1 BLK      0.171400
     23 C4'        -0.9470  -10.2120   -5.4550 c3        1 BLK      0.104100
     24 O4'        -0.4240   -9.4680   -6.5730 os        1 BLK     -0.410600
     25 C3'        -1.8790  -11.3080   -5.9970 c3        1 BLK      0.087100
     26 O3'        -3.1740  -11.0280   -5.5030 oh        1 BLK     -0.584800
     27 C2'        -1.8540  -11.1710   -7.5350 c3        1 BLK      0.084100
     28 O2'        -3.1160  -10.8590   -8.0610 oh        1 BLK     -0.562800
     29 C1'        -0.8420  -10.0120   -7.8190 c3        1 BLK      0.220800
     30 N9          0.3180  -10.4200   -8.6030 na        1 BLK     -0.277000
     31 C8          1.6870  -10.4350   -8.2550 cc        1 BLK      0.525700
     32 N7          2.5050  -10.7600   -9.2800 nd        1 BLK     -0.607100
     33 C5          1.6610  -10.9550  -10.3730 ca        1 BLK     -0.125200
     34 C4          0.2500  -10.7360   -9.9710 ca        1 BLK      0.442800
     35 N3         -0.7900  -10.8460  -10.8300 nb        1 BLK     -0.611000
     36 C2         -0.4270  -11.1760  -12.0990 ca        1 BLK      0.665900
     37 N1          0.8210  -11.4020  -12.5970 nb        1 BLK     -0.677000
     38 C6          1.8550  -11.2860  -11.7250 ca        1 BLK      0.502200
     39 N6          3.2310  -11.5130  -12.2040 n4        1 BLK     -0.813300
     40 H1         -1.5070   -4.1340   -3.2430 hc        1 BLK      0.070256
     41 H2         -2.2350   -2.7150   -2.3770 hc        1 BLK      0.070256
     42 H3         -1.7660   -4.1980   -1.4420 hc        1 BLK      0.070256
     43 H4          1.0640   -1.8880   -0.5860 hc        1 BLK      0.070256
     44 H5         -0.2840   -2.9120    0.0860 hc        1 BLK      0.070256
     45 H6         -0.6600   -1.3420   -0.7430 hc        1 BLK      0.070256
     46 H7          0.2510   -2.5830   -4.2080 hc        1 BLK      0.070256
     47 H8         -0.4190   -1.1680   -3.2800 hc        1 BLK      0.070256
     48 H9          1.3280   -1.6400   -3.0910 hc        1 BLK      0.070256
     49 H10         2.2950   -5.9110   -2.6030 hn        1 BLK      0.503800
     50 H11         3.5380   -4.8410   -0.8270 hx        1 BLK      0.102700
     51 H12         2.6860   -5.9350    0.3730 hx        1 BLK      0.102700
     52 H13         4.3230   -7.1380   -1.9830 hc        1 BLK      0.096200
     53 H14         5.1490   -6.4680   -0.5090 hc        1 BLK      0.096200
     54 H15         2.9660   -8.6760   -0.5430 hc        1 BLK      0.073700
     55 H16         3.7300   -7.9880    0.9450 hc        1 BLK      0.073700
     56 H17         5.9740   -8.6340   -0.6550 hc        1 BLK      0.076700
     57 H18         5.3310   -9.5690    0.7630 hc        1 BLK      0.076700
     58 H19         3.9840  -11.0420   -0.6610 hx        1 BLK      0.143700
     59 H20         5.6890  -12.0620   -1.9310 hn        1 BLK      0.469800
     60 H21         6.5870  -10.6600   -2.0880 hn        1 BLK      0.469800
     61 H24         1.0140  -11.1910   -5.2910 h1        1 BLK      0.060200
     62 H25        -0.2090  -11.6030   -3.9650 h1        1 BLK      0.060200
     63 H26        -1.5220   -9.4590   -4.8430 h1        1 BLK      0.119700
     64 H27        -1.5500  -12.3330   -5.6820 h1        1 BLK      0.071700
     65 H28        -3.7520  -11.7500   -5.7880 ho        1 BLK      0.432000
     66 H29        -1.5640  -12.1320   -8.0390 h1        1 BLK      0.107700
     67 H30        -3.4970  -10.1370   -7.5360 ho        1 BLK      0.428000
     68 H31        -1.3480   -9.1700   -8.3870 h2        1 BLK      0.115700
     69 H32         2.0380  -10.1900   -7.2220 h5        1 BLK      0.170800
     70 H33        -1.2610  -11.2750  -12.8350 h5        1 BLK      0.101100
     71 H34         3.5780  -12.3910  -11.7990 hn        1 BLK      0.476467
     72 H35         3.8200  -10.7360  -11.8790 hn        1 BLK      0.476467
     73 HZ3         1.5730   -6.9720   -1.5730 hn        1 BLK      0.503800
     74 HN3         6.4590  -11.4090   -0.5940 hn        1 BLK      0.469800
     75 H63         3.2620  -11.5710  -13.2300 hn        1 BLK      0.476467
@<TRIPOS>BOND
     1    1    2 1   
     2    1   40 1   
     3    1   41 1   
     4    1   42 1   
     5    2    3 1   
     6    2    4 1   
     7    2    5 1   
     8    3   43 1   
     9    3   44 1   
    10    3   45 1   
    11    4   46 1   
    12    4   47 1   
    13    4   48 1   
    14    5    6 1   
    15    6    7 2   
    16    6    8 1   
    17    8    9 1   
    18    8   49 1   
    19    8   73 1   
    20    9   10 1   
    21    9   50 1   
    22    9   51 1   
    23   10   11 1   
    24   10   52 1   
    25   10   53 1   
    26   11   12 1   
    27   11   54 1   
    28   11   55 1   
    29   12   13 1   
    30   12   56 1   
    31   12   57 1   
    32   13   14 1   
    33   13   15 1   
    34   13   58 1   
    35   14   59 1   
    36   14   60 1   
    37   14   74 1   
    38   15   16 2   
    39   15   17 1   
    40   17   18 1   
    41   18   19 1   
    42   18   20 1   
    43   18   21 1   
    44   21   22 1   
    45   22   23 1   
    46   22   61 1   
    47   22   62 1   
    48   23   24 1   
    49   23   25 1   
    50   23   63 1   
    51   24   29 1   
    52   25   26 1   
    53   25   27 1   
    54   25   64 1   
    55   26   65 1   
    56   27   28 1   
    57   27   29 1   
    58   27   66 1   
    59   28   67 1   
    60   29   30 1   
    61   29   68 1   
    62   30   31 1   
    63   30   34 1   
    64   31   32 2   
    65   31   69 1   
    66   32   33 1   
    67   33   34 ar  
    68   33   38 ar  
    69   34   35 ar  
    70   35   36 ar  
    71   36   37 ar  
    72   36   70 1   
    73   37   38 ar  
    74   38   39 1   
    75   39   71 1   
    76   39   72 1   
    77   39   75 1   
@<TRIPOS>SUBSTRUCTURE
     1 BLK         1 TEMP              0 ****  ****    0 ROOT
