@<TRIPOS>MOLECULE
BLK
   74    76     1     0     0
SMALL
bcc


@<TRIPOS>ATOM
      1 CT1        -0.0700   -0.4320    0.0670 c3        1 BLK     -0.131100
      2 CT          1.3170   -0.1930    0.6190 c3        1 BLK      0.203800
      3 CT2         1.3190    0.0860    2.1060 c3        1 BLK     -0.131100
      4 CT3         2.0740    0.8660   -0.1660 c3        1 BLK     -0.131100
      5 O2          2.1630   -1.4040    0.3510 os        1 BLK     -0.422900
      6 CZ          1.8190   -2.5730    0.8910 c         1 BLK      0.633100
      7 O1          0.8660   -2.8560    1.6000 o         1 BLK     -0.429000
      8 NZ          2.8330   -3.6230    0.5080 ny        1 BLK     -0.649800
      9 CE          2.1780   -4.7800   -0.1800 c3        1 BLK      0.108800
     10 CD          3.1550   -5.9130   -0.4600 c3        1 BLK     -0.110400
     11 CG          2.4270   -7.0430   -1.1650 c3        1 BLK     -0.076400
     12 CB          3.3920   -8.1670   -1.4690 c3        1 BLK     -0.123400
     13 CA          2.7340   -9.2760   -2.3070 c3        1 BLK      0.100500
     14 N           1.7060  -10.0550   -1.6580 n8        1 BLK     -0.920800
     15 C           3.8590  -10.2000   -2.7920 c         1 BLK      0.728100
     16 O           4.9580  -10.3250   -2.2650 o         1 BLK     -0.473000
     17 O3P         3.6550  -10.8050   -3.9830 os        1 BLK     -0.618500
     18 P           2.9230  -12.1870   -4.3870 p5        1 BLK      1.702500
     19 O1P         3.6460  -13.0310   -5.3100 o         1 BLK     -0.771300
     20 O2P         2.4640  -12.6950   -2.9620 oh        1 BLK     -0.764400
     21 O5'         1.5230  -11.6400   -4.9360 os        1 BLK     -0.604200
     22 C5'         1.2330  -11.7640   -6.3120 c3        1 BLK      0.154400
     23 C4'         0.0420  -12.7120   -6.4950 c3        1 BLK      0.107100
     24 O4'        -0.8230  -12.1700   -7.5030 os        1 BLK     -0.410600
     25 C3'         0.4520  -14.1360   -6.9200 c3        1 BLK      0.120100
     26 O3'        -0.2250  -15.0290   -6.0600 oh        1 BLK     -0.594800
     27 C2'         0.0470  -14.2480   -8.4060 c3        1 BLK      0.088100
     28 O2'        -0.7520  -15.3950   -8.5750 oh        1 BLK     -0.595800
     29 C1'        -0.8010  -12.9660   -8.6950 c3        1 BLK      0.228800
     30 N9         -0.3040  -12.1730   -9.7960 na        1 BLK     -0.295000
     31 C8         -0.1390  -10.7670   -9.8560 cc        1 BLK      0.416700
     32 N7          0.2390  -10.3240  -11.0630 nd        1 BLK     -0.545100
     33 C5          0.3250  -11.4720  -11.8650 ca        1 BLK     -0.231200
     34 C4         -0.0220  -12.6530  -11.0850 ca        1 BLK      0.456800
     35 N3         -0.0420  -13.9240  -11.5890 nb        1 BLK     -0.768000
     36 C2          0.2950  -13.9650  -12.9010 ca        1 BLK      0.698900
     37 N1          0.6390  -12.9620  -13.7480 nb        1 BLK     -0.791000
     38 C6          0.6660  -11.6790  -13.2460 ca        1 BLK      0.769200
     39 N6          1.0220  -10.6220  -14.0350 nv        1 BLK     -0.955500
     40 H1         -0.6010   -1.2260    0.6470 hc        1 BLK      0.074033
     41 H2         -0.6590    0.5160    0.1460 hc        1 BLK      0.074033
     42 H3         -0.0210   -0.7300   -1.0080 hc        1 BLK      0.074033
     43 H4          2.3640    0.1590    2.4920 hc        1 BLK      0.074033
     44 H5          0.7740   -0.7140    2.6640 hc        1 BLK      0.074033
     45 H6          0.8030    1.0610    2.2910 hc        1 BLK      0.074033
     46 H7          2.1140    0.6010   -1.2490 hc        1 BLK      0.074033
     47 H8          3.1150    0.9750    0.2210 hc        1 BLK      0.074033
     48 H9          1.5370    1.8400   -0.0480 hc        1 BLK      0.074033
     49 H10         3.2920   -3.9520    1.3660 hn        1 BLK      0.469800
     50 H11         1.7360   -4.3960   -1.1450 hx        1 BLK      0.116200
     51 H12         1.3380   -5.1380    0.4850 hx        1 BLK      0.116200
     52 H13         3.5970   -6.2980    0.4980 hc        1 BLK      0.072200
     53 H14         3.9990   -5.5540   -1.1080 hc        1 BLK      0.072200
     54 H15         1.5900   -7.4140   -0.5160 hc        1 BLK      0.055200
     55 H16         1.9720   -6.6650   -2.1190 hc        1 BLK      0.055200
     56 H17         3.7970   -8.6030   -0.5170 hc        1 BLK      0.073200
     57 H18         4.2700   -7.7700   -2.0460 hc        1 BLK      0.073200
     58 H19         2.2710   -8.8030   -3.2270 h1        1 BLK      0.093700
     59 H20         2.0460  -10.5020   -0.8300 hn        1 BLK      0.370800
     60 H21         0.9100   -9.4900   -1.4430 hn        1 BLK      0.370800
     61 H24         0.9420  -10.7410   -6.6830 h1        1 BLK      0.071200
     62 H25         2.1460  -12.1290   -6.8590 h1        1 BLK      0.071200
     63 H26        -0.5800  -12.7390   -5.5560 h1        1 BLK      0.110700
     64 H27         1.5600  -14.3060   -6.8140 h1        1 BLK      0.081700
     65 H28        -0.3550  -15.8630   -6.5320 ho        1 BLK      0.439000
     66 H29         0.9650  -14.3020   -9.0510 h1        1 BLK      0.085700
     67 H30        -0.7760  -15.5870   -9.5240 ho        1 BLK      0.444000
     68 H31        -1.8800  -13.2430   -8.9010 h2        1 BLK      0.106700
     69 H32        -0.3220  -10.1500   -8.9670 h5        1 BLK      0.078800
     70 H33         0.2910  -14.9780  -13.3620 h5        1 BLK      0.056100
     71 H34         0.9830   -9.7080  -13.6590 hn        1 BLK      0.452300
     72 H35         1.2220  -10.7520  -14.9960 hn        1 BLK      0.452300
     73 HZ3         3.5450   -3.2050   -0.1060 hn        1 BLK      0.469800
     74 HN3         1.5640  -12.5140   -2.6910 ho        1 BLK      0.504000
@<TRIPOS>BOND
     1    1    2 1   
     2    1   40 1   
     3    1   41 1   
     4    1   42 1   
     5    2    3 1   
     6    2    4 1   
     7    2    5 1   
     8    3   43 1   
     9    3   44 1   
    10    3   45 1   
    11    4   46 1   
    12    4   47 1   
    13    4   48 1   
    14    5    6 1   
    15    6    7 2   
    16    6    8 1   
    17    8    9 1   
    18    8   49 1   
    19    8   73 1   
    20    9   10 1   
    21    9   50 1   
    22    9   51 1   
    23   10   11 1   
    24   10   52 1   
    25   10   53 1   
    26   11   12 1   
    27   11   54 1   
    28   11   55 1   
    29   12   13 1   
    30   12   56 1   
    31   12   57 1   
    32   13   14 1   
    33   13   15 1   
    34   13   58 1   
    35   14   59 1   
    36   14   60 1   
    37   15   16 2   
    38   15   17 1   
    39   17   18 1   
    40   18   19 2   
    41   18   20 1   
    42   18   21 1   
    43   20   74 1   
    44   21   22 1   
    45   22   23 1   
    46   22   61 1   
    47   22   62 1   
    48   23   24 1   
    49   23   25 1   
    50   23   63 1   
    51   24   29 1   
    52   25   26 1   
    53   25   27 1   
    54   25   64 1   
    55   26   65 1   
    56   27   28 1   
    57   27   29 1   
    58   27   66 1   
    59   28   67 1   
    60   29   30 1   
    61   29   68 1   
    62   30   31 1   
    63   30   34 1   
    64   31   32 2   
    65   31   69 1   
    66   32   33 1   
    67   33   34 ar  
    68   33   38 ar  
    69   34   35 ar  
    70   35   36 ar  
    71   36   37 ar  
    72   36   70 1   
    73   37   38 ar  
    74   38   39 1   
    75   39   71 1   
    76   39   72 1   
@<TRIPOS>SUBSTRUCTURE
     1 BLK         1 TEMP              0 ****  ****    0 ROOT
