@<TRIPOS>MOLECULE
BLK
   72    74     1     0     0
SMALL
bcc


@<TRIPOS>ATOM
      1 CT1         8.8490    2.4980   -0.4460 c3        1 BLK     -0.113100
      2 CT          8.3440    2.9920    0.9000 c3        1 BLK      0.186800
      3 CT2         9.3360    2.6950    2.0120 c3        1 BLK     -0.113100
      4 CT3         8.0520    4.4920    0.8370 c3        1 BLK     -0.113100
      5 O2          7.0450    2.4250    1.1990 os        1 BLK     -0.455900
      6 CZ          6.9260    1.0660    1.3950 c         1 BLK      0.730100
      7 O1          7.8920    0.3100    1.1940 o         1 BLK     -0.592000
      8 NZ          5.6750    0.7280    1.8940 n         1 BLK     -0.509900
      9 CE          5.1880   -0.6210    1.7210 c3        1 BLK      0.071000
     10 CD          4.2380   -0.8200    0.5410 c3        1 BLK     -0.114400
     11 CG          3.7070   -2.2390    0.5360 c3        1 BLK     -0.071400
     12 CB          2.7240   -2.4350   -0.5970 c3        1 BLK     -0.075400
     13 CA          2.0770   -3.8260   -0.5530 c3        1 BLK      0.114500
     14 N           3.0170   -4.9070   -0.7820 n3        1 BLK     -0.895800
     15 C           0.8960   -3.8290   -1.5150 c         1 BLK      0.632100
     16 O           0.6950   -4.6260   -2.4470 o         1 BLK     -0.598000
     17 O3P        -0.0430   -2.9070   -1.3460 os        1 BLK     -0.533500
     18 P          -1.3030   -2.9830   -2.4980 p5        1 BLK      1.435800
     19 O1P        -2.1570   -4.1040   -2.0820 o         1 BLK     -0.791000
     20 O2P        -0.7880   -2.5660   -3.8030 o         1 BLK     -0.791000
     21 O5'        -2.0190   -1.6300   -1.8510 os        1 BLK     -0.561200
     22 C5'        -2.6430   -1.7730   -0.6200 c3        1 BLK      0.171400
     23 C4'        -1.8850   -1.0140    0.4780 c3        1 BLK      0.063100
     24 O4'        -1.6090    0.3450    0.0900 os        1 BLK     -0.382600
     25 C3'        -2.7280   -0.9410    1.7690 c3        1 BLK      0.125100
     26 O3'        -1.9560   -1.1570    2.9260 oh        1 BLK     -0.578800
     27 C2'        -3.3730    0.4650    1.7260 c3        1 BLK      0.073100
     28 O2'        -3.1050    1.1230    2.9460 oh        1 BLK     -0.593800
     29 C1'        -2.6350    1.2100    0.5600 c3        1 BLK      0.219800
     30 N9         -3.5100    1.6150   -0.5190 na        1 BLK     -0.288000
     31 C8         -3.4990    1.2030   -1.8760 cc        1 BLK      0.459700
     32 N7         -4.4050    1.8460   -2.6290 nd        1 BLK     -0.571100
     33 C5         -5.0580    2.7290   -1.7540 ca        1 BLK     -0.209200
     34 C4         -4.5040    2.5960   -0.4110 ca        1 BLK      0.429800
     35 N3         -4.9460    3.3140    0.6680 nb        1 BLK     -0.749000
     36 C2         -5.9530    4.1580    0.3500 ca        1 BLK      0.666900
     37 N1         -6.5660    4.3860   -0.8440 nb        1 BLK     -0.800000
     38 C6         -6.1140    3.6790   -1.9330 ca        1 BLK      0.735200
     39 N6         -6.6280    3.9100   -3.1930 nh        1 BLK     -0.947500
     40 H1          9.7590    3.0750   -0.7350 hc        1 BLK      0.049922
     41 H2          9.1060    1.4120   -0.3910 hc        1 BLK      0.049922
     42 H3          8.0630    2.6420   -1.2250 hc        1 BLK      0.049922
     43 H4         10.2690    3.2840    1.8450 hc        1 BLK      0.049922
     44 H5          8.8990    2.9770    3.0000 hc        1 BLK      0.049922
     45 H6          9.5900    1.6070    2.0270 hc        1 BLK      0.049922
     46 H7          7.2910    4.7020    0.0490 hc        1 BLK      0.049922
     47 H8          7.6580    4.8480    1.8180 hc        1 BLK      0.049922
     48 H9          8.9940    5.0360    0.5970 hc        1 BLK      0.049922
     49 H10         4.9840    1.4460    1.8310 hn        1 BLK      0.307500
     50 H11         6.0690   -1.3160    1.6120 h1        1 BLK      0.068200
     51 H12         4.6460   -0.8860    2.6750 h1        1 BLK      0.068200
     52 H13         3.3800   -0.1000    0.6070 hc        1 BLK      0.048200
     53 H14         4.7730   -0.6150   -0.4230 hc        1 BLK      0.048200
     54 H15         4.5590   -2.9610    0.4350 hc        1 BLK      0.047200
     55 H16         3.2010   -2.4560    1.5140 hc        1 BLK      0.047200
     56 H17         1.8970   -1.6770   -0.5250 hc        1 BLK      0.063700
     57 H18         3.2370   -2.2800   -1.5810 hc        1 BLK      0.063700
     58 H19         1.6400   -3.9830    0.4800 h1        1 BLK      0.079700
     59 H20         2.5130   -5.7690   -0.8870 hn        1 BLK      0.353300
     60 H21         3.5300   -4.7430   -1.6280 hn        1 BLK      0.353300
     61 H24        -3.6810   -1.3370   -0.7040 h1        1 BLK      0.043200
     62 H25        -2.7140   -2.8600   -0.3310 h1        1 BLK      0.043200
     63 H26        -0.8690   -1.4640    0.6440 h1        1 BLK      0.112700
     64 H27        -3.5100   -1.7470    1.7950 h1        1 BLK      0.096700
     65 H28        -1.3760   -0.3920    3.0340 ho        1 BLK      0.412000
     66 H29        -4.4780    0.3920    1.5530 h1        1 BLK      0.070700
     67 H30        -3.6000    1.9530    2.9230 ho        1 BLK      0.421000
     68 H31        -2.1100    2.1350    0.9490 h2        1 BLK      0.089700
     69 H32        -2.7970    0.4090   -2.2140 h5        1 BLK      0.144800
     70 H33        -6.3510    4.7620    1.1920 h5        1 BLK      0.039100
     71 H34        -7.4780    4.4110   -3.2790 hn        1 BLK      0.432800
     72 H35        -6.4090    3.2430   -3.8940 hn        1 BLK      0.432800
@<TRIPOS>BOND
     1    1    2 1   
     2    1   40 1   
     3    1   41 1   
     4    1   42 1   
     5    2    3 1   
     6    2    4 1   
     7    2    5 1   
     8    3   43 1   
     9    3   44 1   
    10    3   45 1   
    11    4   46 1   
    12    4   47 1   
    13    4   48 1   
    14    5    6 1   
    15    6    7 2   
    16    6    8 1   
    17    8    9 1   
    18    8   49 1   
    19    9   10 1   
    20    9   50 1   
    21    9   51 1   
    22   10   11 1   
    23   10   52 1   
    24   10   53 1   
    25   11   12 1   
    26   11   54 1   
    27   11   55 1   
    28   12   13 1   
    29   12   56 1   
    30   12   57 1   
    31   13   14 1   
    32   13   15 1   
    33   13   58 1   
    34   14   59 1   
    35   14   60 1   
    36   15   16 2   
    37   15   17 1   
    38   17   18 1   
    39   18   19 1   
    40   18   20 1   
    41   18   21 1   
    42   21   22 1   
    43   22   23 1   
    44   22   61 1   
    45   22   62 1   
    46   23   24 1   
    47   23   25 1   
    48   23   63 1   
    49   24   29 1   
    50   25   26 1   
    51   25   27 1   
    52   25   64 1   
    53   26   65 1   
    54   27   28 1   
    55   27   29 1   
    56   27   66 1   
    57   28   67 1   
    58   29   30 1   
    59   29   68 1   
    60   30   31 1   
    61   30   34 1   
    62   31   32 2   
    63   31   69 1   
    64   32   33 1   
    65   33   34 ar  
    66   33   38 ar  
    67   34   35 ar  
    68   35   36 ar  
    69   36   37 ar  
    70   36   70 1   
    71   37   38 ar  
    72   38   39 1   
    73   39   71 1   
    74   39   72 1   
@<TRIPOS>SUBSTRUCTURE
     1 BLK         1 TEMP              0 ****  ****    0 ROOT
