@<TRIPOS>MOLECULE
BLK
   74    76     1     0     0
SMALL
bcc


@<TRIPOS>ATOM
      1 CT1        -0.0450   -0.4320    0.0290 c3        1 BLK     -0.131100
      2 CT          1.3480   -0.1800    0.5590 c3        1 BLK      0.203800
      3 CT2         1.3690    0.1170    2.0420 c3        1 BLK     -0.131100
      4 CT3         2.0900    0.8720   -0.2490 c3        1 BLK     -0.131100
      5 O2          2.1960   -1.3910    0.2940 os        1 BLK     -0.422900
      6 CZ          1.8650   -2.5550    0.8530 c         1 BLK      0.633100
      7 O1          0.9220   -2.8330    1.5790 o         1 BLK     -0.429000
      8 NZ          2.8780   -3.6050    0.4690 n4        1 BLK     -0.649800
      9 CE          2.2180   -4.7690   -0.2030 c3        1 BLK      0.108800
     10 CD          3.1950   -5.9020   -0.4850 c3        1 BLK     -0.110400
     11 CG          2.4630   -7.0390   -1.1760 c3        1 BLK     -0.076400
     12 CB          3.4280   -8.1620   -1.4830 c3        1 BLK     -0.123400
     13 CA          2.7640   -9.2770   -2.3070 c3        1 BLK      0.100500
     14 N           1.7470  -10.0560   -1.6420 n3        1 BLK     -0.920800
     15 C           3.8860  -10.2000   -2.8010 c         1 BLK      0.728100
     16 O           4.9910  -10.3200   -2.2850 o         1 BLK     -0.473000
     17 O3P         3.6720  -10.8090   -3.9880 os        1 BLK     -0.618500
     18 P           2.9370  -12.1920   -4.3810 p5        1 BLK      1.702500
     19 O1P         3.6490  -13.0370   -5.3120 o         1 BLK     -0.771300
     20 O2P         2.4960  -12.6990   -2.9500 oh        1 BLK     -0.764400
     21 O5'         1.5300  -11.6470   -4.9120 os        1 BLK     -0.604200
     22 C5'         1.2230  -11.7720   -6.2850 c3        1 BLK      0.154400
     23 C4'         0.0310  -12.7220   -6.4530 c3        1 BLK      0.107100
     24 O4'        -0.8480  -12.1810   -7.4490 os        1 BLK     -0.410600
     25 C3'         0.4380  -14.1450   -6.8850 c3        1 BLK      0.120100
     26 O3'        -0.2280  -15.0400   -6.0180 oh        1 BLK     -0.594800
     27 C2'         0.0160  -14.2550   -8.3660 c3        1 BLK      0.088100
     28 O2'        -0.7820  -15.4040   -8.5270 oh        1 BLK     -0.595800
     29 C1'        -0.8380  -12.9750   -8.6430 c3        1 BLK      0.228800
     30 N9         -0.3560  -12.1790   -9.7490 na        1 BLK     -0.295000
     31 C8         -0.1950  -10.7730   -9.8080 cc        1 BLK      0.416700
     32 N7          0.1680  -10.3270  -11.0180 nd        1 BLK     -0.545100
     33 C5          0.2460  -11.4730  -11.8240 ca        1 BLK     -0.231200
     34 C4         -0.0880  -12.6570  -11.0410 ca        1 BLK      0.456800
     35 N3         -0.1120  -13.9270  -11.5470 nb        1 BLK     -0.768000
     36 C2          0.2100  -13.9650  -12.8630 ca        1 BLK      0.698900
     37 N1          0.5420  -12.9590  -13.7130 nb        1 BLK     -0.791000
     38 C6          0.5720  -11.6780  -13.2080 ca        1 BLK      0.769200
     39 N6          0.9170  -10.6180  -14.0000 nh        1 BLK     -0.955500
     40 H1         -0.6370    0.5140    0.1040 hc        1 BLK      0.074033
     41 H2         -0.0100   -0.7440   -1.0430 hc        1 BLK      0.074033
     42 H3         -0.5640   -1.2220    0.6260 hc        1 BLK      0.074033
     43 H4          0.8510    1.0920    2.2220 hc        1 BLK      0.074033
     44 H5          0.8360   -0.6780    2.6180 hc        1 BLK      0.074033
     45 H6          2.4190    0.2000    2.4130 hc        1 BLK      0.074033
     46 H7          2.1160    0.5940   -1.3300 hc        1 BLK      0.074033
     47 H8          1.5500    1.8450   -0.1360 hc        1 BLK      0.074033
     48 H9          3.1360    0.9900    0.1210 hc        1 BLK      0.074033
     49 H10         3.5820   -3.1910   -0.1560 hn        1 BLK      0.469800
     50 H11         1.3870   -5.1250    0.4740 hx        1 BLK      0.116200
     51 H12         1.7650   -4.3940   -1.1660 hx        1 BLK      0.116200
     52 H13         3.6490   -6.2790    0.4700 hc        1 BLK      0.072200
     53 H14         4.0320   -5.5450   -1.1450 hc        1 BLK      0.072200
     54 H15         1.9960   -6.6670   -2.1270 hc        1 BLK      0.055200
     55 H16         1.6350   -7.4080   -0.5150 hc        1 BLK      0.055200
     56 H17         3.8450   -8.5900   -0.5330 hc        1 BLK      0.073200
     57 H18         4.2980   -7.7650   -2.0720 hc        1 BLK      0.073200
     58 H19         2.2880   -8.8100   -3.2240 h1        1 BLK      0.093700
     59 H20         2.0990  -10.4980   -0.8150 hn        1 BLK      0.370800
     60 H21         1.6000  -12.5180   -2.6660 ho        1 BLK      0.504000
     61 H24         0.9250  -10.7490   -6.6520 h1        1 BLK      0.071200
     62 H25         2.1300  -12.1360   -6.8430 h1        1 BLK      0.071200
     63 H26        -0.5790  -12.7510   -5.5060 h1        1 BLK      0.110700
     64 H27         1.5470  -14.3130   -6.7910 h1        1 BLK      0.081700
     65 H28        -0.3620  -15.8740   -6.4900 ho        1 BLK      0.439000
     66 H29         0.9260  -14.3060   -9.0220 h1        1 BLK      0.085700
     67 H30        -0.8170  -15.5950   -9.4760 ho        1 BLK      0.444000
     68 H31        -1.9190  -13.2540   -8.8370 h2        1 BLK      0.106700
     69 H32        -0.3690  -10.1580   -8.9160 h5        1 BLK      0.078800
     70 H33         0.2030  -14.9770  -13.3250 h5        1 BLK      0.056100
     71 H34         0.8790   -9.7050  -13.6220 hn        1 BLK      0.452300
     72 H35         1.1060  -10.7460  -14.9630 hn        1 BLK      0.452300
     73 HZ3         3.3450   -3.9260    1.3250 hn        1 BLK      0.469800
     74 HN3         0.9520   -9.4930   -1.4200 hn        1 BLK      0.370800
@<TRIPOS>BOND
     1    1    2 1   
     2    1   40 1   
     3    1   41 1   
     4    1   42 1   
     5    2    3 1   
     6    2    4 1   
     7    2    5 1   
     8    3   43 1   
     9    3   44 1   
    10    3   45 1   
    11    4   46 1   
    12    4   47 1   
    13    4   48 1   
    14    5    6 1   
    15    6    7 2   
    16    6    8 1   
    17    8    9 1   
    18    8   49 1   
    19    8   73 1   
    20    9   10 1   
    21    9   50 1   
    22    9   51 1   
    23   10   11 1   
    24   10   52 1   
    25   10   53 1   
    26   11   12 1   
    27   11   54 1   
    28   11   55 1   
    29   12   13 1   
    30   12   56 1   
    31   12   57 1   
    32   13   14 1   
    33   13   15 1   
    34   13   58 1   
    35   14   59 1   
    36   14   74 1   
    37   15   16 2   
    38   15   17 1   
    39   17   18 1   
    40   18   19 2   
    41   18   20 1   
    42   18   21 1   
    43   20   60 1   
    44   21   22 1   
    45   22   23 1   
    46   22   61 1   
    47   22   62 1   
    48   23   24 1   
    49   23   25 1   
    50   23   63 1   
    51   24   29 1   
    52   25   26 1   
    53   25   27 1   
    54   25   64 1   
    55   26   65 1   
    56   27   28 1   
    57   27   29 1   
    58   27   66 1   
    59   28   67 1   
    60   29   30 1   
    61   29   68 1   
    62   30   31 1   
    63   30   34 1   
    64   31   32 2   
    65   31   69 1   
    66   32   33 1   
    67   33   34 ar  
    68   33   38 ar  
    69   34   35 ar  
    70   35   36 ar  
    71   36   37 ar  
    72   36   70 1   
    73   37   38 ar  
    74   38   39 1   
    75   39   71 1   
    76   39   72 1   
@<TRIPOS>SUBSTRUCTURE
     1 BLK         1 TEMP              0 ****  ****    0 ROOT
