@<TRIPOS>MOLECULE
BLN
   61    62     1     0     0
SMALL
bcc


@<TRIPOS>ATOM
      1 C1          0.1090    1.0640   -1.1410 c         1 BLN      0.643100
      2 C2          0.6710    2.0230    1.0000 c3        1 BLN      0.030000
      3 C3          0.0790    2.0720    2.4160 c3        1 BLN      0.114400
      4 C5         -0.6160   -0.1660    2.3340 c3        1 BLN      0.114400
      5 C6         -0.0980   -0.3530    0.8900 c3        1 BLN      0.030000
      6 O1          0.3230    2.0950   -1.8080 o         1 BLN     -0.594100
      7 O2          0.1530    0.7950    3.0310 os        1 BLN     -0.362600
      8 N1          0.1260    0.9120    0.2020 n         1 BLN     -0.368800
      9 N          -0.2780   -0.1400   -2.0390 n4        1 BLN     -0.674800
     10 CA          0.0360    0.1400   -3.4850 c3        1 BLN      0.076500
     11 CB         -0.1970   -1.1030   -4.3590 c3        1 BLN     -0.118400
     12 CG          0.2620   -0.8790   -5.7960 c3        1 BLN     -0.061700
     13 CD1         1.7620   -0.7160   -5.8980 c3        1 BLN     -0.111600
     14 CD2        -0.1950   -2.0560   -6.6410 c3        1 BLN     -0.111600
     15 C          -0.8730    1.2780   -3.9860 c         1 BLN      0.539100
     16 O          -2.0850    1.2830   -3.8220 o         1 BLN     -0.389100
     17 CB'        -0.5120    4.6680   -5.7850 c3        1 BLN      0.115400
     18 N'         -0.2040    2.4170   -4.6620 n4        1 BLN     -0.661800
     19 CD          1.4560    5.5130   -4.7020 c3        1 BLN      0.159700
     20 C1'         2.3450    4.3630   -5.0470 ca        1 BLN     -0.163300
     21 C2'         3.0070    4.3330   -6.2800 ca        1 BLN     -0.148500
     22 C3'         3.8820    3.2880   -6.5810 ca        1 BLN     -0.130000
     23 C4'         4.0940    2.2650   -5.6570 ca        1 BLN     -0.104000
     24 C5'         3.4360    2.2920   -4.4260 ca        1 BLN     -0.130000
     25 C6'         2.5720    3.3410   -4.1160 ca        1 BLN     -0.148500
     26 C'         -1.3730    2.5960   -6.8070 c1        1 BLN      0.111700
     27 N40        -1.6130    2.1150   -7.8370 n1        1 BLN     -0.190800
     28 CA'        -1.1180    3.2530   -5.5360 c3        1 BLN      0.193600
     29 HC21        1.7880    1.8730    1.0680 h1        1 BLN      0.085200
     30 HC22        0.4590    2.9970    0.4740 h1        1 BLN      0.085200
     31 HC31       -0.9790    2.4440    2.4010 h1        1 BLN      0.098450
     32 HC32        0.7180    2.7390    3.0610 h1        1 BLN      0.098450
     33 HC51       -1.7000    0.1250    2.3240 h1        1 BLN      0.098450
     34 HC52       -0.4700   -1.1240    2.9050 h1        1 BLN      0.098450
     35 HC61        0.8830   -0.9120    0.9300 h1        1 BLN      0.085200
     36 HC62       -0.8630   -0.9740    0.3480 h1        1 BLN      0.085200
     37 HN          0.2410   -0.9810   -1.7550 hn        1 BLN      0.477300
     38 HCA         1.1300    0.4410   -3.5300 hx        1 BLN      0.146700
     39 HCB1        0.3770   -1.9720   -3.9350 hc        1 BLN      0.098200
     40 HCB2       -1.2890   -1.3690   -4.3570 hc        1 BLN      0.098200
     41 HCG        -0.2400    0.0500   -6.1940 hc        1 BLN      0.028700
     42 HD11        2.2890   -1.5870   -5.4370 hc        1 BLN      0.061533
     43 HD12        2.0640   -0.6670   -6.9750 hc        1 BLN      0.061533
     44 HD13        2.1130    0.2210   -5.3970 hc        1 BLN      0.061533
     45 HD21        0.2790   -3.0030   -6.2870 hc        1 BLN      0.061533
     46 HD22       -1.3050   -2.1700   -6.5960 hc        1 BLN      0.061533
     47 HD23        0.0990   -1.8920   -7.7070 hc        1 BLN      0.061533
     48 HB'1       -1.3690    5.3600   -6.0150 h1        1 BLN      0.107200
     49 HB'2        0.2130    4.6450   -6.6390 h1        1 BLN      0.107200
     50 HN'         0.1640    3.0650   -3.9200 hn        1 BLN      0.501800
     51 HCD1        1.6860    5.9200   -3.6770 h1        1 BLN      0.099700
     52 HCD2        1.5370    6.3380   -5.4600 h1        1 BLN      0.099700
     53 H2'C        2.8600    5.1500   -7.0060 ha        1 BLN      0.150000
     54 H3'C        4.4210    3.2840   -7.5440 ha        1 BLN      0.153000
     55 H4'C        4.8030    1.4520   -5.8880 ha        1 BLN      0.164000
     56 H5'C        3.6470    1.5120   -3.6780 ha        1 BLN      0.153000
     57 H6'C        2.1310    3.4130   -3.1070 ha        1 BLN      0.150000
     58 HA'C       -2.0960    3.3760   -4.9650 hx        1 BLN      0.158700
     59 H2         -1.2860   -0.3260   -1.9380 hn        1 BLN      0.477300
     60 H'2         0.6080    2.0880   -5.2080 hn        1 BLN      0.501800
     61 OG          0.0840    5.1110   -4.5790 os        1 BLN     -0.436600
@<TRIPOS>BOND
     1    1    6 2   
     2    1    8 1   
     3    1    9 1   
     4    2    3 1   
     5    2    8 1   
     6    2   29 1   
     7    2   30 1   
     8    3    7 1   
     9    3   31 1   
    10    3   32 1   
    11    4    5 1   
    12    4    7 1   
    13    4   33 1   
    14    4   34 1   
    15    5    8 1   
    16    5   35 1   
    17    5   36 1   
    18    9   10 1   
    19    9   37 1   
    20    9   59 1   
    21   10   11 1   
    22   10   15 1   
    23   10   38 1   
    24   11   12 1   
    25   11   39 1   
    26   11   40 1   
    27   12   13 1   
    28   12   14 1   
    29   12   41 1   
    30   13   42 1   
    31   13   43 1   
    32   13   44 1   
    33   14   45 1   
    34   14   46 1   
    35   14   47 1   
    36   15   16 2   
    37   15   18 1   
    38   17   28 1   
    39   17   48 1   
    40   17   49 1   
    41   17   61 1   
    42   18   28 1   
    43   18   50 1   
    44   18   60 1   
    45   19   20 1   
    46   19   51 1   
    47   19   52 1   
    48   19   61 1   
    49   20   21 ar  
    50   20   25 ar  
    51   21   22 ar  
    52   21   53 1   
    53   22   23 ar  
    54   22   54 1   
    55   23   24 ar  
    56   23   55 1   
    57   24   25 ar  
    58   24   56 1   
    59   25   57 1   
    60   26   27 3   
    61   26   28 1   
    62   28   58 1   
@<TRIPOS>SUBSTRUCTURE
     1 BLN         1 TEMP              0 ****  ****    0 ROOT
