@<TRIPOS>MOLECULE
BLN
   59    56     1     0     0
SMALL
bcc


@<TRIPOS>ATOM
      1 C1          1.2290   -1.4530    1.0940 c1        1 BLN      0.375000
      2 C2          1.3840   -1.2680    3.5910 c3        1 BLN     -0.085500
      3 C3          0.3150   -0.7810    4.5430 c3        1 BLN     -0.056000
      4 C5         -1.2020   -2.3550    3.6290 c3        1 BLN     -0.056000
      5 C6         -0.1210   -2.8360    2.6760 c3        1 BLN     -0.085500
      6 O1          2.0670   -0.5880    0.9410 o         1 BLN     -0.422000
      7 O2         -0.6590   -1.7830    4.8190 os        1 BLN     -0.268000
      8 N1          0.8370   -1.8460    2.4220 n2        1 BLN     -0.275000
      9 N           0.5340   -1.9800   -0.0380 n3        1 BLN     -0.368000
     10 CA          1.1090   -1.8870   -1.3280 c3        1 BLN      0.020000
     11 CB          1.1350   -3.2660   -1.9700 c3        1 BLN     -0.164000
     12 CG          2.4770   -3.4590   -2.7430 c3        1 BLN     -0.105000
     13 CD1         3.5200   -4.0390   -1.8080 c3        1 BLN     -0.210500
     14 CD2         2.2520   -4.4260   -3.9290 c3        1 BLN     -0.210500
     15 C           0.2770   -0.9390   -2.1920 c2        1 BLN      0.301000
     16 O          -0.7310   -1.3460   -2.7460 o         1 BLN     -0.363000
     17 CB'         0.1380    2.7190   -1.6430 c3        1 BLN     -0.033000
     18 N'          0.6560    0.4530   -2.3130 n         1 BLN     -0.371000
     19 OG         -0.9940    3.5740   -1.3510 os        1 BLN     -0.274000
     20 CD         -0.7590    4.5060   -0.2710 c3        1 BLN      0.018000
     21 C1'        -2.0520    4.7570    0.4710 c2        1 BLN     -0.088000
     22 C2'        -2.8030    5.8890    0.1910 c2        1 BLN     -0.127000
     23 C3'        -3.9740    6.1340    0.8930 c1        1 BLN     -0.131000
     24 C4'        -4.3930    5.2460    1.8760 c1        1 BLN     -0.131000
     25 C5'        -3.6420    4.1180    2.1540 c1        1 BLN     -0.131000
     26 C6'        -2.4700    3.8720    1.4520 c1        1 BLN     -0.103000
     27 C'         -0.6300    1.7880   -3.8190 c1        1 BLN     -0.161000
     28 N40        -0.8440    2.0410   -4.9140 n1        1 BLN     -0.033000
     29 CA'        -0.3480    1.4550   -2.3790 c2        1 BLN      0.121000
     30 HC21        1.9380   -1.9410    4.0510 h1        1 BLN      0.112250
     31 HC22        1.9540   -0.5060    3.3350 h1        1 BLN      0.112250
     32 HC31        0.7420   -0.5060    5.3920 h1        1 BLN      0.101250
     33 HC32       -0.1350   -0.0000    4.1450 h1        1 BLN      0.101250
     34 HC51       -1.7510   -1.6830    3.1750 h1        1 BLN      0.101250
     35 HC52       -1.7690   -3.1130    3.8730 h1        1 BLN      0.101250
     36 HC61        0.3260   -3.6190    3.0670 h1        1 BLN      0.112250
     37 HC62       -0.5430   -3.1010    1.8190 h1        1 BLN      0.112250
     38 HN         -0.2780   -2.3800    0.0700 hn        1 BLN      0.236000
     39 HCA         2.0120   -1.5480   -1.2550 h1        1 BLN      0.134000
     40 HCB1        1.0580   -3.9530   -1.2720 hc        1 BLN      0.100500
     41 HCB2        0.3900   -3.3490   -2.5900 hc        1 BLN      0.100500
     42 HCG         2.7860   -2.5940   -3.0810 hc        1 BLN      0.103000
     43 HD11        3.7430   -3.3830   -1.1230 hc        1 BLN      0.076000
     44 HD12        3.1670   -4.8430   -1.3850 hc        1 BLN      0.076000
     45 HD13        4.3300   -4.2670   -2.3210 hc        1 BLN      0.076000
     46 HD21        3.0690   -4.4530   -4.4940 hc        1 BLN      0.076000
     47 HD22        1.4980   -4.1140   -4.4630 hc        1 BLN      0.076000
     48 HD23        2.0600   -5.3300   -3.5850 hc        1 BLN      0.076000
     49 HB'1        0.7760    3.2030   -2.2100 h1        1 BLN      0.085000
     50 HB'2        0.5760    2.4610   -0.8050 h1        1 BLN      0.085000
     51 HN'         1.5270    0.6740   -2.4620 hn        1 BLN      0.259000
     52 HCD1       -0.1010    4.1320    0.3430 h1        1 BLN      0.079000
     53 HCD2       -0.4190    5.3610   -0.6390 h1        1 BLN      0.079000
     54 H2'C       -2.5070    6.5150   -0.5020 ha        1 BLN      0.131000
     55 H3'C       -4.4990    6.9250    0.6980 ha        1 BLN      0.133000
     56 H4'C       -5.2120    5.4170    2.3670 ha        1 BLN      0.133000
     57 H5'C       -3.9400    3.4880    2.8520 ha        1 BLN      0.133000
     58 H6'C       -1.9430    3.0780    1.6490 ha        1 BLN      0.153000
     59 HA'C       -1.1640    1.1260   -1.9570 h4        1 BLN      0.168000
@<TRIPOS>BOND
     1    1    6 1   
     2    1    9 1   
     3    2    3 1   
     4    2    8 1   
     5    2   30 1   
     6    2   31 1   
     7    3    7 1   
     8    3   32 1   
     9    3   33 1   
    10    4    5 1   
    11    4    7 1   
    12    4   34 1   
    13    4   35 1   
    14    5    8 1   
    15    5   36 1   
    16    5   37 1   
    17    9   10 1   
    18    9   38 1   
    19   10   11 1   
    20   10   15 1   
    21   10   39 1   
    22   11   12 1   
    23   11   40 1   
    24   11   41 1   
    25   12   13 1   
    26   12   14 1   
    27   12   42 1   
    28   13   43 1   
    29   13   44 1   
    30   13   45 1   
    31   14   46 1   
    32   14   47 1   
    33   14   48 1   
    34   15   16 1   
    35   15   18 1   
    36   17   19 1   
    37   17   29 1   
    38   17   49 1   
    39   17   50 1   
    40   18   29 1   
    41   18   51 1   
    42   19   20 1   
    43   20   21 1   
    44   20   52 1   
    45   20   53 1   
    46   21   22 1   
    47   21   26 1   
    48   22   23 1   
    49   22   54 1   
    50   23   55 1   
    51   24   25 1   
    52   24   56 1   
    53   25   57 1   
    54   26   58 1   
    55   27   28 1   
    56   29   59 1   
@<TRIPOS>SUBSTRUCTURE
     1 BLN         1 TEMP              0 ****  ****    0 ROOT
