@<TRIPOS>MOLECULE
BLN
   59    60     1     0     0
SMALL
bcc


@<TRIPOS>ATOM
      1 C1          3.0600    0.8980   -0.0690 c         1 BLN      0.734100
      2 C2          4.9090    1.9170    1.1580 c3        1 BLN      0.031000
      3 C3          4.7630    1.7710    2.6780 c3        1 BLN      0.095400
      4 C5          4.7170   -0.5890    2.4760 c3        1 BLN      0.095400
      5 C6          4.8730   -0.4800    0.9510 c3        1 BLN      0.031000
      6 O1          2.4300    1.9740    0.0680 o         1 BLN     -0.633100
      7 O2          5.2920    0.5300    3.1390 os        1 BLN     -0.412600
      8 N1          4.4040    0.7790    0.4000 n         1 BLN     -0.419800
      9 N           2.4570   -0.1900   -0.7240 n         1 BLN     -0.537900
     10 CA          1.2580    0.0440   -1.5030 c3        1 BLN      0.035700
     11 CB          1.5180    0.3840   -2.9820 c3        1 BLN     -0.105400
     12 CG          0.2900    0.9900   -3.6470 c3        1 BLN     -0.065700
     13 CD1         0.1500    2.4600   -3.3070 c3        1 BLN     -0.093600
     14 CD2         0.3740    0.8070   -5.1490 c3        1 BLN     -0.093600
     15 C           0.4140   -1.2550   -1.4640 c         1 BLN      0.663100
     16 O           0.8740   -2.3330   -1.8880 o         1 BLN     -0.611100
     17 CB'        -2.3930   -2.4870    0.5130 c3        1 BLN      0.119400
     18 N'         -0.8540   -1.1670   -0.9310 n         1 BLN     -0.559900
     19 CD         -3.6860   -1.3580    2.1400 c3        1 BLN      0.179700
     20 C1'        -4.4050   -0.0750    2.3930 ca        1 BLN     -0.095300
     21 C2'        -5.0230    0.6230    1.3510 ca        1 BLN     -0.112500
     22 C3'        -5.7180    1.8020    1.6170 ca        1 BLN     -0.131000
     23 C4'        -5.8010    2.2870    2.9210 ca        1 BLN     -0.124000
     24 C5'        -5.1840    1.5930    3.9630 ca        1 BLN     -0.131000
     25 C6'        -4.4840    0.4170    3.7010 ca        1 BLN     -0.112500
     26 C'         -2.8160   -2.2150   -1.8880 c1        1 BLN      0.193700
     27 N40        -3.6630   -2.1660   -2.6820 n1        1 BLN     -0.355800
     28 CA'        -1.7480   -2.2950   -0.8820 c3        1 BLN      0.173800
     29 HC21        6.0030    1.9990    0.9000 h1        1 BLN      0.073950
     30 HC22        4.3870    2.8590    0.8300 h1        1 BLN      0.073950
     31 HC31        5.3800    2.5460    3.2030 h1        1 BLN      0.059700
     32 HC32        3.6880    1.8580    2.9850 h1        1 BLN      0.059700
     33 HC51        5.2940   -1.4690    2.8620 h1        1 BLN      0.059700
     34 HC52        3.6360   -0.6820    2.7610 h1        1 BLN      0.059700
     35 HC61        4.3690   -1.3640    0.4790 h1        1 BLN      0.073950
     36 HC62        5.9730   -0.5370    0.7020 h1        1 BLN      0.073950
     37 HN          3.0400   -0.9150   -1.0810 hn        1 BLN      0.313500
     38 HCA         0.7010    0.9080   -1.0280 h1        1 BLN      0.106700
     39 HCB1        1.8220   -0.5510   -3.5230 hc        1 BLN      0.063200
     40 HCB2        2.3680    1.1130   -3.0510 hc        1 BLN      0.063200
     41 HCG        -0.6270    0.4490   -3.2780 hc        1 BLN      0.046700
     42 HD11       -0.7950    2.8660   -3.7420 hc        1 BLN      0.038700
     43 HD12        0.1280    2.6130   -2.2010 hc        1 BLN      0.038700
     44 HD13        1.0080    3.0420   -3.7240 hc        1 BLN      0.038700
     45 HD21        1.2990    1.2880   -5.5510 hc        1 BLN      0.038700
     46 HD22        0.3950   -0.2780   -5.4110 hc        1 BLN      0.038700
     47 HD23       -0.5110    1.2760   -5.6430 hc        1 BLN      0.038700
     48 HB'1       -3.1150   -3.3450    0.4700 h1        1 BLN      0.048200
     49 HB'2       -1.5980   -2.6980    1.2760 h1        1 BLN      0.048200
     50 HN'        -1.2020   -0.3020   -0.5890 hn        1 BLN      0.338500
     51 HCD1       -4.4110   -2.2170    2.1620 h1        1 BLN      0.039700
     52 HCD2       -2.8860   -1.5320    2.9110 h1        1 BLN      0.039700
     53 H2'C       -4.9500    0.2370    0.3220 ha        1 BLN      0.139000
     54 H3'C       -6.2010    2.3490    0.7940 ha        1 BLN      0.133500
     55 H4'C       -6.3510    3.2160    3.1300 ha        1 BLN      0.132000
     56 H5'C       -5.2470    1.9750    4.9920 ha        1 BLN      0.133500
     57 H6'C       -3.9940   -0.1250    4.5240 ha        1 BLN      0.139000
     58 HA'C       -1.1470   -3.2380   -1.1030 h1        1 BLN      0.118700
     59 OG         -3.0800   -1.2870    0.8450 os        1 BLN     -0.425600
@<TRIPOS>BOND
     1    1    6 2   
     2    1    8 1   
     3    1    9 1   
     4    2    3 1   
     5    2    8 1   
     6    2   29 1   
     7    2   30 1   
     8    3    7 1   
     9    3   31 1   
    10    3   32 1   
    11    4    5 1   
    12    4    7 1   
    13    4   33 1   
    14    4   34 1   
    15    5    8 1   
    16    5   35 1   
    17    5   36 1   
    18    9   10 1   
    19    9   37 1   
    20   10   11 1   
    21   10   15 1   
    22   10   38 1   
    23   11   12 1   
    24   11   39 1   
    25   11   40 1   
    26   12   13 1   
    27   12   14 1   
    28   12   41 1   
    29   13   42 1   
    30   13   43 1   
    31   13   44 1   
    32   14   45 1   
    33   14   46 1   
    34   14   47 1   
    35   15   16 2   
    36   15   18 1   
    37   17   28 1   
    38   17   48 1   
    39   17   49 1   
    40   17   59 1   
    41   18   28 1   
    42   18   50 1   
    43   19   20 1   
    44   19   51 1   
    45   19   52 1   
    46   19   59 1   
    47   20   21 ar  
    48   20   25 ar  
    49   21   22 ar  
    50   21   53 1   
    51   22   23 ar  
    52   22   54 1   
    53   23   24 ar  
    54   23   55 1   
    55   24   25 ar  
    56   24   56 1   
    57   25   57 1   
    58   26   27 3   
    59   26   28 1   
    60   28   58 1   
@<TRIPOS>SUBSTRUCTURE
     1 BLN         1 TEMP              0 ****  ****    0 ROOT
