@<TRIPOS>MOLECULE
BLO
   54    55     1     0     0
SMALL
bcc


@<TRIPOS>ATOM
      1 O7         -0.8720    1.3650   -0.5010 o         1 BLO     -0.653100
      2 C7         -1.1830    0.6280    0.4640 c         1 BLO      0.648100
      3 C8         -2.6060    0.1260    0.6510 c3        1 BLO     -0.198400
      4 C9         -3.5490    0.6370   -0.4530 c3        1 BLO      0.182500
      5 C10        -4.9770    0.2260   -0.0620 c3        1 BLO     -0.106400
      6 C11        -6.0010    0.8520   -1.0050 c3        1 BLO      0.180800
      7 N12        -7.4050    0.6980   -0.6430 nh        1 BLO     -0.710600
      8 C14        -7.8290   -0.6830   -0.4640 c2        1 BLO      0.748100
      9 N15        -8.3540   -1.0850    0.6680 n2        1 BLO     -0.871100
     10 N14        -7.6210   -1.5380   -1.5950 nh        1 BLO     -0.929800
     11 C13        -7.8390    1.6100    0.3940 c3        1 BLO      0.176100
     12 N9         -3.2050    0.2190   -1.7980 n3        1 BLO     -0.913800
     13 N6         -0.2820    0.2770    1.4400 n         1 BLO     -0.538900
     14 C4'         1.1470    0.4610    1.2740 c3        1 BLO      0.108900
     15 C3'         1.5910    1.8930    1.1890 c2        1 BLO     -0.127200
     16 C2'         2.8830    2.1670    1.3800 c2        1 BLO     -0.229200
     17 C5'         1.9080   -0.2320    2.4340 c3        1 BLO     -0.006900
     18 C6'         1.6320   -1.7630    2.3430 c         1 BLO      0.918600
     19 O3          0.5260   -2.1310    2.8330 o         1 BLO     -0.817300
     20 O4          2.4560   -2.5130    1.7610 o         1 BLO     -0.817300
     21 O5'         3.3140    0.0020    2.4640 os        1 BLO     -0.393600
     22 C1'         3.8600    1.0730    1.7120 c3        1 BLO      0.341700
     23 N1          4.5370    0.5570    0.5020 n         1 BLO     -0.381000
     24 C6          4.3560   -0.7210    0.0520 cc        1 BLO      0.078600
     25 C5          5.0130   -1.1820   -1.0740 cd        1 BLO     -0.428600
     26 C4          5.8930   -0.2610   -1.7320 cd        1 BLO      0.727900
     27 O1          6.5250   -0.7390   -2.8530 oh        1 BLO     -0.584600
     28 N3          6.1300    0.9900   -1.3270 nc        1 BLO     -0.760100
     29 C2          5.4590    1.4350   -0.1750 c         1 BLO      0.829900
     30 O2          5.6400    2.5810    0.2940 o         1 BLO     -0.651500
     31 H81        -2.9870    0.4740    1.6470 hc        1 BLO      0.072200
     32 H82        -2.5990   -0.9960    0.6630 hc        1 BLO      0.072200
     33 H9         -3.4910    1.7680   -0.4470 h1        1 BLO      0.065700
     34 H101       -5.1660    0.5680    0.9900 hc        1 BLO      0.051200
     35 H102       -5.0780   -0.8900   -0.0780 hc        1 BLO      0.051200
     36 H111       -5.8590    0.4270   -2.0380 h1        1 BLO      0.061700
     37 H112       -5.7970    1.9590   -1.0770 h1        1 BLO      0.061700
     38 H15        -8.6890   -2.0230    0.6770 hn        1 BLO      0.386400
     39 H141       -8.3770   -2.1680   -1.7560 hn        1 BLO      0.389300
     40 H142       -7.3280   -1.0820   -2.4310 hn        1 BLO      0.389300
     41 H131       -7.5980    2.6530    0.0550 h1        1 BLO      0.039367
     42 H132       -8.9490    1.5230    0.5250 h1        1 BLO      0.039367
     43 H133       -7.3450    1.4300    1.3860 h1        1 BLO      0.039367
     44 HN91       -2.3290    0.6330   -2.0630 hn        1 BLO      0.359800
     45 HN92       -3.1200   -0.7780   -1.8430 hn        1 BLO      0.359800
     46 HN6        -0.5310   -0.4570    2.0840 hn        1 BLO      0.358500
     47 H4'         1.4680   -0.0380    0.3040 h1        1 BLO      0.069700
     48 H3'         0.8400    2.6570    0.9430 ha        1 BLO      0.149000
     49 H2'         3.3210    3.1710    1.2920 ha        1 BLO      0.153000
     50 H5'         1.5260    0.1540    3.4220 h1        1 BLO      0.057700
     51 H1'         4.6880    1.4810    2.3770 h2        1 BLO      0.090700
     52 H6          3.6670   -1.3850    0.6460 h4        1 BLO      0.257000
     53 H5          4.8770   -2.2000   -1.4480 ha        1 BLO      0.171000
     54 HO1         7.0940   -0.0460   -3.2270 ho        1 BLO      0.434000
@<TRIPOS>BOND
     1    1    2 2   
     2    2    3 1   
     3    2   13 1   
     4    3    4 1   
     5    3   31 1   
     6    3   32 1   
     7    4    5 1   
     8    4   12 1   
     9    4   33 1   
    10    5    6 1   
    11    5   34 1   
    12    5   35 1   
    13    6    7 1   
    14    6   36 1   
    15    6   37 1   
    16    7    8 1   
    17    7   11 1   
    18    8    9 2   
    19    8   10 1   
    20    9   38 1   
    21   10   39 1   
    22   10   40 1   
    23   11   41 1   
    24   11   42 1   
    25   11   43 1   
    26   12   44 1   
    27   12   45 1   
    28   13   14 1   
    29   13   46 1   
    30   14   15 1   
    31   14   17 1   
    32   14   47 1   
    33   15   16 2   
    34   15   48 1   
    35   16   22 1   
    36   16   49 1   
    37   17   18 1   
    38   17   21 1   
    39   17   50 1   
    40   18   19 1   
    41   18   20 1   
    42   21   22 1   
    43   22   23 1   
    44   22   51 1   
    45   23   24 1   
    46   23   29 1   
    47   24   25 2   
    48   24   52 1   
    49   25   26 1   
    50   25   53 1   
    51   26   27 1   
    52   26   28 2   
    53   27   54 1   
    54   28   29 1   
    55   29   30 2   
@<TRIPOS>SUBSTRUCTURE
     1 BLO         1 TEMP              0 ****  ****    0 ROOT
