@<TRIPOS>MOLECULE
BLO
   54    50     1     0     0
SMALL
bcc


@<TRIPOS>ATOM
      1 O7         -0.9650   -0.6990    0.4540 o         1 BLO     -0.421000
      2 C7          0.2490   -0.6690    0.4630 c1        1 BLO      0.293000
      3 C8          0.9980   -0.7160    1.7770 c2        1 BLO     -0.223000
      4 C9          0.0080   -0.7680    2.9190 c3        1 BLO     -0.025000
      5 C10         0.7100   -0.4190    4.2110 c3        1 BLO     -0.190000
      6 C11        -0.2120    0.4130    5.0780 c3        1 BLO     -0.053000
      7 N12         0.5320    0.9940    6.1410 n3        1 BLO     -0.286000
      8 C14         0.5180    0.3950    7.4270 c2        1 BLO      0.179000
      9 N15         1.6370    0.0210    7.9870 n1        1 BLO     -0.378000
     10 N14        -0.7140    0.2020    8.1060 n3        1 BLO     -0.329000
     11 C13         1.2370    2.2110    5.9320 c3        1 BLO     -0.104000
     12 N9         -0.5370   -2.0790    3.0150 n3        1 BLO     -0.338000
     13 N6          0.9640   -0.5440   -0.7560 n3        1 BLO     -0.343000
     14 C4'         0.2520   -0.4520   -2.0000 c3        1 BLO      0.029000
     15 C3'        -0.1060    0.8590   -2.2490 c2        1 BLO     -0.127000
     16 C2'        -0.5020    1.2230   -3.5630 c1        1 BLO     -0.222000
     17 C5'         1.1910   -1.2230   -3.3040 c3        1 BLO     -0.068000
     18 C6'         1.4060   -2.6200   -3.0080 c2        1 BLO      0.339000
     19 O3          2.5390   -3.0150   -2.6260 o         1 BLO     -0.551500
     20 O4          0.4670   -3.4460   -3.1520 o         1 BLO     -0.551500
     21 O5'         0.4400   -1.0040   -4.2970 os        1 BLO     -0.250000
     22 C1'         0.0540    0.4810   -4.6550 c2        1 BLO      0.188000
     23 N1         -0.8270    0.5280   -5.8250 n3        1 BLO     -0.275000
     24 C6         -0.4800    1.2550   -6.8960 c2        1 BLO      0.075000
     25 C5         -1.3000    1.2990   -7.9860 c1        1 BLO     -0.341000
     26 C4         -2.4720    0.6010   -7.9840 c1        1 BLO      0.220000
     27 O1         -3.2860    0.5910   -9.1330 oh        1 BLO     -0.249000
     28 N3         -2.8170   -0.1260   -6.9120 n1        1 BLO     -0.332000
     29 C2         -1.9980   -0.1690   -5.8250 c1        1 BLO      0.348000
     30 O2         -2.3120   -0.8280   -4.8530 o         1 BLO     -0.376000
     31 H81         1.5650   -1.5130    1.8010 ha        1 BLO      0.110000
     32 H82         1.5540    0.0830    1.8650 ha        1 BLO      0.110000
     33 H9         -0.7120   -0.1270    2.7560 h1        1 BLO      0.104000
     34 H101        0.9500   -1.2400    4.6850 hc        1 BLO      0.084000
     35 H102        1.5210    0.0920    4.0140 hc        1 BLO      0.084000
     36 H111       -0.6170    1.1230    4.5370 h1        1 BLO      0.108000
     37 H112       -0.9170   -0.1580    5.4470 h1        1 BLO      0.108000
     38 H15         2.4300    0.1450    7.5500 DU        1 BLO      0.142000
     39 H141       -1.5030    0.2790    7.6520 hn        1 BLO      0.199000
     40 H142       -0.7190    0.0200    9.0020 hn        1 BLO      0.199000
     41 H131        0.9110    2.8900    6.5620 h1        1 BLO      0.076667
     42 H132        1.0900    2.5210    5.0130 h1        1 BLO      0.076667
     43 H133        2.1960    2.0630    6.0780 h1        1 BLO      0.076667
     44 HN91       -1.0160   -2.2670    2.2570 hn        1 BLO      0.153000
     45 HN92        0.1430   -2.6860    3.1040 hn        1 BLO      0.153000
     46 HN6         1.8760   -0.5340   -0.7500 hn        1 BLO      0.275000
     47 H4'        -0.5430   -0.9860   -1.7960 h1        1 BLO      0.109000
     48 H3'        -0.2600    1.4720   -1.5050 ha        1 BLO      0.151000
     49 H2'        -0.7650    2.1490   -3.7260 ha        1 BLO      0.155000
     50 H5'         2.1060   -0.9090   -3.4600 h1        1 BLO      0.097000
     51 H1'         0.8400    0.9490   -5.0020 h5        1 BLO      0.131000
     52 H6          0.3670    1.7420   -6.9030 h4        1 BLO      0.256000
     53 H5         -1.0470    1.8290   -8.7670 ha        1 BLO      0.171000
     54 HO1        -4.1260    0.7700   -8.9030 ho        1 BLO      0.234000
@<TRIPOS>BOND
     1    1    2 1   
     2    2   13 1   
     3    3    4 1   
     4    3   31 1   
     5    3   32 1   
     6    4    5 1   
     7    4   12 1   
     8    4   33 1   
     9    5    6 1   
    10    5   34 1   
    11    5   35 1   
    12    6    7 1   
    13    6   36 1   
    14    6   37 1   
    15    7    8 1   
    16    7   11 1   
    17    8    9 1   
    18    8   10 1   
    19   10   39 1   
    20   10   40 1   
    21   11   41 1   
    22   11   42 1   
    23   11   43 1   
    24   12   44 1   
    25   12   45 1   
    26   13   14 1   
    27   13   46 1   
    28   14   15 1   
    29   14   17 1   
    30   14   47 1   
    31   15   16 1   
    32   15   48 1   
    33   16   49 1   
    34   17   18 1   
    35   17   21 1   
    36   17   50 1   
    37   18   19 1   
    38   18   20 1   
    39   21   22 1   
    40   22   23 1   
    41   22   51 1   
    42   23   24 1   
    43   23   29 1   
    44   24   25 1   
    45   24   52 1   
    46   25   53 1   
    47   26   27 1   
    48   26   28 1   
    49   27   54 1   
    50   29   30 1   
@<TRIPOS>SUBSTRUCTURE
     1 BLO         1 TEMP              0 ****  ****    0 ROOT
