@<TRIPOS>MOLECULE
BLO
   58    59     1     0     0
SMALL
bcc


@<TRIPOS>ATOM
      1 O7          0.0000    0.0000    0.0000 o         1 BLO     -0.493100
      2 C7          1.2120    0.0000    0.0000 c         1 BLO      0.403100
      3 C8          1.9650    0.0000    1.3050 c3        1 BLO     -0.125400
      4 C9          0.9710    0.0010    2.4680 c3        1 BLO     -0.039500
      5 C10         1.7320    0.1270    3.7890 c3        1 BLO     -0.058400
      6 C11         0.7330    0.2540    4.9420 c3        1 BLO     -0.008200
      7 N12         1.4630    0.3750    6.2070 nx        1 BLO      0.030600
      8 C14         1.7920   -0.7530    6.9210 c2        1 BLO     -0.112900
      9 N15         1.4390   -1.9950    6.4470 n2        1 BLO     -0.446100
     10 N14         2.4410   -0.6450    8.0470 nz        1 BLO      0.257400
     11 C13         1.8390    1.6970    6.7130 c3        1 BLO      0.019100
     12 N9          0.2080   -1.2540    2.4600 nz        1 BLO      0.047400
     13 N6          1.8870   -0.0010   -1.1670 ny        1 BLO      0.051200
     14 C4'         1.1540   -0.0020   -2.4360 c3        1 BLO      0.009700
     15 C3'         0.8000    1.4130   -2.8150 c2        1 BLO     -0.216200
     16 C2'         0.9820    1.8500   -4.0280 c2        1 BLO     -0.076200
     17 C5'         2.0320   -0.6090   -3.5350 c3        1 BLO      0.078100
     18 C6'         2.2010   -2.0870   -3.2960 c         1 BLO      0.932600
     19 O3          2.8680   -2.5200   -2.2150 o         1 BLO     -0.721800
     20 O4          1.7390   -2.8820   -4.0800 o         1 BLO     -0.721800
     21 O5'         1.3980   -0.3950   -4.7980 os        1 BLO     -0.288600
     22 C1'         1.5500    0.9860   -5.1160 c3        1 BLO      0.231700
     23 N1          0.8530    1.2700   -6.3730 n         1 BLO      0.121000
     24 C6          1.5330    1.8230   -7.4160 cc        1 BLO     -0.089400
     25 C5          0.8760    2.0810   -8.5730 cd        1 BLO     -0.229600
     26 C4         -0.4940    1.7690   -8.6630 cd        1 BLO      0.719900
     27 O1         -1.1720    2.0170   -9.8070 oh        1 BLO     -0.545600
     28 N3         -1.1140    1.2320   -7.6240 nc        1 BLO     -0.537100
     29 C2         -0.4550    0.9790   -6.4940 c         1 BLO      0.679900
     30 O2         -1.0490    0.4840   -5.5510 o         1 BLO     -0.558500
     31 H81         2.5880   -0.8850    1.3630 hc        1 BLO      0.092700
     32 H82         2.5890    0.8840    1.3620 hc        1 BLO      0.092700
     33 H9          0.2920    0.8380    2.3610 hx        1 BLO      0.120700
     34 H101        2.3460   -0.7530    3.9380 hc        1 BLO      0.072700
     35 H102        2.3630    1.0070    3.7600 hc        1 BLO      0.072700
     36 H111        0.1200    1.1340    4.7930 hx        1 BLO      0.083700
     37 H112        0.1020   -0.6260    4.9710 hx        1 BLO      0.083700
     38 H15         0.9420   -2.0800    5.5830 hn        1 BLO      0.334400
     39 H141        3.3440   -0.2500    7.8760 hn        1 BLO      0.228467
     40 H142        1.9300   -0.0520    8.6710 hn        1 BLO      0.228467
     41 H131        1.5060    2.4580    6.0170 hx        1 BLO      0.087367
     42 H132        2.9150    1.7510    6.8190 hx        1 BLO      0.087367
     43 H133        1.3720    1.8610    7.6770 hx        1 BLO      0.087367
     44 HN91       -0.6310   -1.1370    2.9940 hn        1 BLO      0.248467
     45 HN92        0.7610   -1.9840    2.8630 hn        1 BLO      0.248467
     46 HN6         2.4700    0.8120   -1.1670 hn        1 BLO      0.292300
     47 H4'         0.2480   -0.5860   -2.3360 hx        1 BLO      0.122700
     48 H3'         0.3860    2.0770   -2.0660 ha        1 BLO      0.120000
     49 H2'         0.7140    2.8740   -4.2610 ha        1 BLO      0.136000
     50 H5'         3.0010   -0.1230   -3.5310 h1        1 BLO      0.029700
     51 H1'         2.6040    1.2080   -5.2310 h2        1 BLO      0.051700
     52 H6          2.5400    2.1950   -7.2700 h4        1 BLO      0.151000
     53 H5          1.3460    2.6850   -9.3400 ha        1 BLO      0.166000
     54 HO1        -1.4150    1.2010  -10.2110 ho        1 BLO      0.453000
     55 H121        2.3310    0.3170    5.7130 hn        1 BLO      0.225800
     56 H143        2.5480   -1.5510    8.4590 hn        1 BLO      0.228467
     57 H93        -0.0280   -1.4950    1.5180 hn        1 BLO      0.248467
     58 H62         2.4700   -0.8150   -1.1650 hn        1 BLO      0.292300
@<TRIPOS>BOND
     1    1    2 2   
     2    2    3 1   
     3    2   13 1   
     4    3    4 1   
     5    3   31 1   
     6    3   32 1   
     7    4    5 1   
     8    4   12 1   
     9    4   33 1   
    10    5    6 1   
    11    5   34 1   
    12    5   35 1   
    13    6    7 1   
    14    6   36 1   
    15    6   37 1   
    16    7    8 1   
    17    7   11 1   
    18    7   55 1   
    19    8    9 2   
    20    8   10 1   
    21    9   38 1   
    22   10   39 1   
    23   10   40 1   
    24   10   56 1   
    25   11   41 1   
    26   11   42 1   
    27   11   43 1   
    28   12   44 1   
    29   12   45 1   
    30   12   57 1   
    31   13   14 1   
    32   13   46 1   
    33   13   58 1   
    34   14   15 1   
    35   14   17 1   
    36   14   47 1   
    37   15   16 2   
    38   15   48 1   
    39   16   22 1   
    40   16   49 1   
    41   17   18 1   
    42   17   21 1   
    43   17   50 1   
    44   18   19 1   
    45   18   20 1   
    46   21   22 1   
    47   22   23 1   
    48   22   51 1   
    49   23   24 1   
    50   23   29 1   
    51   24   25 2   
    52   24   52 1   
    53   25   26 1   
    54   25   53 1   
    55   26   27 1   
    56   26   28 2   
    57   27   54 1   
    58   28   29 1   
    59   29   30 2   
@<TRIPOS>SUBSTRUCTURE
     1 BLO         1 TEMP              0 ****  ****    0 ROOT
