@<TRIPOS>MOLECULE
BLP
   50    51     1     0     0
SMALL
bcc


@<TRIPOS>ATOM
      1 O8         -8.0510   -0.5440   -0.9320 o         1 BLP     -0.216500
      2 N5         -7.0860    0.0800   -0.5610 no        1 BLP      0.316200
      3 O7         -7.0910    1.2780   -0.5260 o         1 BLP     -0.216500
      4 C16        -5.8990   -0.6760   -0.0790 ca        1 BLP     -0.138200
      5 C15        -6.1150   -1.9200    0.5410 ca        1 BLP     -0.102000
      6 C14        -5.0270   -2.6360    1.0300 ca        1 BLP     -0.141000
      7 C13        -3.7330   -2.1280    0.9040 ca        1 BLP     -0.095000
      8 C12        -3.5210   -0.9010    0.2780 ca        1 BLP     -0.101000
      9 C11        -4.6000   -0.1670   -0.2290 ca        1 BLP     -0.081600
     10 C10        -4.2900    1.0930   -0.9940 c         1 BLP      0.658700
     11 O6         -4.6460    1.1850   -2.1860 o         1 BLP     -0.601100
     12 N4         -3.6590    2.1060   -0.2920 n         1 BLP     -0.484900
     13 C9         -2.6900    2.9470   -0.9610 c3        1 BLP      0.007000
     14 C8         -1.1940    2.6240   -0.7100 c2        1 BLP      0.499300
     15 O5         -0.3920    3.4530   -1.2610 o         1 BLP     -0.831300
     16 N3         -0.9350    1.5140    0.0070 n2        1 BLP     -0.556700
     17 N2          0.3400    1.2350    0.3930 nh        1 BLP     -0.455300
     18 C7          1.3130    0.9070   -0.6750 c3        1 BLP      0.147100
     19 C6          2.7180    1.1330   -0.2040 ca        1 BLP     -0.115300
     20 C17         3.1980    2.4540   -0.0680 ca        1 BLP      0.050800
     21 O9          2.4650    3.5790   -0.3260 oh        1 BLP     -0.531100
     22 C2          4.5460    2.6750    0.3380 ca        1 BLP      0.323600
     23 C1          5.0180    4.0860    0.4550 c3        1 BLP     -0.117400
     24 C4          3.5940    0.0810    0.0970 ca        1 BLP     -0.165600
     25 C3          4.9110    0.4010    0.4940 ca        1 BLP      0.364200
     26 N1          5.3850    1.6500    0.6120 nb        1 BLP     -0.676000
     27 C5          3.1630   -1.3500   -0.0230 c3        1 BLP      0.231700
     28 O1          4.1630   -2.2400    0.3650 os        1 BLP     -0.579200
     29 P1          3.7530   -3.4420    1.4260 p5        1 BLP      1.429800
     30 O2          4.7900   -4.4860    1.3370 o         1 BLP     -0.840500
     31 O3          3.9010   -2.6060    2.8210 oh        1 BLP     -0.780400
     32 O4          2.2900   -3.6410    1.3200 o         1 BLP     -0.840500
     33 H15        -7.1360   -2.3240    0.6310 ha        1 BLP      0.149000
     34 H14        -5.1920   -3.6090    1.5160 ha        1 BLP      0.134000
     35 H13        -2.8720   -2.6960    1.2930 ha        1 BLP      0.161000
     36 H12        -2.4920   -0.5030    0.1710 ha        1 BLP      0.213000
     37 HN4        -3.3780    1.8510    0.6350 hn        1 BLP      0.301500
     38 H91        -2.8610    3.9990   -0.5980 h1        1 BLP      0.059200
     39 H92        -2.8650    2.9190   -2.0710 h1        1 BLP      0.059200
     40 HN3         3.0870   -2.1850    3.0710 ho        1 BLP      0.424000
     41 HN2         0.2590    0.4030    0.9700 hn        1 BLP      0.338800
     42 H71         1.1280    1.5800   -1.5640 h1        1 BLP      0.043700
     43 H72         1.2070   -0.1530   -1.0440 h1        1 BLP      0.043700
     44 HO9         1.5280    3.3420   -0.4960 ho        1 BLP      0.488000
     45 H11         4.9990    4.5640   -0.5560 hc        1 BLP      0.032367
     46 H12A        4.3160    4.6520    1.1170 hc        1 BLP      0.032367
     47 H13A        6.0510    4.1580    0.8720 hc        1 BLP      0.032367
     48 H3          5.6160   -0.4170    0.7340 h4        1 BLP      0.041100
     49 H51         2.2300   -1.5230    0.5890 h1        1 BLP      0.040700
     50 H52         2.9220   -1.5410   -1.1130 h1        1 BLP      0.040700
@<TRIPOS>BOND
     1    1    2 1   
     2    2    3 1   
     3    2    4 1   
     4    4    5 ar  
     5    4    9 ar  
     6    5    6 ar  
     7    5   33 1   
     8    6    7 ar  
     9    6   34 1   
    10    7    8 ar  
    11    7   35 1   
    12    8    9 ar  
    13    8   36 1   
    14    9   10 1   
    15   10   11 2   
    16   10   12 1   
    17   12   13 1   
    18   12   37 1   
    19   13   14 1   
    20   13   38 1   
    21   13   39 1   
    22   14   15 1   
    23   14   16 2   
    24   16   17 1   
    25   17   18 1   
    26   17   41 1   
    27   18   19 1   
    28   18   42 1   
    29   18   43 1   
    30   19   20 ar  
    31   19   24 ar  
    32   20   21 1   
    33   20   22 ar  
    34   21   44 1   
    35   22   23 1   
    36   22   26 ar  
    37   23   45 1   
    38   23   46 1   
    39   23   47 1   
    40   24   25 ar  
    41   24   27 1   
    42   25   26 ar  
    43   25   48 1   
    44   27   28 1   
    45   27   49 1   
    46   27   50 1   
    47   28   29 1   
    48   29   30 1   
    49   29   31 1   
    50   29   32 1   
    51   31   40 1   
@<TRIPOS>SUBSTRUCTURE
     1 BLP         1 TEMP              0 ****  ****    0 ROOT
