@<TRIPOS>MOLECULE
BLP
   53    54     1     0     0
SMALL
bcc


@<TRIPOS>ATOM
      1 O8          0.0000    0.0000    0.0000 o         1 BLP     -0.431500
      2 N5          1.2180    0.0000    0.0000 no        1 BLP      1.041200
      3 O7          1.8270    0.0000    1.0550 o         1 BLP     -0.431500
      4 C16         1.9590    0.0000   -1.2810 ca        1 BLP     -0.384200
      5 C15         1.2780   -0.1390   -2.4730 ca        1 BLP      0.005000
      6 C14         1.9680   -0.1390   -3.6720 ca        1 BLP     -0.052000
      7 C13         3.3440    0.0070   -3.6840 ca        1 BLP     -0.029000
      8 C12         4.0360    0.1530   -2.5010 ca        1 BLP     -0.077000
      9 C11         3.3460    0.1540   -1.2880 ca        1 BLP     -0.145600
     10 C10         4.0810    0.3110   -0.0140 c         1 BLP      0.360700
     11 O6          3.7700    1.1920    0.7630 o         1 BLP     -0.386100
     12 N4          5.0970   -0.5230    0.2840 ny        1 BLP      0.155200
     13 C9          5.8250   -0.3690    1.5460 c3        1 BLP     -0.177200
     14 C8          6.9040   -1.4180    1.6350 c         1 BLP      0.392100
     15 O5          7.0490   -2.2160    0.7340 o         1 BLP     -0.612100
     16 N3          7.7060   -1.4690    2.7170 ny        1 BLP     -0.415600
     17 N2          8.6830   -2.4190    2.7980 ny        1 BLP     -0.133800
     18 C7          9.3720   -2.2090    4.0790 c3        1 BLP      0.071100
     19 C6         10.4690   -3.2310    4.2330 ca        1 BLP     -0.174300
     20 C17        10.2180   -4.4590    4.8360 ca        1 BLP      0.021800
     21 O9          8.9780   -4.7590    5.3020 oh        1 BLP     -0.502100
     22 C2         11.2560   -5.3700    4.9640 ca        1 BLP      0.358600
     23 C1         11.0020   -6.7030    5.6210 c3        1 BLP     -0.039400
     24 C4         11.7500   -2.9710    3.7730 ca        1 BLP     -0.206600
     25 C3         12.7310   -3.9320    3.9330 ca        1 BLP      0.436200
     26 N1         12.4620   -5.0850    4.5130 nb        1 BLP     -0.529000
     27 C5         12.0700   -1.6580    3.1070 c3        1 BLP      0.308700
     28 O1         13.4470   -1.6400    2.7270 os        1 BLP     -0.436200
     29 P1         13.7170   -0.2160    2.0260 p5        1 BLP      0.877900
     30 O2         15.2850   -0.0740    1.6880 o         1 BLP     -0.260167
     31 O3         12.8640   -0.1180    0.6640 o         1 BLP     -0.260167
     32 O4         13.3100    0.8710    2.9430 o         1 BLP     -0.260167
     33 H15         0.2000   -0.2540   -2.4700 ha        1 BLP      0.152000
     34 H14         1.4290   -0.2540   -4.6050 ha        1 BLP      0.135000
     35 H13         3.8790    0.0070   -4.6260 ha        1 BLP      0.130000
     36 H12         5.1130    0.2670   -2.5130 ha        1 BLP      0.112000
     37 HN4         4.7230   -1.4520    0.2750 hn        1 BLP      0.263300
     38 H91         5.1380   -0.4850    2.3760 hx        1 BLP      0.086700
     39 H92         6.2750    0.6160    1.5850 hx        1 BLP      0.086700
     40 HN3         7.1130   -1.5920    3.5130 hn        1 BLP      0.275800
     41 HN2         8.2750   -3.3320    2.7750 hn        1 BLP      0.252300
     42 H71         8.6640   -2.3140    4.8910 hx        1 BLP      0.057200
     43 H72         9.8000   -1.2140    4.1000 hx        1 BLP      0.057200
     44 HO9         8.9500   -4.6180    6.2340 ho        1 BLP      0.420000
     45 H11        11.8800   -7.3290    5.5170 hc        1 BLP      0.023700
     46 H12A       10.7880   -6.5520    6.6720 hc        1 BLP      0.023700
     47 H13A       10.1570   -7.1840    5.1450 hc        1 BLP      0.023700
     48 H3         13.7350   -3.7360    3.5760 h4        1 BLP      0.017100
     49 H51        11.4510   -1.5400    2.2260 h1        1 BLP      0.003700
     50 H52        11.8750   -0.8460    3.7970 h1        1 BLP      0.003700
     51 H42         5.7690   -0.4380   -0.4530 hn        1 BLP      0.263300
     52 H32         8.1560   -0.5770    2.7870 hn        1 BLP      0.275800
     53 H22         9.3300   -2.3110    2.0420 hn        1 BLP      0.252300
@<TRIPOS>BOND
     1    1    2 1   
     2    2    3 1   
     3    2    4 1   
     4    4    5 ar  
     5    4    9 ar  
     6    5    6 ar  
     7    5   33 1   
     8    6    7 ar  
     9    6   34 1   
    10    7    8 ar  
    11    7   35 1   
    12    8    9 ar  
    13    8   36 1   
    14    9   10 1   
    15   10   11 2   
    16   10   12 1   
    17   12   13 1   
    18   12   37 1   
    19   12   51 1   
    20   13   14 1   
    21   13   38 1   
    22   13   39 1   
    23   14   15 2   
    24   14   16 1   
    25   16   17 1   
    26   16   40 1   
    27   16   52 1   
    28   17   18 1   
    29   17   41 1   
    30   17   53 1   
    31   18   19 1   
    32   18   42 1   
    33   18   43 1   
    34   19   20 ar  
    35   19   24 ar  
    36   20   21 1   
    37   20   22 ar  
    38   21   44 1   
    39   22   23 1   
    40   22   26 ar  
    41   23   45 1   
    42   23   46 1   
    43   23   47 1   
    44   24   25 ar  
    45   24   27 1   
    46   25   26 ar  
    47   25   48 1   
    48   27   28 1   
    49   27   49 1   
    50   27   50 1   
    51   28   29 1   
    52   29   30 1   
    53   29   31 1   
    54   29   32 1   
@<TRIPOS>SUBSTRUCTURE
     1 BLP         1 TEMP              0 ****  ****    0 ROOT
