@<TRIPOS>MOLECULE
BLQ
   40    41     1     0     0
SMALL
bcc


@<TRIPOS>ATOM
      1 CAA         0.1170   -0.0120   -0.0800 cc        1 BLQ      0.447900
      2 CAB         1.5720   -0.1860    0.0760 cc        1 BLQ     -0.240600
      3 CAC         2.1510   -0.1660    1.2840 cd        1 BLQ     -0.193200
      4 CAD         1.3650    0.0530    2.5290 c         1 BLQ      0.565500
      5 CAE        -0.0880   -0.1400    2.3800 cd        1 BLQ     -0.175400
      6 CAF        -0.6620   -0.1450    1.1640 cc        1 BLQ     -0.212600
      7 CAG         0.0970    0.4120   -4.7850 ca        1 BLQ     -0.188500
      8 CAH        -0.9370   -0.3730    3.6390 c         1 BLQ      0.925800
      9 CAI        -2.6990    0.6960   -7.3270 c         1 BLQ      0.692700
     10 CAJ        -2.8320    1.7650   -9.5500 c3        1 BLQ      0.088000
     11 CAK        -2.1590   -0.3680  -10.8210 c         1 BLQ      0.632100
     12 CAL        -2.2420    1.1280  -10.8060 c3        1 BLQ     -0.201400
     13 CAM        -0.6330    0.4280   -3.5680 ca        1 BLQ      0.212600
     14 CAN        -2.0460    0.4900   -3.6280 ca        1 BLQ     -0.188500
     15 CAO        -2.6890    0.5620   -4.8550 ca        1 BLQ     -0.056500
     16 CAP        -1.9570    0.5890   -6.0500 ca        1 BLQ     -0.203600
     17 CAQ        -0.5630    0.5000   -6.0020 ca        1 BLQ     -0.056500
     18 NAR         0.0860    0.4640   -2.3570 nu        1 BLQ     -0.421700
     19 NAS        -0.5380    0.2390   -1.1950 n2        1 BLQ     -0.437400
     20 NAT        -2.1380    1.4700   -8.3330 ns        1 BLQ     -0.588900
     21 OAU         1.9450    0.3920    3.5660 o         1 BLQ     -0.506100
     22 OAV        -0.7570   -1.4620    4.2430 o         1 BLQ     -0.805300
     23 OAW        -1.7660    0.5200    3.9470 o         1 BLQ     -0.805300
     24 OAX        -1.3530   -1.0090  -11.5030 o         1 BLQ     -0.516000
     25 OAY        -3.8030    0.1420   -7.5230 o         1 BLQ     -0.632100
     26 OAZ        -3.0170   -1.1550  -10.1220 oh        1 BLQ     -0.580100
     27 HAB         2.1830   -0.3560   -0.8240 ha        1 BLQ      0.106000
     28 HAC         3.2350   -0.3040    1.4150 ha        1 BLQ      0.134000
     29 HAF        -1.7570   -0.2450    1.0730 ha        1 BLQ      0.160000
     30 HAG         1.1940    0.3320   -4.7760 ha        1 BLQ      0.152500
     31 HAJ        -3.9120    1.4500   -9.4430 h1        1 BLQ      0.063200
     32 HAJA       -2.8200    2.8840   -9.7100 h1        1 BLQ      0.063200
     33 HAL        -1.2080    1.5260  -10.9900 hc        1 BLQ      0.081700
     34 HALA       -2.8810    1.4330  -11.6790 hc        1 BLQ      0.081700
     35 HAN        -2.6460    0.4830   -2.7030 ha        1 BLQ      0.152500
     36 HAO        -3.7900    0.5950   -4.8990 ha        1 BLQ      0.139000
     37 HAQ         0.0300    0.4740   -6.9300 ha        1 BLQ      0.139000
     38 HNAR        1.0510    0.1920   -2.4540 hn        1 BLQ      0.397800
     39 HNAT       -3.5640   -0.6330   -9.5110 ho        1 BLQ      0.455000
     40 HAT2       -1.2620    1.9070   -8.1800 hn        1 BLQ      0.317500
@<TRIPOS>BOND
     1    1    2 1   
     2    1    6 1   
     3    1   19 2   
     4    2    3 2   
     5    2   27 1   
     6    3    4 1   
     7    3   28 1   
     8    4    5 1   
     9    4   21 2   
    10    5    6 2   
    11    5    8 1   
    12    6   29 1   
    13    7   13 ar  
    14    7   17 ar  
    15    7   30 1   
    16    8   22 1   
    17    8   23 1   
    18    9   16 1   
    19    9   20 1   
    20    9   25 2   
    21   10   12 1   
    22   10   20 1   
    23   10   31 1   
    24   10   32 1   
    25   11   12 1   
    26   11   24 2   
    27   11   26 1   
    28   12   33 1   
    29   12   34 1   
    30   13   14 ar  
    31   13   18 1   
    32   14   15 ar  
    33   14   35 1   
    34   15   16 ar  
    35   15   36 1   
    36   16   17 ar  
    37   17   37 1   
    38   18   19 1   
    39   18   38 1   
    40   20   40 1   
    41   26   39 1   
@<TRIPOS>SUBSTRUCTURE
     1 BLQ         1 TEMP              0 ****  ****    0 ROOT
