@<TRIPOS>MOLECULE
BLQ
   39    40     1     0     0
SMALL
bcc


@<TRIPOS>ATOM
      1 CAA         3.6750    0.4380   -0.2350 cc        1 BLQ      0.415900
      2 CAB         4.1000    1.8450   -0.3090 cc        1 BLQ     -0.222600
      3 CAC         5.3660    2.2120   -0.0690 cd        1 BLQ     -0.213200
      4 CAD         6.4200    1.2320    0.3020 c         1 BLQ      0.570500
      5 CAE         6.0480   -0.1800    0.1190 cd        1 BLQ     -0.189400
      6 CAF         4.7720   -0.5400   -0.1100 cc        1 BLQ     -0.193600
      7 CAG        -0.9490    1.2630    0.0230 ca        1 BLQ     -0.177500
      8 CAH         7.1550   -1.2400    0.1650 c         1 BLQ      0.925800
      9 CAI        -4.0140   -0.9720    0.3060 c         1 BLQ      0.661700
     10 CAJ        -6.4110   -0.4840   -0.1600 c3        1 BLQ      0.086000
     11 CAK        -8.6900    0.5910   -0.0220 c         1 BLQ      0.912600
     12 CAL        -7.1850    0.7560    0.2670 c3        1 BLQ     -0.218400
     13 CAM         0.0750    0.3100   -0.1890 ca        1 BLQ      0.167600
     14 CAN        -0.2660   -1.0600   -0.2060 ca        1 BLQ     -0.177500
     15 CAO        -1.5910   -1.4490   -0.0410 ca        1 BLQ     -0.074000
     16 CAP        -2.6040   -0.5000    0.1350 ca        1 BLQ     -0.163600
     17 CAQ        -2.2690    0.8560    0.1750 ca        1 BLQ     -0.074000
     18 NAR         1.3870    0.7820   -0.4650 nh        1 BLQ     -0.416700
     19 NAS         2.4380   -0.0180   -0.2750 n2        1 BLQ     -0.419400
     20 NAT        -4.9930   -0.2610   -0.3410 n         1 BLQ     -0.549900
     21 OAU         7.5020    1.6400    0.7420 o         1 BLQ     -0.525100
     22 OAV         7.9060   -1.3220   -0.8440 o         1 BLQ     -0.814300
     23 OAW         7.2210   -1.9680    1.1890 o         1 BLQ     -0.814300
     24 OAX        -9.0420    0.0450   -1.1080 o         1 BLQ     -0.847800
     25 OAY        -4.2580   -2.0060    0.9670 o         1 BLQ     -0.633100
     26 OAZ        -9.5000    1.0440    0.8360 o         1 BLQ     -0.847800
     27 HAB         3.3570    2.6080   -0.5930 ha        1 BLQ      0.108000
     28 HAC         5.6880    3.2630   -0.1310 ha        1 BLQ      0.128000
     29 HAF         4.5120   -1.6070   -0.2120 ha        1 BLQ      0.155000
     30 HAG        -0.7140    2.3370    0.0660 ha        1 BLQ      0.142000
     31 HAJ        -6.5560   -1.3000    0.6010 h1        1 BLQ      0.070200
     32 HAJA       -6.8340   -0.8430   -1.1450 h1        1 BLQ      0.070200
     33 HAL        -7.0370    0.9570    1.3560 hc        1 BLQ      0.025200
     34 HALA       -6.8430    1.6590   -0.3020 hc        1 BLQ      0.025200
     35 HAN         0.5100   -1.8280   -0.3490 ha        1 BLQ      0.142000
     36 HAO        -1.8560   -2.5190   -0.0390 ha        1 BLQ      0.143000
     37 HAQ        -3.0460    1.6180    0.3450 ha        1 BLQ      0.143000
     38 HNAR        1.4930    1.7600   -0.2370 hn        1 BLQ      0.386800
     39 HNAT       -4.7380    0.5840   -0.7960 hn        1 BLQ      0.295500
@<TRIPOS>BOND
     1    1    2 1   
     2    1    6 1   
     3    1   19 2   
     4    2    3 2   
     5    2   27 1   
     6    3    4 1   
     7    3   28 1   
     8    4    5 1   
     9    4   21 2   
    10    5    6 2   
    11    5    8 1   
    12    6   29 1   
    13    7   13 ar  
    14    7   17 ar  
    15    7   30 1   
    16    8   22 1   
    17    8   23 1   
    18    9   16 1   
    19    9   20 1   
    20    9   25 2   
    21   10   12 1   
    22   10   20 1   
    23   10   31 1   
    24   10   32 1   
    25   11   12 1   
    26   11   24 1   
    27   11   26 1   
    28   12   33 1   
    29   12   34 1   
    30   13   14 ar  
    31   13   18 1   
    32   14   15 ar  
    33   14   35 1   
    34   15   16 ar  
    35   15   36 1   
    36   16   17 ar  
    37   17   37 1   
    38   18   19 1   
    39   18   38 1   
    40   20   39 1   
@<TRIPOS>SUBSTRUCTURE
     1 BLQ         1 TEMP              0 ****  ****    0 ROOT
