@<TRIPOS>MOLECULE
BLQ
   40    41     1     0     0
SMALL
bcc


@<TRIPOS>ATOM
      1 CAA         0.1170   -0.2270   -0.0260 cc        1 BLQ      0.452900
      2 CAB         1.5670   -0.1880    0.2380 cc        1 BLQ     -0.245600
      3 CAC         2.0440    0.1480    1.4440 cd        1 BLQ     -0.192200
      4 CAD         1.1380    0.5230    2.5660 c         1 BLQ      0.565500
      5 CAE        -0.2590    0.0860    2.3940 cd        1 BLQ     -0.175400
      6 CAF        -0.7320   -0.2420    1.1790 cc        1 BLQ     -0.213600
      7 CAG         0.3440    0.3880   -4.6890 ca        1 BLQ     -0.185500
      8 CAH        -1.1590   -0.0230    3.6340 c         1 BLQ      0.925800
      9 CAI        -2.3020    0.5800   -7.3970 c         1 BLQ      0.690700
     10 CAJ        -2.4370    1.8310   -9.5090 c3        1 BLQ      0.102000
     11 CAK        -3.3640    0.3640  -11.3110 c         1 BLQ      0.632100
     12 CAL        -2.1210    0.7760  -10.5810 c3        1 BLQ     -0.206400
     13 CAM        -0.4340    0.0030   -3.5670 ca        1 BLQ      0.208600
     14 CAN        -1.8260   -0.1860   -3.7430 ca        1 BLQ     -0.185500
     15 CAO        -2.4020   -0.0010   -4.9910 ca        1 BLQ     -0.058000
     16 CAP        -1.6270    0.3910   -6.0920 ca        1 BLQ     -0.202600
     17 CAQ        -0.2510    0.5740   -5.9290 ca        1 BLQ     -0.058000
     18 NAR         0.2250   -0.2660   -2.3490 nh        1 BLQ     -0.417700
     19 NAS        -0.4730   -0.2430   -1.2030 n2        1 BLQ     -0.445400
     20 NAT        -1.8410    1.5870   -8.2290 n         1 BLQ     -0.580900
     21 OAU         1.5810    1.1690    3.5210 o         1 BLQ     -0.505100
     22 OAV        -0.8500   -0.9060    4.4760 o         1 BLQ     -0.804800
     23 OAW        -2.1480    0.7510    3.6950 o         1 BLQ     -0.804800
     24 OAX        -3.5770    0.4940  -12.5180 o         1 BLQ     -0.513000
     25 OAY        -3.2820   -0.1130   -7.7550 o         1 BLQ     -0.643100
     26 OAZ        -4.3780   -0.2300  -10.6270 oh        1 BLQ     -0.589100
     27 HAB         2.2560   -0.4780   -0.5700 ha        1 BLQ      0.112000
     28 HAC         3.1220    0.1700    1.6640 ha        1 BLQ      0.135000
     29 HAF        -1.7900   -0.5260    1.0560 ha        1 BLQ      0.161000
     30 HAG         1.4300    0.5380   -4.5890 ha        1 BLQ      0.152500
     31 HAJ        -2.0850    2.8370   -9.8760 h1        1 BLQ      0.062200
     32 HAJA       -3.5580    1.8840   -9.3690 h1        1 BLQ      0.062200
     33 HAL        -1.3860    1.1890  -11.3190 hc        1 BLQ      0.083200
     34 HALA       -1.6710   -0.1470  -10.1250 hc        1 BLQ      0.083200
     35 HAN        -2.4600   -0.4860   -2.8930 ha        1 BLQ      0.152500
     36 HAO        -3.4840   -0.1650   -5.1280 ha        1 BLQ      0.137000
     37 HAQ         0.3860    0.8540   -6.7820 ha        1 BLQ      0.137000
     38 HNAR        1.1740    0.0750   -2.3310 hn        1 BLQ      0.393800
     39 HNAT       -4.1490   -0.3150   -9.6840 ho        1 BLQ      0.463000
     40 HAT2       -1.0320    2.0990   -7.9770 hn        1 BLQ      0.317500
@<TRIPOS>BOND
     1    1    2 1   
     2    1    6 1   
     3    1   19 2   
     4    2    3 2   
     5    2   27 1   
     6    3    4 1   
     7    3   28 1   
     8    4    5 1   
     9    4   21 2   
    10    5    6 2   
    11    5    8 1   
    12    6   29 1   
    13    7   13 ar  
    14    7   17 ar  
    15    7   30 1   
    16    8   22 1   
    17    8   23 1   
    18    9   16 1   
    19    9   20 1   
    20    9   25 2   
    21   10   12 1   
    22   10   20 1   
    23   10   31 1   
    24   10   32 1   
    25   11   12 1   
    26   11   24 2   
    27   11   26 1   
    28   12   33 1   
    29   12   34 1   
    30   13   14 ar  
    31   13   18 1   
    32   14   15 ar  
    33   14   35 1   
    34   15   16 ar  
    35   15   36 1   
    36   16   17 ar  
    37   17   37 1   
    38   18   19 1   
    39   18   38 1   
    40   20   40 1   
    41   26   39 1   
@<TRIPOS>SUBSTRUCTURE
     1 BLQ         1 TEMP              0 ****  ****    0 ROOT
