@<TRIPOS>MOLECULE
BLQ
   41    42     1     0     0
SMALL
bcc


@<TRIPOS>ATOM
      1 CAA        -0.5160   -0.8430   -0.7990 cc        1 BLQ      0.614900
      2 CAB         0.4710    0.2350   -0.9740 cc        1 BLQ     -0.315600
      3 CAC         0.8780    0.9850    0.0600 cd        1 BLQ     -0.111200
      4 CAD         0.3790    0.7530    1.4490 c         1 BLQ      0.524500
      5 CAE        -0.7550   -0.1880    1.5600 cd        1 BLQ     -0.084400
      6 CAF        -1.1440   -0.9450    0.5120 cc        1 BLQ     -0.295600
      7 CAG         0.4450   -0.0460   -4.6580 ca        1 BLQ     -0.101000
      8 CAH        -1.5260   -0.2750    2.9090 c         1 BLQ      0.928800
      9 CAI        -1.3430    2.6100   -6.6490 c         1 BLQ      0.664700
     10 CAJ        -2.9140    1.2920   -8.0970 c3        1 BLQ      0.100000
     11 CAK        -1.1810   -0.1370   -9.2290 c         1 BLQ      0.630100
     12 CAL        -2.3990    0.7140   -9.4220 c3        1 BLQ     -0.207400
     13 CAM        -0.6150   -0.5960   -3.9170 ca        1 BLQ     -0.040400
     14 CAN        -1.9190   -0.0910   -4.0420 ca        1 BLQ     -0.101000
     15 CAO        -2.1610    0.9500   -4.9380 ca        1 BLQ     -0.073500
     16 CAP        -1.1190    1.4780   -5.7020 ca        1 BLQ     -0.085600
     17 CAQ         0.1860    0.9920   -5.5490 ca        1 BLQ     -0.073500
     18 NAR        -0.3510   -1.7380   -3.0140 n4        1 BLQ     -0.312500
     19 NAS        -0.8890   -1.7190   -1.7250 n2        1 BLQ     -0.613400
     20 NAT        -2.2690    2.4940   -7.6690 n         1 BLQ     -0.570900
     21 OAU         0.9280    1.3190    2.3940 o         1 BLQ     -0.418100
     22 OAV        -1.2440   -1.2570    3.6280 o         1 BLQ     -0.758800
     23 OAW        -2.3580    0.6410    3.0920 o         1 BLQ     -0.758800
     24 OAX        -0.9020   -0.8170   -8.2400 o         1 BLQ     -0.509000
     25 OAY        -0.7210    3.6810   -6.5210 o         1 BLQ     -0.570100
     26 OAZ        -0.2570   -0.2290  -10.2280 oh        1 BLQ     -0.571100
     27 HAB         0.8530    0.4350   -1.9890 ha        1 BLQ      0.125000
     28 HAC         1.6110    1.8020   -0.0620 ha        1 BLQ      0.161000
     29 HAF        -1.9680   -1.6690    0.6430 ha        1 BLQ      0.183000
     30 HAG         1.4760   -0.4210   -4.5550 ha        1 BLQ      0.165000
     31 HAJ        -4.0120    1.5220   -8.2340 h1        1 BLQ      0.072700
     32 HAJA       -2.8160    0.4960   -7.3030 h1        1 BLQ      0.072700
     33 HAL        -2.1940    1.5280  -10.1650 hc        1 BLQ      0.084200
     34 HALA       -3.2030    0.0550   -9.8500 hc        1 BLQ      0.084200
     35 HAN        -2.7510   -0.4990   -3.4420 ha        1 BLQ      0.165000
     36 HAO        -3.1820    1.3560   -5.0300 ha        1 BLQ      0.169500
     37 HAQ         1.0090    1.4350   -6.1330 ha        1 BLQ      0.169500
     38 HNAR        0.6700   -1.8970   -2.9970 hn        1 BLQ      0.449800
     39 HNAT       -0.5260    0.3090  -10.9860 ho        1 BLQ      0.431000
     40 HAR2       -0.8030   -2.5700   -3.4390 hn        1 BLQ      0.449800
     41 HAT2       -2.3620    3.2890   -8.2650 hn        1 BLQ      0.325500
@<TRIPOS>BOND
     1    1    2 1   
     2    1    6 1   
     3    1   19 2   
     4    2    3 2   
     5    2   27 1   
     6    3    4 1   
     7    3   28 1   
     8    4    5 1   
     9    4   21 2   
    10    5    6 2   
    11    5    8 1   
    12    6   29 1   
    13    7   13 ar  
    14    7   17 ar  
    15    7   30 1   
    16    8   22 1   
    17    8   23 1   
    18    9   16 1   
    19    9   20 1   
    20    9   25 2   
    21   10   12 1   
    22   10   20 1   
    23   10   31 1   
    24   10   32 1   
    25   11   12 1   
    26   11   24 2   
    27   11   26 1   
    28   12   33 1   
    29   12   34 1   
    30   13   14 ar  
    31   13   18 1   
    32   14   15 ar  
    33   14   35 1   
    34   15   16 ar  
    35   15   36 1   
    36   16   17 ar  
    37   17   37 1   
    38   18   19 1   
    39   18   38 1   
    40   18   40 1   
    41   20   41 1   
    42   26   39 1   
@<TRIPOS>SUBSTRUCTURE
     1 BLQ         1 TEMP              0 ****  ****    0 ROOT
