@<TRIPOS>MOLECULE
BLQ
   39    33     1     0     0
SMALL
bcc


@<TRIPOS>ATOM
      1 CAA         1.5520   -0.3040    3.7690 c1        1 BLQ     -0.053000
      2 CAB         2.9860   -0.1480    4.2020 c1        1 BLQ     -0.143500
      3 CAC         3.4050   -0.5430    5.6140 c1        1 BLQ     -0.143500
      4 CAD         2.3790   -1.0940    6.5820 c1        1 BLQ      0.293000
      5 CAE         0.9220   -1.1920    6.1690 c2        1 BLQ     -0.125000
      6 CAF         0.5040   -0.7860    4.7650 c2        1 BLQ     -0.171000
      7 CAG        -0.8130    1.4870    0.4490 c1        1 BLQ     -0.163000
      8 CAH        -0.1370   -1.5700    7.2000 c2        1 BLQ      0.372000
      9 CAI        -1.4640    1.2240   -3.3090 c1        1 BLQ      0.336000
     10 CAJ        -1.5990    0.5720   -5.7350 c3        1 BLQ     -0.026000
     11 CAK        -0.4150    0.6040   -7.9430 c1        1 BLQ      0.333000
     12 CAL        -0.3680    0.0700   -6.5120 c2        1 BLQ     -0.246000
     13 CAM        -0.4950    0.1770    0.7680 c1        1 BLQ      0.094000
     14 CAN        -0.4760   -0.7940   -0.2240 c1        1 BLQ     -0.143500
     15 CAO        -0.7750   -0.4540   -1.5330 c1        1 BLQ     -0.143500
     16 CAP        -1.0930    0.8520   -1.8530 c1        1 BLQ     -0.146000
     17 CAQ        -1.1120    1.8270   -0.8570 c1        1 BLQ     -0.065000
     18 NAR        -0.1150   -0.1630    2.1150 n3        1 BLQ     -0.215000
     19 NAS         1.2020   -0.0200    2.5160 n2        1 BLQ     -0.058000
     20 NAT        -1.4780    0.1940   -4.3430 n2        1 BLQ     -0.362000
     21 OAU         2.7160   -1.4190    7.7080 o         1 BLQ     -0.287000
     22 OAV        -0.6210   -2.7400    7.2100 o         1 BLQ     -0.548500
     23 OAW        -0.4840   -0.7390    8.0770 o         1 BLQ     -0.548500
     24 OAX        -0.5480   -0.1930   -8.9060 o         1 BLQ     -0.582000
     25 OAY        -1.6680    2.3720   -3.6030 o         1 BLQ     -0.401000
     26 OAZ        -0.2210    1.8370   -8.1640 o         1 BLQ     -0.582000
     27 HAB         3.6460    0.1900    3.5770 ha        1 BLQ      0.131250
     28 HAC         4.3480   -0.4310    5.9020 ha        1 BLQ      0.131250
     29 HAF        -0.4450   -0.8890    4.4790 ha        1 BLQ      0.139000
     30 HAG        -0.8260    2.1780    1.1550 ha        1 BLQ      0.150000
     31 HAJ        -1.6530    1.5490   -5.8040 h1        1 BLQ      0.107000
     32 HAJA       -2.4040    0.1750   -6.1100 h1        1 BLQ      0.107000
     33 HAL         0.4510    0.3880   -6.0710 ha        1 BLQ      0.064500
     34 HALA       -0.3710   -0.9020   -6.5290 ha        1 BLQ      0.064500
     35 HAN        -0.2530   -1.7120   -0.0010 ha        1 BLQ      0.131250
     36 HAO        -0.7160   -1.1230   -2.2330 ha        1 BLQ      0.131250
     37 HAQ        -1.3360    2.7510   -1.0820 ha        1 BLQ      0.149000
     38 HNAR       -0.7120   -0.5520    2.6650 hn        1 BLQ      0.208000
     39 HNAT       -1.5130   -0.6780   -4.1100 hn        1 BLQ      0.212000
@<TRIPOS>BOND
     1    1    6 1   
     2    1   19 1   
     3    2    3 1   
     4    2   27 1   
     5    3   28 1   
     6    4    5 1   
     7    4   21 1   
     8    5    6 1   
     9    5    8 1   
    10    6   29 1   
    11    7   13 1   
    12    7   30 1   
    13    8   22 1   
    14    8   23 1   
    15    9   16 1   
    16    9   25 1   
    17   10   12 1   
    18   10   20 1   
    19   10   31 1   
    20   10   32 1   
    21   11   24 1   
    22   11   26 1   
    23   12   33 1   
    24   12   34 1   
    25   13   18 1   
    26   14   15 1   
    27   14   35 1   
    28   15   36 1   
    29   16   17 1   
    30   17   37 1   
    31   18   19 1   
    32   18   38 1   
    33   20   39 1   
@<TRIPOS>SUBSTRUCTURE
     1 BLQ         1 TEMP              0 ****  ****    0 ROOT
