@<TRIPOS>MOLECULE
BLR
   77    78     1     0     0
SMALL
bcc


@<TRIPOS>ATOM
      1 CHA         0.8290   -0.2600   -0.1190 c3        1 BLR     -0.083000
      2 NA          3.0310   -0.2740    1.0740 n2        1 BLR     -0.173000
      3 C1A         2.2990   -0.6980   -0.1260 c3        1 BLR     -0.001000
      4 C2A         3.1090   -0.1170   -1.3250 c2        1 BLR     -0.015000
      5 C3A         4.2120    0.5350   -0.7740 c2        1 BLR     -0.332000
      6 C4A         4.1080    0.3870    0.6930 c2        1 BLR      0.056000
      7 CMA         5.2940    1.2150   -1.4760 c3        1 BLR     -0.103000
      8 CAA         2.8510   -0.4410   -2.5990 c1        1 BLR     -0.084000
      9 CBA         2.3480   -0.2070   -3.8810 c3        1 BLR     -0.180000
     10 CGA         0.8820   -0.7790   -3.9920 c2        1 BLR      0.366000
     11 O1A        -0.0610   -0.0450   -3.5880 o         1 BLR     -0.534500
     12 O2A         0.7200   -1.9150   -4.4970 o         1 BLR     -0.534500
     13 CHB         5.1130    0.9310    1.5820 c2        1 BLR     -0.147000
     14 NB          3.9500    0.7780    3.7970 n         1 BLR     -0.293000
     15 C1B         5.0210    1.0650    2.9240 c2        1 BLR      0.063000
     16 C2B         6.1140    1.6980    3.7440 c2        1 BLR     -0.071000
     17 C3B         5.6920    1.7700    5.0290 c2        1 BLR     -0.223000
     18 C4B         4.3060    1.1710    5.1040 c2        1 BLR      0.325000
     19 CMB         7.3860    2.1380    3.1660 c3        1 BLR     -0.168000
     20 OB          3.6020    1.1080    6.1200 o         1 BLR     -0.331000
     21 CAB         3.3750   -2.4840    8.3120 c1        1 BLR     -0.030000
     22 CBB         3.0120   -2.0160    7.1720 c2        1 BLR     -0.541000
     23 NC         -2.2450   -2.2970   -4.1470 n         1 BLR     -0.297000
     24 C1C        -2.7770   -2.4300   -5.4420 c2        1 BLR      0.327000
     25 C2C        -3.6100   -3.6950   -5.5060 cx        1 BLR     -0.212000
     26 C3C        -3.5040   -4.3190   -4.1100 cx        1 BLR     -0.117000
     27 C4C        -2.6010   -3.3860   -3.3240 c2        1 BLR      0.051000
     28 CAC        -4.6320   -4.9610   -3.3790 c3        1 BLR     -0.213000
     29 CBC        -5.7230   -5.5370   -4.1220 c1        1 BLR     -0.070000
     30 ND         -0.7310   -1.8250   -1.3230 na        1 BLR     -0.117000
     31 C1D        -1.5200   -2.9120   -1.0760 c2        1 BLR      0.024000
     32 C2D        -1.4310   -3.2320    0.3430 c2        1 BLR     -0.237000
     33 C3D        -0.4920   -2.2740    0.9060 c2        1 BLR      0.023000
     34 C4D        -0.0860   -1.4250   -0.1370 c2        1 BLR     -0.144000
     35 CGD         1.8080   -2.7180    3.9350 c2        1 BLR      0.331000
     36 O1D         2.0710   -1.5200    4.2610 o         1 BLR     -0.600000
     37 O2D         2.0720   -3.6820    4.7200 o         1 BLR     -0.600000
     38 H1          0.6040    0.3340    0.8100 hc        1 BLR      0.115000
     39 H2          0.6410    0.4090   -1.0040 hc        1 BLR      0.115000
     40 H3          2.3690   -1.8240   -0.1840 h1        1 BLR      0.148000
     41 H4          6.2450    0.6240   -1.4290 hc        1 BLR      0.049333
     42 H5          5.0380    1.3710   -2.5540 hc        1 BLR      0.049333
     43 H6          5.4950    2.2180   -1.0170 hc        1 BLR      0.049333
     44 H7         -0.5700   -0.0020   -6.5960 ha        1 BLR      0.002000
     45 H8         -0.6210   -0.3350   -6.0070 ha        1 BLR      0.002000
     46 H9          2.2750    0.8830   -4.1490 hc        1 BLR      0.102000
     47 H10         2.9510   -0.7510   -4.6590 hc        1 BLR      0.102000
     48 H12         6.0360    1.2660    1.0810 ha        1 BLR      0.126000
     49 H13         3.2370    0.0860    3.6120 hn        1 BLR      0.336000
     50 H14         7.9080    1.2770    2.6770 hc        1 BLR      0.081667
     51 H15         7.2100    2.9250    2.3890 hc        1 BLR      0.081667
     52 H16         8.0580    2.5600    3.9540 hc        1 BLR      0.081667
     53 H17         6.1930    2.1580    5.9110 ha        1 BLR      0.150000
     54 H18         2.6760   -2.6730    6.3030 ha        1 BLR      0.269000
     55 H19         2.9460   -0.9790    6.7960 ha        1 BLR      0.269000
     56 H20        -1.4250   -1.7320   -4.0000 hn        1 BLR      0.306000
     57 H21        -1.7480   -4.9770   -5.3830 hc        1 BLR      0.121500
     58 H22        -3.3010   -5.9090   -5.6900 hc        1 BLR      0.121500
     59 H23        -4.5240   -3.6460   -6.1100 hc        1 BLR      0.145000
     60 H24        -4.2260   -5.7860   -2.7140 hc        1 BLR      0.167000
     61 H25        -5.0960   -4.2120   -2.6630 hc        1 BLR      0.167000
     62 H26        -5.6790   -5.4590   -5.2210 ha        1 BLR      0.030000
     63 H27        -2.7600   -4.5500   -1.5870 ha        1 BLR      0.143000
     64 H28        -0.6200   -1.3420   -2.1880 hn        1 BLR      0.285000
     65 H29        -0.5170   -5.6890    1.7560 ha        1 BLR      0.002000
     66 H30        -0.6140   -6.1750    1.2900 ha        1 BLR      0.002000
     67 H31        -2.7450   -4.8910    0.4700 ha        1 BLR     -0.002000
     68 H32         0.1500   -1.1510    2.6060 hc        1 BLR      0.105500
     69 H33        -0.8870   -2.6100    2.9620 hc        1 BLR      0.105500
     70 H34         1.9690   -2.8080    1.7940 hc        1 BLR      0.075500
     71 H35         0.9550   -4.1260    2.5180 hc        1 BLR      0.075500
     72 CMD        -2.1230   -4.1890    1.0540 c1        1 BLR     -0.134000
     73 CHD        -2.3190   -3.6340   -2.0250 c2        1 BLR     -0.169000
     74 CMC        -2.8510   -4.9760   -5.3020 cx        1 BLR     -0.169000
     75 CAD        -0.0570   -2.2180    2.3130 c3        1 BLR     -0.104000
     76 OC         -2.6440   -1.6150   -6.3630 o         1 BLR     -0.327000
     77 CBD         1.1960   -3.0340    2.5720 c3        1 BLR     -0.195000
@<TRIPOS>BOND
     1    1    3 1   
     2    1   34 1   
     3    1   38 1   
     4    1   39 1   
     5    2    3 1   
     6    2    6 1   
     7    3    4 1   
     8    3   40 1   
     9    4    5 1   
    10    4    8 1   
    11    5    6 1   
    12    5    7 1   
    13    6   13 1   
    14    7   41 1   
    15    7   42 1   
    16    7   43 1   
    17    8    9 1   
    18    9   10 1   
    19    9   46 1   
    20    9   47 1   
    21   10   11 1   
    22   10   12 1   
    23   13   15 1   
    24   13   48 1   
    25   14   15 1   
    26   14   18 1   
    27   14   49 1   
    28   15   16 1   
    29   16   17 1   
    30   16   19 1   
    31   17   18 1   
    32   17   53 1   
    33   18   20 1   
    34   19   50 1   
    35   19   51 1   
    36   19   52 1   
    37   21   22 1   
    38   22   54 1   
    39   22   55 1   
    40   23   24 1   
    41   23   27 1   
    42   23   56 1   
    43   24   25 1   
    44   24   76 1   
    45   25   26 1   
    46   25   59 1   
    47   25   74 1   
    48   26   27 1   
    49   26   28 1   
    50   26   74 1   
    51   27   73 1   
    52   28   29 1   
    53   28   60 1   
    54   28   61 1   
    55   29   62 1   
    56   30   31 1   
    57   30   34 1   
    58   30   64 1   
    59   31   32 1   
    60   31   73 1   
    61   32   33 1   
    62   32   72 1   
    63   33   34 1   
    64   33   75 1   
    65   35   36 1   
    66   35   37 1   
    67   35   77 1   
    68   44   45 1   
    69   57   74 1   
    70   58   74 1   
    71   63   73 1   
    72   65   66 1   
    73   67   72 1   
    74   68   75 1   
    75   69   75 1   
    76   70   77 1   
    77   71   77 1   
    78   75   77 1   
@<TRIPOS>SUBSTRUCTURE
     1 BLR         1 TEMP              0 ****  ****    0 ROOT
