@<TRIPOS>MOLECULE
BLR
   77    75     1     0     0
SMALL
bcc


@<TRIPOS>ATOM
      1 CHA         0.2930    1.5670    1.0070 c1        1 BLR     -0.177000
      2 NA          2.7200    1.3150    1.5880 na        1 BLR     -0.130000
      3 C1A         1.5980    1.2570    0.7080 c2        1 BLR     -0.172000
      4 C2A         2.0830    0.7560   -0.5600 c2        1 BLR      0.059000
      5 C3A         3.4750    0.5480   -0.4320 c2        1 BLR     -0.200000
      6 C4A         3.8300    0.8650    0.9290 c2        1 BLR      0.027000
      7 CMA         4.3940    0.0480   -1.4560 c3        1 BLR     -0.140000
      8 CAA         1.1700    0.3760   -1.6450 c3        1 BLR     -0.124000
      9 CBA         1.5000    0.8030   -3.0530 c3        1 BLR     -0.210000
     10 CGA         0.5890    0.0780   -4.0530 c2        1 BLR      0.347000
     11 O1A         0.8560    0.1660   -5.2810 o         1 BLR     -0.605500
     12 O2A        -0.4030   -0.5940   -3.6150 o         1 BLR     -0.605500
     13 CHB         5.1640    0.7420    1.4560 c2        1 BLR     -0.131000
     14 NB          4.8150    0.5210    3.9260 ns        1 BLR     -0.307000
     15 C1B         5.5690    0.5980    2.7360 c2        1 BLR      0.021000
     16 C2B         7.0280    0.5400    3.1200 c2        1 BLR     -0.158000
     17 C3B         7.0910    0.4090    4.4820 c2        1 BLR     -0.090000
     18 C4B         5.6810    0.3860    5.0240 c2        1 BLR      0.302000
     19 CMB         8.1390    0.6020    2.2580 c1        1 BLR     -0.046000
     20 OB          5.3560    0.2910    6.2150 o         1 BLR     -0.324000
     21 CAB         1.5790    0.7630    8.3380 c1        1 BLR      0.014000
     22 CBB         2.0780    0.4230    7.1990 c2        1 BLR     -0.540000
     23 NC         -2.7080   -2.4780   -3.8860 ns        1 BLR     -0.297000
     24 C1C        -3.3300   -2.7330   -5.1410 c2        1 BLR      0.302000
     25 C2C        -3.4110   -4.2300   -5.3290 c2        1 BLR     -0.275000
     26 C3C        -2.7910   -4.8110   -4.2200 c2        1 BLR      0.168000
     27 C4C        -2.3580   -3.7220   -3.3000 c2        1 BLR     -0.022000
     28 CAC        -2.5800   -6.2070   -3.9630 c2        1 BLR     -0.181000
     29 CBC        -2.8900   -7.1750   -4.8380 c2        1 BLR     -0.132000
     30 ND         -1.3610   -1.6980   -1.0810 na        1 BLR     -0.087000
     31 C1D        -1.5260   -3.0590   -1.0020 c2        1 BLR     -0.034000
     32 C2D        -1.3170   -3.4700    0.3870 c2        1 BLR     -0.218000
     33 C3D        -0.9890   -2.2560    1.1050 c2        1 BLR     -0.013000
     34 C4D        -1.0350   -1.2000    0.1770 c2        1 BLR     -0.172000
     35 CGD         0.9940   -0.8310    4.0070 c2        1 BLR      0.336000
     36 O1D         1.8950    0.0810    4.0410 o         1 BLR     -0.610500
     37 O2D         0.3220   -1.0940    5.0430 o         1 BLR     -0.610500
     38 H1          0.0270    1.9900    1.9820 ha        1 BLR      0.069000
     39 H2         -0.8350   -0.1240    0.3270 h4        1 BLR      0.232000
     40 H3          2.6020    1.3630    2.5840 hn        1 BLR      0.293000
     41 H4          3.8720   -0.6960   -2.1110 hc        1 BLR      0.073333
     42 H5          4.7570    0.8850   -2.1050 hc        1 BLR      0.073333
     43 H6          5.2830   -0.4530   -0.9980 hc        1 BLR      0.073333
     44 H7          1.1220   -0.7530   -1.6310 hc        1 BLR      0.115500
     45 H8          0.1370    0.7540   -1.4000 hc        1 BLR      0.115500
     46 H9          1.3510    1.9050   -3.1760 hc        1 BLR      0.072500
     47 H10         2.5650    0.5740   -3.3080 hc        1 BLR      0.072500
     48 H12         5.9470    0.7570    0.6740 ha        1 BLR      0.139000
     49 H13         3.8380    0.2750    3.9660 hn        1 BLR      0.326000
     50 H14         7.4200   -1.0100    0.7630 ha        1 BLR      0.005833
     51 H15         7.9550   -1.3060    1.0630 ha        1 BLR      0.005833
     52 H16         8.0520    1.2220    1.3540 ha        1 BLR      0.060000
     53 H17         7.9650    0.3470    5.1290 ha        1 BLR      0.168000
     54 H18         1.4320    0.0510    6.3440 ha        1 BLR      0.251500
     55 H19         3.1280    0.4260    6.8660 ha        1 BLR      0.251500
     56 H20        -2.1010   -1.6810   -3.7950 hn        1 BLR      0.300000
     57 H21        -2.1950   -5.2850   -7.9330 ha        1 BLR      0.005833
     58 H22        -4.3620   -4.2720   -7.2310 ha        1 BLR      0.058000
     59 H23        -2.2220   -5.8550   -7.5640 ha        1 BLR      0.005833
     60 H24        -2.1280   -6.4680   -2.9890 ha        1 BLR      0.133000
     61 H25        -2.7200   -8.2330   -4.6020 ha        1 BLR      0.137500
     62 H26        -3.3430   -6.9500   -5.8220 ha        1 BLR      0.137500
     63 H27        -1.7120   -5.0220   -1.7610 ha        1 BLR      0.143000
     64 H28        -1.2790   -1.1510   -1.9240 hn        1 BLR      0.313000
     65 H29        -1.6770   -5.5580    0.2650 ha        1 BLR      0.002000
     66 H30        -0.8180   -7.0620   -1.0540 ha        1 BLR      0.005833
     67 H31        -0.8860   -7.5900   -1.4720 ha        1 BLR      0.005833
     68 H32        -1.3560   -1.4450    3.0440 hc        1 BLR      0.107500
     69 H33        -0.7080   -3.1340    3.0260 hc        1 BLR      0.107500
     70 H34         1.0120   -0.8770    1.8560 hc        1 BLR      0.080500
     71 H35         1.5180   -2.4170    2.6610 hc        1 BLR      0.080500
     72 CMD        -1.4030   -4.7290    0.9410 c1        1 BLR     -0.142000
     73 CHD        -1.8610   -3.9640   -2.0580 c2        1 BLR     -0.061000
     74 CMC        -4.0090   -4.8910   -6.3930 c1        1 BLR     -0.153000
     75 CAD        -0.6280   -2.1300    2.5280 c3        1 BLR     -0.098000
     76 OC         -3.7770   -1.8630   -5.8980 o         1 BLR     -0.331000
     77 CBD         0.7760   -1.5790    2.7000 c3        1 BLR     -0.205000
@<TRIPOS>BOND
     1    1    3 1   
     2    1   38 1   
     3    2    3 1   
     4    2    6 1   
     5    2   40 1   
     6    3    4 1   
     7    4    5 1   
     8    4    8 1   
     9    5    6 1   
    10    5    7 1   
    11    6   13 1   
    12    7   41 1   
    13    7   42 1   
    14    7   43 1   
    15    8    9 1   
    16    8   44 1   
    17    8   45 1   
    18    9   10 1   
    19    9   46 1   
    20    9   47 1   
    21   10   11 1   
    22   10   12 1   
    23   13   15 1   
    24   13   48 1   
    25   14   15 1   
    26   14   18 1   
    27   14   49 1   
    28   15   16 1   
    29   16   17 1   
    30   16   19 1   
    31   17   18 1   
    32   17   53 1   
    33   18   20 1   
    34   19   52 1   
    35   21   22 1   
    36   22   54 1   
    37   22   55 1   
    38   23   24 1   
    39   23   27 1   
    40   23   56 1   
    41   24   25 1   
    42   24   76 1   
    43   25   26 1   
    44   25   74 1   
    45   26   27 1   
    46   26   28 1   
    47   27   73 1   
    48   28   29 1   
    49   28   60 1   
    50   29   61 1   
    51   29   62 1   
    52   30   31 1   
    53   30   34 1   
    54   30   64 1   
    55   31   32 1   
    56   31   73 1   
    57   32   33 1   
    58   32   72 1   
    59   33   34 1   
    60   33   75 1   
    61   34   39 1   
    62   35   36 1   
    63   35   37 1   
    64   35   77 1   
    65   50   51 1   
    66   57   59 1   
    67   58   74 1   
    68   63   73 1   
    69   65   72 1   
    70   66   67 1   
    71   68   75 1   
    72   69   75 1   
    73   70   77 1   
    74   71   77 1   
    75   75   77 1   
@<TRIPOS>SUBSTRUCTURE
     1 BLR         1 TEMP              0 ****  ****    0 ROOT
