@<TRIPOS>MOLECULE
BLS
   59    60     1     0     0
SMALL
bcc


@<TRIPOS>ATOM
      1 O4          0.0000    0.0000    0.0000 o         1 BLS     -0.749300
      2 N1          5.5760   -0.8630    1.9700 n         1 BLS      0.072000
      3 C2          6.2280    0.2720    1.6530 c         1 BLS      0.694900
      4 O2          5.6010    1.3120    1.5430 o         1 BLS     -0.621500
      5 N3          7.5460    0.2780    1.4680 nc        1 BLS     -0.491100
      6 C4          8.2520   -0.8400    1.5810 cd        1 BLS      0.493500
      7 N4          9.6120   -0.8220    1.3810 nv        1 BLS     -0.212800
      8 C5          7.5980   -2.0460    1.9060 cd        1 BLS     -0.330600
      9 C6          6.2580   -2.0350    2.0970 cc        1 BLS     -0.055400
     10 C1'         4.1260   -0.8360    2.1740 c3        1 BLS      0.242700
     11 C2'         3.8110    0.0000    3.3810 c2        1 BLS     -0.073200
     12 C3'         2.7810    0.7980    3.4260 c2        1 BLS     -0.221200
     13 C4'         1.8430    0.9240    2.2540 c3        1 BLS      0.014700
     14 C5'         2.0950   -0.2340    1.2830 c3        1 BLS      0.066100
     15 O5'         3.4980   -0.3040    1.0100 os        1 BLS     -0.285600
     16 O3          1.9460    0.1870   -1.0300 o         1 BLS     -0.749300
     17 C6'         1.3410    0.0000    0.0000 c         1 BLS      0.933600
     18 N6          0.4570    0.8720    2.7270 ny        1 BLS      0.045200
     19 C7         -0.1490    1.9960    3.1620 c         1 BLS      0.399100
     20 O7          0.4530    3.0480    3.1600 o         1 BLS     -0.505100
     21 C8         -1.5740    1.9420    3.6480 c3        1 BLS     -0.123400
     22 C9         -2.0170    3.3420    4.0810 c3        1 BLS     -0.039500
     23 N9         -2.0390    4.2320    2.9120 nz        1 BLS      0.042400
     24 C10        -3.4180    3.2670    4.6900 c3        1 BLS     -0.064400
     25 C11        -3.8120    4.6410    5.2350 c3        1 BLS      0.004800
     26 N12        -5.1540    4.5700    5.8190 nx        1 BLS      0.008600
     27 C13        -5.3190    4.2330    7.2350 c3        1 BLS      0.027100
     28 C14        -6.2580    4.8190    5.0380 c2        1 BLS     -0.113900
     29 N14        -6.1020    5.1350    3.7090 n2        1 BLS     -0.449100
     30 N15        -7.4500    4.7550    5.5570 nz        1 BLS      0.259400
     31 HN41       10.2230   -0.5490    2.1260 hn        1 BLS      0.293300
     32 HN42        9.9930   -1.1030    0.4990 hn        1 BLS      0.293300
     33 H5          8.1770   -2.9200    2.1790 ha        1 BLS      0.157000
     34 H6          5.7160   -2.9690    2.1910 h4        1 BLS      0.151000
     35 H1'         3.7670   -1.8450    2.3390 h2        1 BLS      0.044700
     36 H2'         4.4610   -0.0640    4.2450 ha        1 BLS      0.130000
     37 H3'         2.5970    1.3820    4.3200 ha        1 BLS      0.114000
     38 H4'         2.0230    1.8640    1.7480 hx        1 BLS      0.120700
     39 H5'         1.7700   -1.1620    1.7370 h1        1 BLS      0.023700
     40 HN6        -0.0960    0.5170    1.9720 hn        1 BLS      0.288300
     41 H81        -1.6430    1.2650    4.4910 hc        1 BLS      0.090700
     42 H82        -2.2150    1.5910    2.8490 hc        1 BLS      0.090700
     43 H9         -1.3230    3.7290    4.8170 hx        1 BLS      0.117700
     44 HN91       -1.1860    4.1290    2.3980 hn        1 BLS      0.248467
     45 HN92       -2.8130    3.9920    2.3240 hn        1 BLS      0.248467
     46 H101       -3.4230    2.5440    5.4970 hc        1 BLS      0.071200
     47 H102       -4.1280    2.9640    3.9300 hc        1 BLS      0.071200
     48 H111       -3.8070    5.3640    4.4290 hx        1 BLS      0.083200
     49 H112       -3.1030    4.9440    5.9960 hx        1 BLS      0.083200
     50 H131       -6.0660    4.8820    7.6760 hx        1 BLS      0.085367
     51 H132       -5.6380    3.2020    7.3260 hx        1 BLS      0.085367
     52 H133       -4.3750    4.3660    7.7500 hx        1 BLS      0.085367
     53 HN14       -5.1870    5.1840    3.3080 hn        1 BLS      0.335400
     54 H151       -8.1340    4.9150    4.8440 hn        1 BLS      0.227800
     55 H152       -7.5930    3.8490    5.9580 hn        1 BLS      0.227800
     56 H62         0.4310    0.2170    3.4840 hn        1 BLS      0.288300
     57 H93        -2.1330    5.1800    3.2160 hn        1 BLS      0.248467
     58 H121       -5.1040    5.5420    6.0510 hn        1 BLS      0.246800
     59 H153       -7.5420    5.4520    6.2700 hn        1 BLS      0.227800
@<TRIPOS>BOND
     1    1   17 1   
     2    2    3 1   
     3    2    9 1   
     4    2   10 1   
     5    3    4 2   
     6    3    5 1   
     7    5    6 2   
     8    6    7 1   
     9    6    8 1   
    10    7   31 1   
    11    7   32 1   
    12    8    9 2   
    13    8   33 1   
    14    9   34 1   
    15   10   11 1   
    16   10   15 1   
    17   10   35 1   
    18   11   12 2   
    19   11   36 1   
    20   12   13 1   
    21   12   37 1   
    22   13   14 1   
    23   13   18 1   
    24   13   38 1   
    25   14   15 1   
    26   14   17 1   
    27   14   39 1   
    28   16   17 1   
    29   18   19 1   
    30   18   40 1   
    31   18   56 1   
    32   19   20 2   
    33   19   21 1   
    34   21   22 1   
    35   21   41 1   
    36   21   42 1   
    37   22   23 1   
    38   22   24 1   
    39   22   43 1   
    40   23   44 1   
    41   23   45 1   
    42   23   57 1   
    43   24   25 1   
    44   24   46 1   
    45   24   47 1   
    46   25   26 1   
    47   25   48 1   
    48   25   49 1   
    49   26   27 1   
    50   26   28 1   
    51   26   58 1   
    52   27   50 1   
    53   27   51 1   
    54   27   52 1   
    55   28   29 2   
    56   28   30 1   
    57   29   53 1   
    58   30   54 1   
    59   30   55 1   
    60   30   59 1   
@<TRIPOS>SUBSTRUCTURE
     1 BLS         1 TEMP              0 ****  ****    0 ROOT
