@<TRIPOS>MOLECULE
BLS
   55    56     1     0     0
SMALL
bcc


@<TRIPOS>ATOM
      1 O4          0.4640   -0.7830    3.3810 o         1 BLS     -0.818300
      2 N1          4.6010    1.0150    0.4880 n         1 BLS     -0.384000
      3 C2          5.5440    1.5550   -0.4600 c         1 BLS      0.828900
      4 O2          5.5110    2.7880   -0.6800 o         1 BLS     -0.660500
      5 N3          6.4570    0.7130   -1.1090 nc        1 BLS     -0.741100
      6 C4          6.4700   -0.5940   -0.7810 cd        1 BLS      0.725500
      7 N4          7.4280   -1.4350   -1.3530 nh        1 BLS     -0.901800
      8 C5          5.5570   -1.1560    0.1940 cd        1 BLS     -0.461600
      9 C6          4.6500   -0.3140    0.8010 cc        1 BLS      0.079600
     10 C1'         3.6460    1.9440    1.1260 c3        1 BLS      0.341700
     11 C2'         2.6600    2.4980    0.1340 c2        1 BLS     -0.225200
     12 C3'         1.4700    1.9190   -0.0410 c2        1 BLS     -0.133200
     13 C4'         1.1590    0.6810    0.7490 c3        1 BLS      0.110900
     14 C5'         1.7160    0.8550    2.1870 c3        1 BLS     -0.004900
     15 O5'         3.0540    1.3390    2.2650 os        1 BLS     -0.394600
     16 O3          2.6050   -1.2860    2.9580 o         1 BLS     -0.818300
     17 C6'         1.6100   -0.5180    2.9170 c         1 BLS      0.918600
     18 N6         -0.2460    0.3270    0.8050 n         1 BLS     -0.534900
     19 C7         -0.9860    0.0350   -0.3110 c         1 BLS      0.649100
     20 O7         -0.5910    0.2870   -1.4750 o         1 BLS     -0.662100
     21 C8         -2.3690   -0.5620   -0.0990 c3        1 BLS     -0.194400
     22 C9         -3.4620    0.4780   -0.4120 c3        1 BLS      0.175500
     23 N9         -3.4160    1.0330   -1.7520 n3        1 BLS     -0.907800
     24 C10        -4.8190   -0.1680   -0.0930 c3        1 BLS     -0.106400
     25 C11        -5.9360    0.8710   -0.1260 c3        1 BLS      0.177800
     26 N12        -7.2660    0.4170    0.2600 nh        1 BLS     -0.710600
     27 C13        -7.4010    0.1470    1.6760 c3        1 BLS      0.172100
     28 C14        -7.8200   -0.6090   -0.6140 c2        1 BLS      0.744100
     29 N14        -8.0840   -1.8100   -0.1650 n2        1 BLS     -0.863100
     30 N15        -8.0310   -0.1980   -1.9720 nh        1 BLS     -0.927800
     31 HN41        7.1690   -2.3930   -1.3840 hn        1 BLS      0.406300
     32 HN42        7.9060   -1.0980   -2.1560 hn        1 BLS      0.406300
     33 H5          5.5890   -2.2160    0.4650 ha        1 BLS      0.154000
     34 H6          3.9310   -0.6860    1.5820 h4        1 BLS      0.251000
     35 H1'         4.2750    2.7860    1.5590 h2        1 BLS      0.089700
     36 H2'         3.0090    3.3750   -0.4290 ha        1 BLS      0.154000
     37 H3'         0.7190    2.2850   -0.7550 ha        1 BLS      0.150000
     38 H4'         1.7290   -0.1720    0.2600 h1        1 BLS      0.068700
     39 H5'         1.0960    1.6150    2.7430 h1        1 BLS      0.056700
     40 HN6        -0.5450   -0.0350    1.6970 hn        1 BLS      0.361500
     41 H81        -2.5060   -0.9360    0.9480 hc        1 BLS      0.070200
     42 H82        -2.4630   -1.4380   -0.7910 hc        1 BLS      0.070200
     43 H9         -3.3140    1.3490    0.2970 h1        1 BLS      0.061700
     44 HN91       -2.5050    1.4230   -1.9250 hn        1 BLS      0.357800
     45 HN92       -3.5800    0.3120   -2.4290 hn        1 BLS      0.357800
     46 H101       -4.7580   -0.6290    0.9280 hc        1 BLS      0.052200
     47 H102       -5.0390   -0.9900   -0.8220 hc        1 BLS      0.052200
     48 H111       -6.0000    1.3090   -1.1620 h1        1 BLS      0.062700
     49 H112       -5.6680    1.7140    0.5740 h1        1 BLS      0.062700
     50 H131       -7.0980    1.0750    2.2300 h1        1 BLS      0.041700
     51 H132       -8.4740   -0.0800    1.9080 h1        1 BLS      0.041700
     52 H133       -6.7680   -0.7090    2.0340 h1        1 BLS      0.041700
     53 HN14       -8.5310   -2.4240   -0.8110 hn        1 BLS      0.385400
     54 H151       -8.8980   -0.5160   -2.3460 hn        1 BLS      0.387300
     55 H152       -7.8840    0.7720   -2.1500 hn        1 BLS      0.387300
@<TRIPOS>BOND
     1    1   17 1   
     2    2    3 1   
     3    2    9 1   
     4    2   10 1   
     5    3    4 2   
     6    3    5 1   
     7    5    6 2   
     8    6    7 1   
     9    6    8 1   
    10    7   31 1   
    11    7   32 1   
    12    8    9 2   
    13    8   33 1   
    14    9   34 1   
    15   10   11 1   
    16   10   15 1   
    17   10   35 1   
    18   11   12 2   
    19   11   36 1   
    20   12   13 1   
    21   12   37 1   
    22   13   14 1   
    23   13   18 1   
    24   13   38 1   
    25   14   15 1   
    26   14   17 1   
    27   14   39 1   
    28   16   17 1   
    29   18   19 1   
    30   18   40 1   
    31   19   20 2   
    32   19   21 1   
    33   21   22 1   
    34   21   41 1   
    35   21   42 1   
    36   22   23 1   
    37   22   24 1   
    38   22   43 1   
    39   23   44 1   
    40   23   45 1   
    41   24   25 1   
    42   24   46 1   
    43   24   47 1   
    44   25   26 1   
    45   25   48 1   
    46   25   49 1   
    47   26   27 1   
    48   26   28 1   
    49   27   50 1   
    50   27   51 1   
    51   27   52 1   
    52   28   29 2   
    53   28   30 1   
    54   29   53 1   
    55   30   54 1   
    56   30   55 1   
@<TRIPOS>SUBSTRUCTURE
     1 BLS         1 TEMP              0 ****  ****    0 ROOT
