@<TRIPOS>MOLECULE
BLS
   55    51     1     0     0
SMALL
bcc


@<TRIPOS>ATOM
      1 O4         -1.3820   -2.9780   -3.3840 o         1 BLS     -0.553000
      2 N1          3.5830   -4.6810   -1.0240 n2        1 BLS     -0.277000
      3 C2          4.3630   -4.0540   -1.9260 c1        1 BLS      0.347000
      4 O2          4.0040   -2.9940   -2.4070 o         1 BLS     -0.385000
      5 N3          5.5780   -4.5680   -2.2480 n1        1 BLS     -0.314000
      6 C4          5.9980   -5.6900   -1.6720 c1        1 BLS      0.200000
      7 N4          7.2950   -6.2170   -1.9870 n3        1 BLS     -0.341000
      8 C5          5.2190   -6.3150   -0.7720 c1        1 BLS     -0.375000
      9 C6          4.0020   -5.7990   -0.4500 c1        1 BLS      0.077000
     10 C1'         2.3320   -4.1030   -0.6320 c3        1 BLS      0.189000
     11 C2'         2.5220   -3.1100    0.3710 c2        1 BLS     -0.220000
     12 C3'         1.3460   -1.9800    0.5290 c1        1 BLS     -0.130000
     13 C4'         0.6480   -1.6480   -0.6730 c2        1 BLS      0.029000
     14 C5'         0.4730   -2.9720   -1.7220 c3        1 BLS     -0.066000
     15 O5'         1.5320   -3.5430   -1.9270 os        1 BLS     -0.251000
     16 O3          0.3360   -1.7490   -3.9060 o         1 BLS     -0.553000
     17 C6'        -0.2470   -2.5400   -3.1090 c2        1 BLS      0.338000
     18 N6         -0.6600   -1.0140   -0.3810 n         1 BLS     -0.343000
     19 C7         -0.7390    0.4310   -0.1450 c2        1 BLS      0.293000
     20 O7          0.2570    1.1050   -0.1890 o         1 BLS     -0.422000
     21 C8         -2.0780    1.0730    0.1920 c3        1 BLS     -0.224000
     22 C9         -1.9430    2.5780    0.1410 c3        1 BLS     -0.027000
     23 N9         -2.1210    3.0230   -1.1880 n3        1 BLS     -0.341000
     24 C10        -3.0090    3.2200    1.0420 c3        1 BLS     -0.152000
     25 C11        -2.5180    4.6120    1.5170 c3        1 BLS     -0.067000
     26 N12        -3.5280    5.2140    2.3840 n3        1 BLS     -0.272000
     27 C13        -3.6270    4.8030    3.7790 c3        1 BLS     -0.115000
     28 C14        -4.3010    6.3180    1.9140 c2        1 BLS      0.144000
     29 N14        -5.6270    6.3490    2.1290 n1        1 BLS     -0.310000
     30 N15        -3.6690    7.3830    1.2160 n3        1 BLS     -0.344000
     31 HN41        7.5320   -7.0760   -1.7040 hn        1 BLS      0.202000
     32 HN42        7.9000   -5.7020   -2.4360 hn        1 BLS      0.202000
     33 H5          5.5250   -7.1330   -0.3520 ha        1 BLS      0.154000
     34 H6          3.4510   -6.2330    0.2440 ha        1 BLS      0.251000
     35 H1'         1.8720   -4.8950   -0.2550 h2        1 BLS      0.130000
     36 H2'         3.4200   -2.9370    0.7280 ha        1 BLS      0.154000
     37 H3'         1.4700   -1.2880    1.2030 ha        1 BLS      0.149000
     38 H4'         1.1080   -0.9160   -1.1330 h4        1 BLS      0.109000
     39 H5'        -0.1940   -3.6110   -1.3560 h1        1 BLS      0.096000
     40 HN6        -1.4210   -1.5410   -0.2870 hn        1 BLS      0.275000
     41 H81        -2.3530    0.8030    1.0810 hc        1 BLS      0.109000
     42 H82        -2.7440    0.7870   -0.4520 hc        1 BLS      0.109000
     43 H9         -1.0390    2.8400    0.4610 h1        1 BLS      0.102000
     44 HN91       -1.3880    3.5130   -1.4480 hn        1 BLS      0.154000
     45 HN92       -2.2180    2.2920   -1.7510 hn        1 BLS      0.154000
     46 H101       -3.1670    2.6460    1.8190 hc        1 BLS      0.088500
     47 H102       -3.8520    3.3240    0.5330 hc        1 BLS      0.088500
     48 H111       -1.6620    4.5090    2.0240 h1        1 BLS      0.083500
     49 H112       -2.3680    5.1940    0.7330 h1        1 BLS      0.083500
     50 H131       -4.5840    4.6160    4.0050 h1        1 BLS      0.078000
     51 H132       -3.0880    3.9820    3.9230 h1        1 BLS      0.078000
     52 H133       -3.2860    5.5250    4.3590 h1        1 BLS      0.078000
     53 HN14       -6.0270    5.6750    2.5700 DU        1 BLS      0.161000
     54 H151       -4.1600    8.1040    0.9370 hn        1 BLS      0.189500
     55 H152       -2.7690    7.3680    1.0840 hn        1 BLS      0.189500
@<TRIPOS>BOND
     1    1   17 1   
     2    2    9 1   
     3    2   10 1   
     4    3    4 1   
     5    3    5 1   
     6    6    7 1   
     7    6    8 1   
     8    7   31 1   
     9    7   32 1   
    10    8   33 1   
    11    9   34 1   
    12   10   11 1   
    13   10   15 1   
    14   10   35 1   
    15   11   12 1   
    16   11   36 1   
    17   12   37 1   
    18   13   14 1   
    19   13   18 1   
    20   13   38 1   
    21   14   15 1   
    22   14   17 1   
    23   14   39 1   
    24   16   17 1   
    25   18   19 1   
    26   18   40 1   
    27   19   20 1   
    28   19   21 1   
    29   21   22 1   
    30   21   41 1   
    31   21   42 1   
    32   22   23 1   
    33   22   24 1   
    34   22   43 1   
    35   23   44 1   
    36   23   45 1   
    37   24   25 1   
    38   24   46 1   
    39   24   47 1   
    40   25   26 1   
    41   25   48 1   
    42   25   49 1   
    43   26   27 1   
    44   26   28 1   
    45   27   50 1   
    46   27   51 1   
    47   27   52 1   
    48   28   29 1   
    49   28   30 1   
    50   30   54 1   
    51   30   55 1   
@<TRIPOS>SUBSTRUCTURE
     1 BLS         1 TEMP              0 ****  ****    0 ROOT
