@<TRIPOS>MOLECULE
BLT
   38    38     1     0     0
SMALL
bcc


@<TRIPOS>ATOM
      1 C1         -1.0620    2.2040   -2.6740 c3        1 BLT      0.176100
      2 O1         -1.5130    3.3960   -2.5060 oh        1 BLT     -0.653800
      3 C2          0.7360    2.2060   -2.5870 c3        1 BLT      0.161100
      4 O2          1.2090    1.1490   -3.1640 oh        1 BLT     -0.627800
      5 C3          1.0880    2.2080   -1.2040 c3        1 BLT      0.140900
      6 SE4        -0.2440    1.4370   -0.3980 s4        1 BLT     -1.026900
      7 C5         -1.5320    1.3510   -1.6240 c3        1 BLT     -0.016400
      8 C6         -1.6970   -0.1440   -2.1550 c3        1 BLT      0.196400
      9 O6         -2.7040   -0.1810   -3.1510 oh        1 BLT     -0.657800
     10 C7          0.2120   -0.1620    0.0930 c3        1 BLT     -0.013100
     11 C8          0.7250   -0.1260    1.5380 c3        1 BLT      0.175100
     12 O8          2.0330    0.3280    1.5510 oh        1 BLT     -0.638800
     13 C9          0.6670   -1.5240    2.1330 c3        1 BLT      0.184100
     14 C10         1.6870   -1.6420    3.2640 c3        1 BLT      0.124400
     15 O10         1.2500   -2.6230    4.1950 oh        1 BLT     -0.662800
     16 O9         -0.6200   -1.7660    2.6370 os        1 BLT     -0.615500
     17 S9         -0.9820   -3.2040    2.8430 s6        1 BLT      1.693300
     18 O11         0.1470   -4.0780    2.3580 o         1 BLT     -0.764867
     19 O12        -1.2190   -3.4570    4.3010 o         1 BLT     -0.764867
     20 O13        -2.2340   -3.5220    2.0670 o         1 BLT     -0.764867
     21 H1         -1.3530    1.8560   -3.5420 h1        1 BLT      0.006700
     22 HO1        -1.7870    3.7300   -3.3000 ho        1 BLT      0.405000
     23 H2          1.0890    3.0060   -3.0210 h1        1 BLT      0.064700
     24 HO2         1.7920    1.3930   -3.8070 ho        1 BLT      0.379000
     25 H31         1.1960    3.1400   -0.8770 h1        1 BLT      0.023200
     26 H32         1.9070    1.7020   -1.0630 h1        1 BLT      0.023200
     27 H5         -2.3780    1.6850   -1.2600 h1        1 BLT      0.046700
     28 H61        -0.8560   -0.4480   -2.5330 h1        1 BLT      0.005700
     29 H62        -1.9500   -0.7250   -1.4160 h1        1 BLT      0.005700
     30 HO6        -2.9490   -1.0220   -3.2930 ho        1 BLT      0.358000
     31 H71        -0.5700   -0.7540    0.0400 h1        1 BLT      0.025700
     32 H72         0.9180   -0.4970   -0.4970 h1        1 BLT      0.025700
     33 H8          0.1630    0.4790    2.0690 h1        1 BLT      0.032700
     34 HO8         2.5490   -0.2430    1.1060 ho        1 BLT      0.405000
     35 H9          0.8750   -2.1880    1.4320 h1        1 BLT      0.034700
     36 H101        1.7730   -0.7900    3.7110 h1        1 BLT      0.037700
     37 H102        2.5510   -1.9050    2.8970 h1        1 BLT      0.037700
     38 H10         1.7990   -2.6450    4.8770 ho        1 BLT      0.439000
@<TRIPOS>BOND
     1    1    2 1   
     2    1    3 1   
     3    1    7 1   
     4    1   21 1   
     5    2   22 1   
     6    3    4 1   
     7    3    5 1   
     8    3   23 1   
     9    4   24 1   
    10    5    6 1   
    11    5   25 1   
    12    5   26 1   
    13    6    7 1   
    14    6   10 1   
    15    7    8 1   
    16    7   27 1   
    17    8    9 1   
    18    8   28 1   
    19    8   29 1   
    20    9   30 1   
    21   10   11 1   
    22   10   31 1   
    23   10   32 1   
    24   11   12 1   
    25   11   13 1   
    26   11   33 1   
    27   12   34 1   
    28   13   14 1   
    29   13   16 1   
    30   13   35 1   
    31   14   15 1   
    32   14   36 1   
    33   14   37 1   
    34   15   38 1   
    35   16   17 1   
    36   17   18 1   
    37   17   19 1   
    38   17   20 1   
@<TRIPOS>SUBSTRUCTURE
     1 BLT         1 TEMP              0 ****  ****    0 ROOT
