@<TRIPOS>MOLECULE
BLT
   38    37     1     0     0
SMALL
bcc


@<TRIPOS>ATOM
      1 C1         31.8230   66.4880    6.5520 c3        1 BLT      0.101000
      2 O1         32.6680   67.3230    5.7420 oh        1 BLT     -0.391000
      3 C2         32.3900   66.4690    7.9900 c3        1 BLT      0.015000
      4 O2         33.7250   65.9710    8.0310 oh        1 BLT     -0.351000
      5 C3         31.4760   65.6420    8.8760 c3        1 BLT     -0.298000
      6 SE4        29.8160   66.1610    8.5830 ss        1 BLT      0.235000
      7 C5         30.4040   66.8930    6.5750 c2        1 BLT     -0.667000
      8 C6         29.5510   66.3620    5.4950 c3        1 BLT      0.108000
      9 O6         28.1720   66.2730    5.8410 oh        1 BLT     -0.397000
     10 C7         28.9930   65.6390   10.0910 c3        1 BLT     -0.463000
     11 C8         29.3810   66.3470   11.3730 c3        1 BLT      0.062000
     12 O8         30.4630   65.6350   11.9730 oh        1 BLT     -0.358000
     13 C9         28.1940   66.4580   12.3610 c3        1 BLT      0.029000
     14 C10        27.7310   65.0740   12.8510 c3        1 BLT     -0.041000
     15 O10        28.4000   64.6440   14.0190 oh        1 BLT     -0.363000
     16 O9         28.6190   67.2200   13.4540 os        1 BLT     -0.765000
     17 S9         27.5560   68.1060   14.4810 s6        1 BLT      2.874000
     18 O11        26.4490   68.3760   13.6750 o         1 BLT     -1.081000
     19 O12        28.3230   69.2060   14.8570 o         1 BLT     -1.081000
     20 O13        27.3450   67.1480   15.4810 o         1 BLT     -1.081000
     21 H1         31.9630   65.4650    6.0960 h1        1 BLT      0.063000
     22 HO1        32.3340   68.2200    5.8350 ho        1 BLT      0.182000
     23 H2         32.4820   67.5200    8.3810 h1        1 BLT      0.106000
     24 HO2        33.7340   65.1670    7.5020 ho        1 BLT      0.177000
     25 H31        31.7330   65.7780    9.9550 h1        1 BLT      0.088500
     26 H32        31.5990   64.5580    8.6350 h1        1 BLT      0.088500
     27 H5         30.2160   67.9440    6.8330 ha        1 BLT      0.089000
     28 H61        29.8830   65.3330    5.1740 h1        1 BLT      0.005000
     29 H62        29.5480   67.0160    4.5700 h1        1 BLT      0.005000
     30 HO6        28.1380   66.1670    6.8020 ho        1 BLT      0.217000
     31 H71        29.1440   64.5420   10.2240 h1        1 BLT      0.069500
     32 H72        27.9120   65.8250    9.8830 h1        1 BLT      0.069500
     33 H8         29.7440   67.3920   11.1550 h1        1 BLT      0.082000
     34 HO8        30.3810   65.7660   12.9260 ho        1 BLT      0.210000
     35 H9         27.3360   66.9740   11.8430 h1        1 BLT      0.089000
     36 H101       27.9600   64.2940   12.0780 h1        1 BLT      0.069500
     37 H102       26.6250   65.0970   13.0510 h1        1 BLT      0.069500
     38 H10        28.3870   65.3860   14.6460 ho        1 BLT      0.234000
@<TRIPOS>BOND
     1    1    2 1   
     2    1    3 1   
     3    1    7 1   
     4    1   21 1   
     5    2   22 1   
     6    3    4 1   
     7    3    5 1   
     8    3   23 1   
     9    4   24 1   
    10    5    6 1   
    11    5   25 1   
    12    5   26 1   
    13    6   10 1   
    14    7    8 1   
    15    7   27 1   
    16    8    9 1   
    17    8   28 1   
    18    8   29 1   
    19    9   30 1   
    20   10   11 1   
    21   10   31 1   
    22   10   32 1   
    23   11   12 1   
    24   11   13 1   
    25   11   33 1   
    26   12   34 1   
    27   13   14 1   
    28   13   16 1   
    29   13   35 1   
    30   14   15 1   
    31   14   36 1   
    32   14   37 1   
    33   15   38 1   
    34   16   17 1   
    35   17   18 1   
    36   17   19 1   
    37   17   20 1   
@<TRIPOS>SUBSTRUCTURE
     1 BLT         1 TEMP              0 ****  ****    0 ROOT
