@<TRIPOS>MOLECULE
BLV
   75    78     1     0     0
SMALL
bcc


@<TRIPOS>ATOM
      1 NA         -0.5930    3.0830    0.8180 ns        1 BLV     -0.495100
      2 C1A        -0.4720    4.4930    1.0250 c         1 BLV      0.678700
      3 C2A         0.3610    4.6910    2.2630 cc        1 BLV     -0.136400
      4 C3A         0.6090    3.4620    2.8050 cd        1 BLV     -0.046200
      5 C4A        -0.0240    2.4170    1.9400 cd        1 BLV      0.029600
      6 CMA         1.3640    3.1470    4.0190 c3        1 BLV     -0.085900
      7 OA         -0.9830    5.3270    0.2680 o         1 BLV     -0.611500
      8 CAA         0.7550    6.0220    2.7470 c3        1 BLV     -0.023200
      9 CBA         2.2590    6.2190    2.8130 c3        1 BLV     -0.195400
     10 CGA         2.7210    6.6570    4.2150 c         1 BLV      0.906600
     11 O1A         2.2440    6.0520    5.2220 o         1 BLV     -0.848800
     12 O2A         3.5730    7.5850    4.2940 o         1 BLV     -0.848800
     13 CHB        -0.0170    1.0880    2.1800 ce        1 BLV     -0.141200
     14 NB         -0.6140    0.1450   -0.0620 na        1 BLV     -0.175100
     15 C1B        -0.6010    0.0780    1.3330 cc        1 BLV     -0.062100
     16 C2B        -1.2510   -1.1130    1.7190 cd        1 BLV     -0.125300
     17 C3B        -1.6680   -1.7870    0.5150 cd        1 BLV     -0.109800
     18 C4B        -1.2320   -1.0020   -0.5810 cc        1 BLV     -0.058100
     19 CMB        -1.4870   -1.5760    3.0870 c3        1 BLV     -0.020800
     20 CAB        -2.4300   -3.0070    0.5180 cf        1 BLV     -0.081200
     21 CBB        -3.4210   -3.3030   -0.3260 c2        1 BLV     -0.233000
     22 CHC        -1.3430   -1.1710   -2.0060 ce        1 BLV     -0.147200
     23 NC         -1.0510   -3.6370   -2.2560 na        1 BLV     -0.616800
     24 C1C        -1.2710   -2.3200   -2.7170 cd        1 BLV      0.133000
     25 C2C        -1.3910   -2.3920   -4.2060 cd        1 BLV     -0.064200
     26 C3C        -1.3190   -3.7100   -4.5760 cc        1 BLV     -0.077000
     27 C4C        -1.1570   -4.5330   -3.3320 cc        1 BLV      0.206000
     28 CMC        -1.5280   -1.2040   -5.0490 c3        1 BLV     -0.049900
     29 CAC        -1.3560   -4.3030   -5.8860 ce        1 BLV     -0.100000
     30 CBC        -2.0490   -3.8240   -6.9220 c2        1 BLV     -0.218000
     31 CHD        -1.1250   -5.8910   -3.3130 cf        1 BLV     -0.313600
     32 ND         -0.9610   -6.3570   -0.8870 nc        1 BLV     -0.691100
     33 C1D        -1.0430   -6.7330   -2.1520 cd        1 BLV      0.556900
     34 C2D        -1.0670   -8.2430   -2.3080 cd        1 BLV     -0.207800
     35 C3D        -0.9900   -8.7700   -1.0570 cc        1 BLV     -0.141400
     36 C4D        -0.9240   -7.5850   -0.0930 c         1 BLV      0.662700
     37 CMD        -1.1700   -8.9360   -3.5910 c3        1 BLV     -0.074900
     38 OD         -0.8630   -7.6250    1.1340 o         1 BLV     -0.502100
     39 CAD        -1.0000  -10.1710   -0.6180 c3        1 BLV     -0.024200
     40 CBD         0.1400  -10.9930   -1.1920 c3        1 BLV     -0.193400
     41 CGD        -0.3570  -12.2170   -1.9820 c         1 BLV      0.905600
     42 O1D        -1.3540  -12.0780   -2.7530 o         1 BLV     -0.850300
     43 O2D         0.2730  -13.3030   -1.8430 o         1 BLV     -0.850300
     44 HA         -1.3930    2.7070    0.3720 hn        1 BLV      0.309500
     45 HMA1        0.7310    2.5600    4.7310 hc        1 BLV      0.073367
     46 HMA2        2.2670    2.5360    3.7660 hc        1 BLV      0.073367
     47 HMA3        1.7030    4.0990    4.5270 hc        1 BLV      0.073367
     48 HAA1        0.2930    6.8050    2.0870 hc        1 BLV      0.064200
     49 HAA2        0.3350    6.1540    3.7870 hc        1 BLV      0.064200
     50 HBA1        2.7940    5.2660    2.5730 hc        1 BLV      0.031700
     51 HBA2        2.5770    6.9880    2.0660 hc        1 BLV      0.031700
     52 HHB         0.4550    0.7180    3.1060 ha        1 BLV      0.157000
     53 HMB1       -2.5620   -1.4380    3.3670 hc        1 BLV      0.039700
     54 HMB2       -0.8600   -1.0060    3.8170 hc        1 BLV      0.039700
     55 HMB3       -1.2410   -2.6640    3.1790 hc        1 BLV      0.039700
     56 HAB        -2.1520   -3.7150    1.3240 ha        1 BLV      0.139000
     57 HBB1       -3.7370   -2.6270   -1.1310 ha        1 BLV      0.112500
     58 HBB2       -3.9720   -4.2500   -0.2620 ha        1 BLV      0.112500
     59 HHC        -1.4750   -0.2360   -2.5840 ha        1 BLV      0.132000
     60 HMC1       -2.5870   -0.8410   -5.0390 hc        1 BLV      0.050367
     61 HMC2       -1.2440   -1.4330   -6.1070 hc        1 BLV      0.050367
     62 HMC3       -0.8700   -0.3760   -4.6790 hc        1 BLV      0.050367
     63 HAC        -0.7570   -5.2270   -5.9950 ha        1 BLV      0.137000
     64 HBC1       -2.0370   -4.3170   -7.9020 ha        1 BLV      0.111500
     65 HBC2       -2.6800   -2.9280   -6.8570 ha        1 BLV      0.111500
     66 HHD        -1.1820   -6.4310   -4.2730 ha        1 BLV      0.151000
     67 HMD1       -2.0840   -8.6040   -4.1440 hc        1 BLV      0.067033
     68 HMD2       -0.2760   -8.7170   -4.2270 hc        1 BLV      0.067033
     69 HMD3       -1.2320  -10.0530   -3.4250 hc        1 BLV      0.067033
     70 HAD1       -0.9710  -10.2040    0.5050 hc        1 BLV      0.063700
     71 HAD2       -1.9730  -10.6350   -0.9530 hc        1 BLV      0.063700
     72 HBD1        0.8110  -11.3410   -0.3680 hc        1 BLV      0.031700
     73 HBD2        0.7560  -10.3770   -1.8960 hc        1 BLV      0.031700
     74 HB         -0.1020    0.7970   -0.5990 hn        1 BLV      0.300700
     75 HC         -1.1750   -3.9000   -1.3040 hn        1 BLV      0.492800
@<TRIPOS>BOND
     1    1    2 1   
     2    1    5 1   
     3    1   44 1   
     4    2    3 1   
     5    2    7 2   
     6    3    4 2   
     7    3    8 1   
     8    4    5 1   
     9    4    6 1   
    10    5   13 2   
    11    6   45 1   
    12    6   46 1   
    13    6   47 1   
    14    8    9 1   
    15    8   48 1   
    16    8   49 1   
    17    9   10 1   
    18    9   50 1   
    19    9   51 1   
    20   10   11 1   
    21   10   12 1   
    22   13   15 1   
    23   13   52 1   
    24   14   15 1   
    25   14   18 1   
    26   14   74 1   
    27   15   16 2   
    28   16   17 1   
    29   16   19 1   
    30   17   18 2   
    31   17   20 1   
    32   18   22 1   
    33   19   53 1   
    34   19   54 1   
    35   19   55 1   
    36   20   21 2   
    37   20   56 1   
    38   21   57 1   
    39   21   58 1   
    40   22   24 2   
    41   22   59 1   
    42   23   24 1   
    43   23   27 1   
    44   23   75 1   
    45   24   25 1   
    46   25   26 2   
    47   25   28 1   
    48   26   27 1   
    49   26   29 1   
    50   27   31 2   
    51   28   60 1   
    52   28   61 1   
    53   28   62 1   
    54   29   30 2   
    55   29   63 1   
    56   30   64 1   
    57   30   65 1   
    58   31   33 1   
    59   31   66 1   
    60   32   33 2   
    61   32   36 1   
    62   33   34 1   
    63   34   35 2   
    64   34   37 1   
    65   35   36 1   
    66   35   39 1   
    67   36   38 2   
    68   37   67 1   
    69   37   68 1   
    70   37   69 1   
    71   39   40 1   
    72   39   70 1   
    73   39   71 1   
    74   40   41 1   
    75   40   72 1   
    76   40   73 1   
    77   41   42 1   
    78   41   43 1   
@<TRIPOS>SUBSTRUCTURE
     1 BLV         1 TEMP              0 ****  ****    0 ROOT
