@<TRIPOS>MOLECULE
BLV
   75    78     1     0     0
SMALL
bcc


@<TRIPOS>ATOM
      1 NA          0.0270    1.9600    0.4160 n         1 BLV     -0.501100
      2 C1A         0.9410    3.0480    0.5340 c         1 BLV      0.682700
      3 C2A         1.4830    3.0180    1.9400 cc        1 BLV     -0.133400
      4 C3A         0.8470    2.0160    2.6160 cd        1 BLV     -0.045200
      5 C4A        -0.1360    1.3630    1.6940 cd        1 BLV      0.052600
      6 CMA         1.0270    1.6100    4.0110 c3        1 BLV     -0.085900
      7 OA          1.1900    3.8220   -0.3980 o         1 BLV     -0.613500
      8 CAA         2.4680    4.0020    2.4150 c3        1 BLV     -0.021200
      9 CBA         3.6850    3.3900    3.0830 c3        1 BLV     -0.196400
     10 CGA         3.8910    3.9470    4.5040 c         1 BLV      0.906600
     11 O1A         2.8990    3.9580    5.2930 o         1 BLV     -0.849800
     12 O2A         5.0440    4.3530    4.8220 o         1 BLV     -0.849800
     13 CHB        -1.0260    0.4050    2.0290 ce        1 BLV     -0.157200
     14 NB         -1.7960   -0.5340   -0.1710 na        1 BLV     -0.157100
     15 C1B        -2.0380   -0.1170    1.1400 cc        1 BLV     -0.055100
     16 C2B        -3.4220   -0.2270    1.3910 cd        1 BLV     -0.134300
     17 C3B        -4.0430   -0.7000    0.1800 cd        1 BLV     -0.122800
     18 C4B        -3.0070   -0.8780   -0.7720 cc        1 BLV     -0.066100
     19 CMB        -4.1070    0.0910    2.6450 c3        1 BLV     -0.017800
     20 CAB        -5.4500   -0.9230    0.0260 cf        1 BLV     -0.055200
     21 CBB        -6.0470   -1.5440   -0.9960 c2        1 BLV     -0.256000
     22 CHC        -3.1260   -1.2180   -2.1680 ce        1 BLV     -0.141200
     23 NC         -1.5370   -3.1300   -2.2680 na        1 BLV     -0.608800
     24 C1C        -2.4600   -2.1970   -2.8150 cd        1 BLV      0.115000
     25 C2C        -2.5560   -2.4720   -4.2790 cd        1 BLV     -0.066200
     26 C3C        -1.8110   -3.5890   -4.5530 cc        1 BLV     -0.067000
     27 C4C        -1.2380   -4.0900   -3.2610 cc        1 BLV      0.183000
     28 CMC        -3.3110   -1.6170   -5.1960 c3        1 BLV     -0.048900
     29 CAC        -1.5470   -4.2360   -5.8100 ce        1 BLV     -0.102000
     30 CBC        -2.3830   -4.2500   -6.8520 c2        1 BLV     -0.215000
     31 CHD        -0.5890   -5.2730   -3.1300 cf        1 BLV     -0.290600
     32 ND         -0.2560   -5.3940   -0.6830 nc        1 BLV     -0.681100
     33 C1D        -0.1570   -5.8880   -1.9030 cd        1 BLV      0.546900
     34 C2D         0.4460   -7.2850   -1.9250 cd        1 BLV     -0.203800
     35 C3D         0.7020   -7.6220   -0.6330 cc        1 BLV     -0.136400
     36 C4D         0.2710   -6.4210    0.2170 c         1 BLV      0.657700
     37 CMD         0.6450   -8.0280   -3.1680 c3        1 BLV     -0.071900
     38 OD          0.3420   -6.3120    1.4390 o         1 BLV     -0.492100
     39 CAD         1.2270   -8.8350    0.0040 c3        1 BLV     -0.023200
     40 CBD         2.3660   -9.5090   -0.7340 c3        1 BLV     -0.195400
     41 CGD         1.9110  -10.7890   -1.4580 c         1 BLV      0.902600
     42 O1D         1.2760  -11.6640   -0.8020 o         1 BLV     -0.850300
     43 O2D         2.2010  -10.9070   -2.6860 o         1 BLV     -0.850300
     44 HA         -0.7060    1.9640   -0.2470 hn        1 BLV      0.314500
     45 HMA1        0.0370    1.4760    4.5150 hc        1 BLV      0.074367
     46 HMA2        1.5810    0.6380    4.0610 hc        1 BLV      0.074367
     47 HMA3        1.6240    2.3900    4.5720 hc        1 BLV      0.074367
     48 HAA1        2.7870    4.6460    1.5520 hc        1 BLV      0.062700
     49 HAA2        1.9490    4.6680    3.1660 hc        1 BLV      0.062700
     50 HBA1        3.5720    2.2800    3.1720 hc        1 BLV      0.033200
     51 HBA2        4.5990    3.5940    2.4730 hc        1 BLV      0.033200
     52 HHB        -1.0390    0.0130    3.0590 ha        1 BLV      0.159000
     53 HMB1       -4.8260    0.9370    2.4960 hc        1 BLV      0.036367
     54 HMB2       -3.3730    0.3880    3.4360 hc        1 BLV      0.036367
     55 HMB3       -4.6850   -0.7950    3.0100 hc        1 BLV      0.036367
     56 HAB        -6.0580   -0.5330    0.8650 ha        1 BLV      0.114000
     57 HBB1       -5.4940   -1.9720   -1.8410 ha        1 BLV      0.106000
     58 HBB2       -7.1350   -1.6720   -1.0370 ha        1 BLV      0.106000
     59 HHC        -3.8450   -0.5980   -2.7320 ha        1 BLV      0.145000
     60 HMC1       -4.3870   -1.9290   -5.2180 hc        1 BLV      0.050367
     61 HMC2       -2.9020   -1.6930   -6.2360 hc        1 BLV      0.050367
     62 HMC3       -3.2630   -0.5460   -4.8740 hc        1 BLV      0.050367
     63 HAC        -0.5700   -4.7510   -5.8710 ha        1 BLV      0.139000
     64 HBC1       -2.1260   -4.7570   -7.7910 ha        1 BLV      0.111500
     65 HBC2       -3.3740   -3.7780   -6.8310 ha        1 BLV      0.111500
     66 HHD        -0.3870   -5.8650   -4.0400 ha        1 BLV      0.154000
     67 HMD1       -0.3340   -8.1800   -3.6890 hc        1 BLV      0.066700
     68 HMD2        1.3240   -7.4600   -3.8530 hc        1 BLV      0.066700
     69 HMD3        1.1050   -9.0390   -2.9760 hc        1 BLV      0.066700
     70 HAD1        1.5540   -8.5670    1.0470 hc        1 BLV      0.066200
     71 HAD2        0.3850   -9.5810    0.1100 hc        1 BLV      0.066200
     72 HBD1        3.1540   -9.8060    0.0030 hc        1 BLV      0.031200
     73 HBD2        2.8330   -8.8110   -1.4730 hc        1 BLV      0.031200
     74 HB         -0.9040   -0.6160   -0.5900 hn        1 BLV      0.313700
     75 HC         -1.5940   -3.3850   -1.3070 hn        1 BLV      0.472800
@<TRIPOS>BOND
     1    1    2 1   
     2    1    5 1   
     3    1   44 1   
     4    2    3 1   
     5    2    7 2   
     6    3    4 2   
     7    3    8 1   
     8    4    5 1   
     9    4    6 1   
    10    5   13 2   
    11    6   45 1   
    12    6   46 1   
    13    6   47 1   
    14    8    9 1   
    15    8   48 1   
    16    8   49 1   
    17    9   10 1   
    18    9   50 1   
    19    9   51 1   
    20   10   11 1   
    21   10   12 1   
    22   13   15 1   
    23   13   52 1   
    24   14   15 1   
    25   14   18 1   
    26   14   74 1   
    27   15   16 2   
    28   16   17 1   
    29   16   19 1   
    30   17   18 2   
    31   17   20 1   
    32   18   22 1   
    33   19   53 1   
    34   19   54 1   
    35   19   55 1   
    36   20   21 2   
    37   20   56 1   
    38   21   57 1   
    39   21   58 1   
    40   22   24 2   
    41   22   59 1   
    42   23   24 1   
    43   23   27 1   
    44   23   75 1   
    45   24   25 1   
    46   25   26 2   
    47   25   28 1   
    48   26   27 1   
    49   26   29 1   
    50   27   31 2   
    51   28   60 1   
    52   28   61 1   
    53   28   62 1   
    54   29   30 2   
    55   29   63 1   
    56   30   64 1   
    57   30   65 1   
    58   31   33 1   
    59   31   66 1   
    60   32   33 2   
    61   32   36 1   
    62   33   34 1   
    63   34   35 2   
    64   34   37 1   
    65   35   36 1   
    66   35   39 1   
    67   36   38 2   
    68   37   67 1   
    69   37   68 1   
    70   37   69 1   
    71   39   40 1   
    72   39   70 1   
    73   39   71 1   
    74   40   41 1   
    75   40   72 1   
    76   40   73 1   
    77   41   42 1   
    78   41   43 1   
@<TRIPOS>SUBSTRUCTURE
     1 BLV         1 TEMP              0 ****  ****    0 ROOT
