@<TRIPOS>MOLECULE
BLV
   75    78     1     0     0
SMALL
bcc


@<TRIPOS>ATOM
      1 NA          3.7010    2.3000    0.3340 n         1 BLV     -0.501100
      2 C1A         4.4570    3.3220   -0.3100 c         1 BLV      0.682700
      3 C2A         5.2340    2.6630   -1.4210 cc        1 BLV     -0.133400
      4 C3A         4.9990    1.3190   -1.3600 cd        1 BLV     -0.045200
      5 C4A         4.0780    1.0440   -0.2110 cd        1 BLV      0.052600
      6 CMA         5.5400    0.2650   -2.2200 c3        1 BLV     -0.085900
      7 OA          4.4190    4.5080    0.0380 o         1 BLV     -0.613500
      8 CAA         6.1240    3.4270   -2.3070 c3        1 BLV     -0.021200
      9 CBA         5.8870    3.1850   -3.7860 c3        1 BLV     -0.196400
     10 CGA         7.1730    2.7260   -4.4990 c         1 BLV      0.906600
     11 O1A         7.8360    1.7750   -3.9850 o         1 BLV     -0.849800
     12 O2A         7.4980    3.3090   -5.5710 o         1 BLV     -0.849800
     13 CHB         3.7010   -0.1740    0.2330 ce        1 BLV     -0.157200
     14 NB          1.7240    0.2810    1.7160 na        1 BLV     -0.157100
     15 C1B         2.9060   -0.4020    1.4160 cc        1 BLV     -0.055100
     16 C2B         3.1990   -1.2680    2.4910 cd        1 BLV     -0.134300
     17 C3B         2.1750   -1.0800    3.4870 cd        1 BLV     -0.122800
     18 C4B         1.2760   -0.1110    2.9770 cc        1 BLV     -0.066100
     19 CMB         4.3400   -2.1800    2.5860 c3        1 BLV     -0.017800
     20 CAB         2.1320   -1.7710    4.7430 cf        1 BLV     -0.055200
     21 CBB         1.1110   -1.7840    5.6050 c2        1 BLV     -0.256000
     22 CHC         0.1580    0.5080    3.6430 ce        1 BLV     -0.141200
     23 NC         -1.6120    0.1150    1.9390 na        1 BLV     -0.608800
     24 C1C        -1.1010    0.6160    3.1670 cd        1 BLV      0.115000
     25 C2C        -2.2170    1.3290    3.8560 cd        1 BLV     -0.066200
     26 C3C        -3.3570    1.1510    3.1170 cc        1 BLV     -0.067000
     27 C4C        -3.0150    0.2840    1.9420 cc        1 BLV      0.183000
     28 CMC        -2.0240    2.0940    5.0890 c3        1 BLV     -0.048900
     29 CAC        -4.6830    1.6660    3.3290 ce        1 BLV     -0.102000
     30 CBC        -5.2170    1.9330    4.5240 c2        1 BLV     -0.215000
     31 CHD        -3.9350   -0.2350    1.0920 cf        1 BLV     -0.290600
     32 ND         -2.5380   -1.7070   -0.3210 nc        1 BLV     -0.681100
     33 C1D        -3.6980   -1.1960    0.0480 cd        1 BLV      0.546900
     34 C2D        -4.8700   -1.7730   -0.7330 cd        1 BLV     -0.203800
     35 C3D        -4.3520   -2.6830   -1.6010 cc        1 BLV     -0.136400
     36 C4D        -2.8360   -2.6730   -1.3790 c         1 BLV      0.657700
     37 CMD        -6.2490   -1.3560   -0.4890 c3        1 BLV     -0.071900
     38 OD         -1.9940   -3.3470   -1.9690 o         1 BLV     -0.492100
     39 CAD        -4.9570   -3.5990   -2.5750 c3        1 BLV     -0.023200
     40 CBD        -6.1160   -3.0260   -3.3650 c3        1 BLV     -0.195400
     41 CGD        -7.4720   -3.5730   -2.8850 c         1 BLV      0.902600
     42 O1D        -7.6220   -4.8240   -2.7910 o         1 BLV     -0.850300
     43 O2D        -8.3810   -2.7340   -2.6100 o         1 BLV     -0.850300
     44 HA          3.4030    2.3840    1.2730 hn        1 BLV      0.314500
     45 HMA1        5.9140   -0.5930   -1.6080 hc        1 BLV      0.074367
     46 HMA2        4.7450   -0.1140   -2.9110 hc        1 BLV      0.074367
     47 HMA3        6.3920    0.6710   -2.8460 hc        1 BLV      0.074367
     48 HAA1        6.0190    4.5210   -2.0750 hc        1 BLV      0.062700
     49 HAA2        7.1860    3.1260   -2.0650 hc        1 BLV      0.062700
     50 HBA1        5.1170    2.3870   -3.9390 hc        1 BLV      0.033200
     51 HBA2        5.5130    4.1200   -4.2710 hc        1 BLV      0.033200
     52 HHB         4.0540   -1.0760   -0.2920 ha        1 BLV      0.159000
     53 HMB1        3.9880   -3.2290    2.7580 hc        1 BLV      0.036367
     54 HMB2        4.9470   -2.1590    1.6470 hc        1 BLV      0.036367
     55 HMB3        5.0020   -1.8930    3.4410 hc        1 BLV      0.036367
     56 HAB         3.0530   -2.3410    4.9700 ha        1 BLV      0.114000
     57 HBB1        1.1610   -2.3400    6.5490 ha        1 BLV      0.106000
     58 HBB2        0.1660   -1.2590    5.4200 ha        1 BLV      0.106000
     59 HHC         0.3870    0.9190    4.6420 ha        1 BLV      0.145000
     60 HMC1       -2.8020    2.8930    5.1850 hc        1 BLV      0.050367
     61 HMC2       -2.1040    1.4180    5.9800 hc        1 BLV      0.050367
     62 HMC3       -1.0150    2.5770    5.1050 hc        1 BLV      0.050367
     63 HAC        -5.2680    1.8350    2.4050 ha        1 BLV      0.139000
     64 HBC1       -6.2350    2.3300    4.6250 ha        1 BLV      0.111500
     65 HBC2       -4.6870    1.7570    5.4690 ha        1 BLV      0.111500
     66 HHD        -4.9900    0.0660    1.2120 ha        1 BLV      0.154000
     67 HMD1       -6.5370   -1.5710    0.5710 hc        1 BLV      0.066700
     68 HMD2       -6.3580   -0.2560   -0.6670 hc        1 BLV      0.066700
     69 HMD3       -6.9700   -1.8940   -1.1690 hc        1 BLV      0.066700
     70 HAD1       -4.1480   -3.9420   -3.2790 hc        1 BLV      0.066200
     71 HAD2       -5.3230   -4.5180   -2.0280 hc        1 BLV      0.066200
     72 HBD1       -6.1250   -1.9090   -3.3090 hc        1 BLV      0.031200
     73 HBD2       -6.0030   -3.3150   -4.4410 hc        1 BLV      0.031200
     74 HB          1.2570    0.9070    1.1100 hn        1 BLV      0.313700
     75 HC         -1.1920   -0.6780    1.5080 hn        1 BLV      0.472800
@<TRIPOS>BOND
     1    1    2 1   
     2    1    5 1   
     3    1   44 1   
     4    2    3 1   
     5    2    7 2   
     6    3    4 2   
     7    3    8 1   
     8    4    5 1   
     9    4    6 1   
    10    5   13 2   
    11    6   45 1   
    12    6   46 1   
    13    6   47 1   
    14    8    9 1   
    15    8   48 1   
    16    8   49 1   
    17    9   10 1   
    18    9   50 1   
    19    9   51 1   
    20   10   11 1   
    21   10   12 1   
    22   13   15 1   
    23   13   52 1   
    24   14   15 1   
    25   14   18 1   
    26   14   74 1   
    27   15   16 2   
    28   16   17 1   
    29   16   19 1   
    30   17   18 2   
    31   17   20 1   
    32   18   22 1   
    33   19   53 1   
    34   19   54 1   
    35   19   55 1   
    36   20   21 2   
    37   20   56 1   
    38   21   57 1   
    39   21   58 1   
    40   22   24 2   
    41   22   59 1   
    42   23   24 1   
    43   23   27 1   
    44   23   75 1   
    45   24   25 1   
    46   25   26 2   
    47   25   28 1   
    48   26   27 1   
    49   26   29 1   
    50   27   31 2   
    51   28   60 1   
    52   28   61 1   
    53   28   62 1   
    54   29   30 2   
    55   29   63 1   
    56   30   64 1   
    57   30   65 1   
    58   31   33 1   
    59   31   66 1   
    60   32   33 2   
    61   32   36 1   
    62   33   34 1   
    63   34   35 2   
    64   34   37 1   
    65   35   36 1   
    66   35   39 1   
    67   36   38 2   
    68   37   67 1   
    69   37   68 1   
    70   37   69 1   
    71   39   40 1   
    72   39   70 1   
    73   39   71 1   
    74   40   41 1   
    75   40   72 1   
    76   40   73 1   
    77   41   42 1   
    78   41   43 1   
@<TRIPOS>SUBSTRUCTURE
     1 BLV         1 TEMP              0 ****  ****    0 ROOT
