@<TRIPOS>MOLECULE
BLV
   75    64     1     0     0
SMALL
bcc


@<TRIPOS>ATOM
      1 NA          2.9690    2.0200   -2.3040 n         1 BLV     -0.342000
      2 C1A         4.5310    2.1620   -2.3430 c2        1 BLV      0.317000
      3 C2A         4.7590    3.5030   -2.8050 c2        1 BLV     -0.106000
      4 C3A         3.6450    4.1760   -3.0450 c1        1 BLV     -0.046000
      5 C4A         2.4510    3.4180   -2.7900 c1        1 BLV      0.035000
      6 CMA         3.6280    5.6840   -2.9130 c3        1 BLV     -0.208000
      7 OA          5.3620    1.3260   -2.0480 o         1 BLV     -0.329000
      8 CAA         6.0230    3.8370   -3.5660 c3        1 BLV     -0.108000
      9 CBA         7.1680    3.0030   -3.0330 c3        1 BLV     -0.224000
     10 CGA         8.4820    3.6200   -3.4580 c2        1 BLV      0.326000
     11 O1A         9.1290    4.3390   -2.6530 o         1 BLV     -0.583000
     12 O2A         8.9220    3.4240   -4.6220 o         1 BLV     -0.583000
     13 CHB         1.1720    3.8190   -2.9370 c1        1 BLV     -0.162000
     14 NB         -0.2960    2.4100   -1.3730 n2        1 BLV     -0.157000
     15 C1B         0.0380    2.8680   -2.6140 c1        1 BLV     -0.029500
     16 C2B        -0.8790    2.3680   -3.5130 c1        1 BLV     -0.113500
     17 C3B        -1.7690    1.6070   -2.8250 c1        1 BLV     -0.113500
     18 C4B        -1.4090    1.6310   -1.4950 c1        1 BLV     -0.029500
     19 CMB        -0.9110    2.6490   -5.0000 c2        1 BLV     -0.163000
     20 CAB        -2.9870    0.9220   -3.4030 c1        1 BLV     -0.158000
     21 CBB        -2.8560   -0.2550   -4.0480 c1        1 BLV     -0.158000
     22 CHC        -2.1730    0.9880   -0.3560 c1        1 BLV     -0.194500
     23 NC         -2.2650   -0.7930    1.2780 n2        1 BLV     -0.265000
     24 C1C        -1.6820   -0.1160    0.2460 c2        1 BLV      0.090500
     25 C2C        -0.5060   -0.7580   -0.0730 c1        1 BLV     -0.059500
     26 C3C        -0.3690   -1.8220    0.7600 c1        1 BLV     -0.059500
     27 C4C        -1.4610   -1.8460    1.6010 c2        1 BLV      0.090500
     28 CMC         0.4560   -0.3570   -1.1690 c2        1 BLV     -0.163000
     29 CAC         0.8170   -2.7600    0.8170 c1        1 BLV     -0.158000
     30 CBC         0.8610   -3.8390    0.0130 c1        1 BLV     -0.158000
     31 CHD        -1.6830   -2.7400    2.5870 c1        1 BLV     -0.194500
     32 ND         -4.2060   -3.0020    2.9260 n1        1 BLV     -0.277000
     33 C1D        -2.9190   -2.6210    3.4520 c1        1 BLV      0.100000
     34 C2D        -2.8540   -2.9520    4.8390 c2        1 BLV     -0.114000
     35 C3D        -4.0920   -3.5520    5.2410 c1        1 BLV     -0.118000
     36 C4D        -5.0490   -3.6230    4.0280 c1        1 BLV      0.267000
     37 CMD        -1.5510   -3.4280    5.4420 c3        1 BLV     -0.198000
     38 OD         -6.1800   -4.0620    3.9710 o         1 BLV     -0.267000
     39 CAD        -4.0980   -4.6560    6.2750 c3        1 BLV     -0.106000
     40 CBD        -5.0750   -4.3090    7.3780 c3        1 BLV     -0.222000
     41 CGD        -5.8640   -5.5440    7.7590 c2        1 BLV      0.326000
     42 O1D        -7.0950   -5.6080    7.5030 o         1 BLV     -0.584500
     43 O2D        -5.2940   -6.4950    8.3560 o         1 BLV     -0.584500
     44 HA          2.4980    1.4170   -1.8090 hn        1 BLV      0.222000
     45 HMA1        4.5350    6.0050   -2.7220 hc        1 BLV      0.112333
     46 HMA2        3.0300    5.9410   -2.1800 hc        1 BLV      0.112333
     47 HMA3        3.3090    6.0820   -3.7500 hc        1 BLV      0.112333
     48 HAA1        5.8930    3.6430   -4.5160 hc        1 BLV      0.105000
     49 HAA2        6.2310    4.7860   -3.4530 hc        1 BLV      0.105000
     50 HBA1        7.1220    2.9730   -2.0570 hc        1 BLV      0.071500
     51 HBA2        7.1030    2.0940   -3.3910 hc        1 BLV      0.071500
     52 HHB         0.9770    4.7230   -3.2500 ha        1 BLV      0.155000
     53 HB          0.1440    2.5980   -0.5970 DU        1 BLV      0.188500
     54 HMB1       -0.4780    3.5100   -5.1790 ha        1 BLV      0.086833
     55 HMB2       -1.8420    2.6830   -5.3060 ha        1 BLV      0.086833
     56 HMB3       -0.4360    1.9380   -5.4780 ha        1 BLV      0.086833
     57 HAB        -3.8680    1.3310   -3.3100 ha        1 BLV      0.117750
     58 HBB1       -1.9730   -0.6650   -4.1410 DU        1 BLV      0.188500
     59 HBB2       -3.6430   -0.6980   -4.4220 ha        1 BLV      0.117750
     60 HHC        -3.0190    1.3710   -0.0570 ha        1 BLV      0.150500
     61 HC         -3.0540   -0.5780    1.6820 DU        1 BLV      0.188500
     62 HMC1        1.3180   -0.8020   -1.0260 ha        1 BLV      0.086833
     63 HMC2        0.5840    0.6140   -1.1540 ha        1 BLV      0.086833
     64 HMC3        0.0910   -0.6250   -2.0390 ha        1 BLV      0.086833
     65 HAC         1.5400   -2.5940    1.4520 ha        1 BLV      0.117750
     66 HBC1        1.6280   -4.4450    0.0500 DU        1 BLV      0.188500
     67 HBC2        0.1240   -4.0210   -0.6030 ha        1 BLV      0.117750
     68 HHD        -1.0590   -3.4780    2.7260 ha        1 BLV      0.150500
     69 HMD1       -1.6000   -3.3600    6.4190 hc        1 BLV      0.107667
     70 HMD2       -1.3960   -4.3620    5.1880 hc        1 BLV      0.107667
     71 HMD3       -0.8150   -2.8720    5.1120 hc        1 BLV      0.107667
     72 HAD1       -3.2010   -4.7520    6.6530 hc        1 BLV      0.103000
     73 HAD2       -4.3660   -5.4960    5.8530 hc        1 BLV      0.103000
     74 HBD1       -4.5840   -3.9820    8.1580 hc        1 BLV      0.071000
     75 HBD2       -5.6880   -3.6140    7.0630 hc        1 BLV      0.071000
@<TRIPOS>BOND
     1    1    2 1   
     2    1    5 1   
     3    1   44 1   
     4    2    3 1   
     5    2    7 1   
     6    3    4 1   
     7    3    8 1   
     8    4    6 1   
     9    5   13 1   
    10    6   45 1   
    11    6   46 1   
    12    6   47 1   
    13    8    9 1   
    14    8   48 1   
    15    8   49 1   
    16    9   10 1   
    17    9   50 1   
    18    9   51 1   
    19   10   11 1   
    20   10   12 1   
    21   13   52 1   
    22   14   15 1   
    23   14   18 1   
    24   15   16 1   
    25   16   17 1   
    26   17   18 1   
    27   19   54 1   
    28   19   55 1   
    29   19   56 1   
    30   20   21 1   
    31   20   57 1   
    32   21   59 1   
    33   22   24 1   
    34   22   60 1   
    35   23   24 1   
    36   23   27 1   
    37   24   25 1   
    38   25   26 1   
    39   26   27 1   
    40   27   31 1   
    41   28   62 1   
    42   28   63 1   
    43   28   64 1   
    44   29   30 1   
    45   29   65 1   
    46   30   67 1   
    47   31   68 1   
    48   32   33 1   
    49   33   34 1   
    50   34   35 1   
    51   34   37 1   
    52   35   39 1   
    53   36   38 1   
    54   37   69 1   
    55   37   70 1   
    56   37   71 1   
    57   39   40 1   
    58   39   72 1   
    59   39   73 1   
    60   40   41 1   
    61   40   74 1   
    62   40   75 1   
    63   41   42 1   
    64   41   43 1   
@<TRIPOS>SUBSTRUCTURE
     1 BLV         1 TEMP              0 ****  ****    0 ROOT
