@<TRIPOS>MOLECULE
BLZ
   52    55     1     0     0
SMALL
bcc


@<TRIPOS>ATOM
      1 C1          0.9490   -0.8260   -0.7340 c3        1 BLZ      0.108700
      2 O2          1.6600    0.3010   -0.2240 os        1 BLZ     -0.327900
      3 C3          2.1100    0.2090    1.0780 ca        1 BLZ      0.077100
      4 C4          1.9090   -0.9210    1.8750 ca        1 BLZ     -0.105000
      5 C5          2.3980   -0.9040    3.1800 ca        1 BLZ      0.070400
      6 N6          2.3120   -1.8970    4.1950 nc        1 BLZ     -0.486100
      7 C7          2.9180   -1.3900    5.2540 cd        1 BLZ      0.415700
      8 N8          3.4430   -0.0590    5.0310 na        1 BLZ     -0.090400
      9 C9          4.1370    0.6540    5.9590 cc        1 BLZ      0.153700
     10 C10         4.9010    1.8220    5.7430 cd        1 BLZ     -0.297000
     11 C11         5.4790    2.2950    6.9360 cd        1 BLZ      0.243100
     12 O12         6.2740    3.3870    7.0850 os        1 BLZ     -0.373900
     13 C13         6.6680    4.1040    5.8740 c3        1 BLZ      0.203400
     14 C14         7.8650    4.9330    6.3080 c3        1 BLZ     -0.103100
     15 C15         5.5480    4.9630    5.3780 ca        1 BLZ     -0.144300
     16 C16         4.8160    5.7380    6.2870 ca        1 BLZ     -0.103000
     17 C17         3.7860    6.5680    5.8530 ca        1 BLZ     -0.121000
     18 C18         3.4780    6.6400    4.4940 ca        1 BLZ     -0.093000
     19 C19         4.1990    5.8830    3.5730 ca        1 BLZ     -0.111000
     20 C20         5.2320    5.0460    4.0130 ca        1 BLZ      0.025400
     21 Cl2         6.0900    4.1480    2.8510 cl        1 BLZ     -0.075400
     22 C22         5.1700    1.4880    8.0600 cc        1 BLZ     -0.353700
     23 S23         4.1670    0.2050    7.5980 ss        1 BLZ      0.124200
     24 C24         5.5830    1.6310    9.4070 c         1 BLZ      0.621700
     25 O25         5.3560    0.9430   10.3990 o         1 BLZ     -0.471100
     26 N26         6.4630    2.8360    9.7130 nz        1 BLZ     -0.746400
     27 C27         3.1070    0.2550    3.6850 ca        1 BLZ     -0.062200
     28 C28         3.3050    1.3750    2.8890 ca        1 BLZ     -0.133000
     29 C29         2.8000    1.3470    1.5770 ca        1 BLZ      0.142100
     30 O30         2.9830    2.5290    0.8960 os        1 BLZ     -0.328900
     31 C31         3.0420    2.4690   -0.5300 c3        1 BLZ      0.122700
     32 H11         1.6040   -1.7300   -0.7480 h1        1 BLZ      0.055700
     33 H12         0.6890   -0.5090   -1.7770 h1        1 BLZ      0.055700
     34 H13A        0.0250   -1.0120   -0.1360 h1        1 BLZ      0.055700
     35 H4          1.3710   -1.8060    1.5030 ha        1 BLZ      0.173000
     36 H7          3.0460   -1.8860    6.2260 h5        1 BLZ      0.083800
     37 H10         5.0350    2.3090    4.7720 ha        1 BLZ      0.199000
     38 H13         6.9790    3.3390    5.1080 h1        1 BLZ      0.089700
     39 H141        8.6680    4.2740    6.7130 hc        1 BLZ      0.062367
     40 H142        8.2590    5.4820    5.4170 hc        1 BLZ      0.062367
     41 H143        7.5710    5.6760    7.0870 hc        1 BLZ      0.062367
     42 H16         5.0660    5.6840    7.3570 ha        1 BLZ      0.124000
     43 H17         3.2200    7.1700    6.5800 ha        1 BLZ      0.150000
     44 H18         2.6660    7.2970    4.1450 ha        1 BLZ      0.157000
     45 H19         3.9570    5.9410    2.4990 ha        1 BLZ      0.168000
     46 H261        5.9620    3.6930    9.4580 hn        1 BLZ      0.464133
     47 H262        7.3120    2.7900    9.1410 hn        1 BLZ      0.464133
     48 H28         3.8160    2.2840    3.2350 ha        1 BLZ      0.160000
     49 H311        3.6540    1.6030   -0.8740 h1        1 BLZ      0.056367
     50 H312        2.0060    2.4090   -0.9440 h1        1 BLZ      0.056367
     51 H313        3.5260    3.4410   -0.8070 h1        1 BLZ      0.056367
     52 H263        6.7050    2.8500   10.7080 hn        1 BLZ      0.464133
@<TRIPOS>BOND
     1    1    2 1   
     2    1   32 1   
     3    1   33 1   
     4    1   34 1   
     5    2    3 1   
     6    3    4 ar  
     7    3   29 ar  
     8    4    5 ar  
     9    4   35 1   
    10    5    6 1   
    11    5   27 ar  
    12    6    7 2   
    13    7    8 1   
    14    7   36 1   
    15    8    9 1   
    16    8   27 1   
    17    9   10 2   
    18    9   23 1   
    19   10   11 1   
    20   10   37 1   
    21   11   12 1   
    22   11   22 2   
    23   12   13 1   
    24   13   14 1   
    25   13   15 1   
    26   13   38 1   
    27   14   39 1   
    28   14   40 1   
    29   14   41 1   
    30   15   16 ar  
    31   15   20 ar  
    32   16   17 ar  
    33   16   42 1   
    34   17   18 ar  
    35   17   43 1   
    36   18   19 ar  
    37   18   44 1   
    38   19   20 ar  
    39   19   45 1   
    40   20   21 1   
    41   22   23 1   
    42   22   24 1   
    43   24   25 2   
    44   24   26 1   
    45   26   46 1   
    46   26   47 1   
    47   26   52 1   
    48   27   28 ar  
    49   28   29 ar  
    50   28   48 1   
    51   29   30 1   
    52   30   31 1   
    53   31   49 1   
    54   31   50 1   
    55   31   51 1   
@<TRIPOS>SUBSTRUCTURE
     1 BLZ         1 TEMP              0 ****  ****    0 ROOT
