@<TRIPOS>MOLECULE
BLZ
   52    55     1     0     0
SMALL
bcc


@<TRIPOS>ATOM
      1 C1          0.9320   -0.8150   -0.7300 c3        1 BLZ      0.108700
      2 O2          1.6560    0.3040   -0.2230 os        1 BLZ     -0.327900
      3 C3          2.0970    0.2160    1.0810 ca        1 BLZ      0.077100
      4 C4          1.8750   -0.9050    1.8860 ca        1 BLZ     -0.105000
      5 C5          2.3570   -0.8860    3.1930 ca        1 BLZ      0.070400
      6 N6          2.2500   -1.8700    4.2150 nc        1 BLZ     -0.486100
      7 C7          2.8570   -1.3630    5.2740 cd        1 BLZ      0.415700
      8 N8          3.4040   -0.0430    5.0440 na        1 BLZ     -0.090400
      9 C9          4.1030    0.6670    5.9710 cc        1 BLZ      0.153700
     10 C10         4.8850    1.8230    5.7510 cd        1 BLZ     -0.297000
     11 C11         5.4620    2.2960    6.9440 cd        1 BLZ      0.243100
     12 O12         6.2720    3.3770    7.0900 os        1 BLZ     -0.373900
     13 C13         6.6840    4.0800    5.8770 c3        1 BLZ      0.203400
     14 C14         7.8900    4.8950    6.3120 c3        1 BLZ     -0.103100
     15 C15         5.5790    4.9510    5.3670 ca        1 BLZ     -0.144300
     16 C16         4.8530    5.7420    6.2660 ca        1 BLZ     -0.103000
     17 C17         3.8380    6.5840    5.8190 ca        1 BLZ     -0.121000
     18 C18         3.5400    6.6500    4.4570 ca        1 BLZ     -0.093000
     19 C19         4.2560    5.8760    3.5470 ca        1 BLZ     -0.111000
     20 C20         5.2730    5.0270    4.0000 ca        1 BLZ      0.025400
     21 CL2         6.1260    4.1080    2.8500 cl        1 BLZ     -0.075400
     22 C22         5.1340    1.5020    8.0730 cc        1 BLZ     -0.353700
     23 S23         4.1160    0.2300    7.6140 ss        1 BLZ      0.124200
     24 C24         5.5420    1.6480    9.4210 c         1 BLZ      0.621700
     25 O25         5.2980    0.9710   10.4170 o         1 BLZ     -0.471100
     26 N26         6.4370    2.8430    9.7230 n4        1 BLZ     -0.746400
     27 C27         3.0800    0.2660    3.6940 ca        1 BLZ     -0.062200
     28 C28         3.3000    1.3770    2.8910 ca        1 BLZ     -0.133000
     29 C29         2.8020    1.3470    1.5760 ca        1 BLZ      0.142100
     30 O30         3.0070    2.5210    0.8870 os        1 BLZ     -0.328900
     31 C31         3.0730    2.4500   -0.5380 c3        1 BLZ      0.122700
     32 H11         1.5730   -1.7300   -0.7320 h1        1 BLZ      0.055700
     33 H12         0.6830   -0.5020   -1.7760 h1        1 BLZ      0.055700
     34 H13A        0.0010   -0.9820   -0.1360 h1        1 BLZ      0.055700
     35 H4          1.3260   -1.7850    1.5170 ha        1 BLZ      0.173000
     36 H7          2.9720   -1.8550    6.2500 h5        1 BLZ      0.083800
     37 H10         5.0310    2.3000    4.7780 ha        1 BLZ      0.199000
     38 H13         6.9890    3.3040    5.1180 h1        1 BLZ      0.089700
     39 H141        8.6810    4.2260    6.7270 hc        1 BLZ      0.062367
     40 H142        7.6020    5.6470    7.0840 hc        1 BLZ      0.062367
     41 H143        8.2970    5.4310    5.4200 hc        1 BLZ      0.062367
     42 H16         5.0960    5.6930    7.3380 ha        1 BLZ      0.124000
     43 H17         3.2760    7.2000    6.5370 ha        1 BLZ      0.150000
     44 H18         2.7390    7.3170    4.0980 ha        1 BLZ      0.157000
     45 H19         4.0220    5.9300    2.4710 ha        1 BLZ      0.168000
     46 H261        5.9500    3.7050    9.4590 hn        1 BLZ      0.464133
     47 H262        7.2880    2.7800    9.1570 hn        1 BLZ      0.464133
     48 H28         3.8230    2.2800    3.2330 ha        1 BLZ      0.160000
     49 H311        3.6740    1.5710   -0.8720 h1        1 BLZ      0.056367
     50 H312        3.5740    3.4110   -0.8190 h1        1 BLZ      0.056367
     51 H313        2.0380    2.4020   -0.9580 h1        1 BLZ      0.056367
     52 H263        6.6740    2.8600   10.7200 hn        1 BLZ      0.464133
@<TRIPOS>BOND
     1    1    2 1   
     2    1   32 1   
     3    1   33 1   
     4    1   34 1   
     5    2    3 1   
     6    3    4 ar  
     7    3   29 ar  
     8    4    5 ar  
     9    4   35 1   
    10    5    6 1   
    11    5   27 ar  
    12    6    7 2   
    13    7    8 1   
    14    7   36 1   
    15    8    9 1   
    16    8   27 1   
    17    9   10 2   
    18    9   23 1   
    19   10   11 1   
    20   10   37 1   
    21   11   12 1   
    22   11   22 2   
    23   12   13 1   
    24   13   14 1   
    25   13   15 1   
    26   13   38 1   
    27   14   39 1   
    28   14   40 1   
    29   14   41 1   
    30   15   16 ar  
    31   15   20 ar  
    32   16   17 ar  
    33   16   42 1   
    34   17   18 ar  
    35   17   43 1   
    36   18   19 ar  
    37   18   44 1   
    38   19   20 ar  
    39   19   45 1   
    40   20   21 1   
    41   22   23 1   
    42   22   24 1   
    43   24   25 2   
    44   24   26 1   
    45   26   46 1   
    46   26   47 1   
    47   26   52 1   
    48   27   28 ar  
    49   28   29 ar  
    50   28   48 1   
    51   29   30 1   
    52   30   31 1   
    53   31   49 1   
    54   31   50 1   
    55   31   51 1   
@<TRIPOS>SUBSTRUCTURE
     1 BLZ         1 TEMP              0 ****  ****    0 ROOT
