@<TRIPOS>MOLECULE
BLZ
   51    54     1     0     0
SMALL
bcc


@<TRIPOS>ATOM
      1 C1          3.6920   -5.2050   16.3620 c3        1 BLZ      0.111700
      2 O2          2.4960   -4.4520   16.5710 os        1 BLZ     -0.343900
      3 C3          1.5560   -4.6140   15.5610 ca        1 BLZ      0.052100
      4 C4          0.3910   -5.3160   15.8710 ca        1 BLZ     -0.064000
      5 C5         -0.6040   -5.3960   14.8930 ca        1 BLZ      0.065400
      6 N6         -1.8670   -6.0370   14.9170 nc        1 BLZ     -0.544100
      7 C7         -2.4050   -5.8160   13.7170 cd        1 BLZ      0.430700
      8 N8         -1.5600   -5.0650   12.8490 na        1 BLZ     -0.083400
      9 C9         -1.9080   -4.5920   11.5960 cc        1 BLZ      0.012700
     10 C10        -1.5590   -3.3540   11.0550 cd        1 BLZ     -0.239000
     11 C11        -2.0800   -3.2080    9.7340 cd        1 BLZ      0.145100
     12 O12        -1.8910   -2.1250    8.9180 os        1 BLZ     -0.324900
     13 C13        -1.5810   -0.8750    9.5790 c3        1 BLZ      0.190400
     14 C14        -2.1630    0.2000    8.6730 c3        1 BLZ     -0.097100
     15 C15        -0.0980   -0.7080    9.7320 ca        1 BLZ     -0.117300
     16 C16         0.7730   -1.3290    8.8270 ca        1 BLZ     -0.099000
     17 C17         2.1510   -1.1690    8.9390 ca        1 BLZ     -0.127000
     18 C18         2.6810   -0.3760    9.9570 ca        1 BLZ     -0.112000
     19 C19         1.8310    0.2550   10.8630 ca        1 BLZ     -0.126000
     20 C20         0.4460    0.0890   10.7510 ca        1 BLZ      0.021400
     21 CL2        -0.5530    0.8840   11.8780 cl        1 BLZ     -0.093400
     22 C22        -2.8120   -4.3190    9.3190 cc        1 BLZ     -0.228700
     23 S23        -2.8190   -5.5090   10.5000 ss        1 BLZ      0.138200
     24 C24        -3.5410   -4.5330    8.0590 c         1 BLZ      0.710700
     25 O25        -4.3790   -5.4570    7.9440 o         1 BLZ     -0.633100
     26 N26        -3.2740   -3.7240    6.9850 n         1 BLZ     -0.656000
     27 C27        -0.4040   -4.7670   13.5990 ca        1 BLZ     -0.055200
     28 C28         0.7650   -4.0670   13.2990 ca        1 BLZ     -0.128000
     29 C29         1.7400   -3.9980   14.2970 ca        1 BLZ      0.095100
     30 O30         2.9430   -3.3910   13.9640 os        1 BLZ     -0.344900
     31 C31         3.1950   -2.1790   14.6800 c3        1 BLZ      0.111700
     32 H11         4.3240   -4.9470   17.2480 h1        1 BLZ      0.046033
     33 H12         4.1850   -4.8910   15.4100 h1        1 BLZ      0.046033
     34 H13A        3.4630   -6.2980   16.3430 h1        1 BLZ      0.046033
     35 H4          0.2640   -5.7850   16.8580 ha        1 BLZ      0.167000
     36 H7         -3.3910   -6.1660   13.3830 h5        1 BLZ      0.079800
     37 H10        -0.9620   -2.5890   11.5580 ha        1 BLZ      0.178000
     38 H13        -2.0890   -0.8520   10.5850 h1        1 BLZ      0.077700
     39 H141       -1.7060    0.1410    7.6560 hc        1 BLZ      0.055700
     40 H142       -1.9500    1.2020    9.1150 hc        1 BLZ      0.055700
     41 H143       -3.2660    0.0620    8.5790 hc        1 BLZ      0.055700
     42 H16         0.3500   -1.9560    8.0260 ha        1 BLZ      0.152000
     43 H17         2.8210   -1.6680    8.2230 ha        1 BLZ      0.142000
     44 H18         3.7700   -0.2470   10.0480 ha        1 BLZ      0.142000
     45 H19         2.2480    0.8830   11.6650 ha        1 BLZ      0.149000
     46 H261       -2.6750   -2.9430    7.0650 hn        1 BLZ      0.319500
     47 H262       -3.8020   -3.8450    6.1570 hn        1 BLZ      0.319500
     48 H28         0.9340   -3.5990   12.3190 ha        1 BLZ      0.161000
     49 H311        2.4130   -1.4190   14.4390 h1        1 BLZ      0.047033
     50 H312        4.1960   -1.8550   14.3010 h1        1 BLZ      0.047033
     51 H313        3.2250   -2.3760   15.7800 h1        1 BLZ      0.047033
@<TRIPOS>BOND
     1    1    2 1   
     2    1   32 1   
     3    1   33 1   
     4    1   34 1   
     5    2    3 1   
     6    3    4 ar  
     7    3   29 ar  
     8    4    5 ar  
     9    4   35 1   
    10    5    6 1   
    11    5   27 ar  
    12    6    7 2   
    13    7    8 1   
    14    7   36 1   
    15    8    9 1   
    16    8   27 1   
    17    9   10 2   
    18    9   23 1   
    19   10   11 1   
    20   10   37 1   
    21   11   12 1   
    22   11   22 2   
    23   12   13 1   
    24   13   14 1   
    25   13   15 1   
    26   13   38 1   
    27   14   39 1   
    28   14   40 1   
    29   14   41 1   
    30   15   16 ar  
    31   15   20 ar  
    32   16   17 ar  
    33   16   42 1   
    34   17   18 ar  
    35   17   43 1   
    36   18   19 ar  
    37   18   44 1   
    38   19   20 ar  
    39   19   45 1   
    40   20   21 1   
    41   22   23 1   
    42   22   24 1   
    43   24   25 2   
    44   24   26 1   
    45   26   46 1   
    46   26   47 1   
    47   27   28 ar  
    48   28   29 ar  
    49   28   48 1   
    50   29   30 1   
    51   30   31 1   
    52   31   49 1   
    53   31   50 1   
    54   31   51 1   
@<TRIPOS>SUBSTRUCTURE
     1 BLZ         1 TEMP              0 ****  ****    0 ROOT
