@<TRIPOS>MOLECULE
BLZ
   51    45     1     0     0
SMALL
bcc


@<TRIPOS>ATOM
      1 C1         -2.1420   -5.7090   -4.9020 c3        1 BLZ     -0.072000
      2 O2         -2.0340   -5.6670   -3.4970 os        1 BLZ     -0.212500
      3 C3         -2.0940   -4.3690   -2.9600 c2        1 BLZ      0.050500
      4 C4         -2.9780   -3.3160   -3.1440 c1        1 BLZ     -0.128000
      5 C5         -2.8330   -2.1340   -2.3920 c1        1 BLZ     -0.058000
      6 N6         -3.5400   -0.9770   -2.3720 n1        1 BLZ     -0.128000
      7 C7         -2.9710   -0.1530   -1.4530 c1        1 BLZ     -0.016000
      8 N8         -1.9100   -0.8020   -0.9050 n3        1 BLZ     -0.125000
      9 C9         -1.3110   -0.0910    0.0630 c2        1 BLZ     -0.203000
     10 C10        -0.6840    1.2080   -0.0970 c1        1 BLZ     -0.267000
     11 C11        -0.2040    1.7120    1.3360 c1        1 BLZ      0.110000
     12 O12         0.4330    2.9370    1.6070 o         1 BLZ     -0.195000
     13 C13         1.8350    2.8830    1.5110 c3        1 BLZ      0.077000
     14 C14         2.4140    2.4220    2.8300 c3        1 BLZ     -0.218000
     15 C15         2.3710    4.2570    1.1770 c2        1 BLZ     -0.105000
     16 C16         3.6440    4.3930    0.6460 c2        1 BLZ     -0.123000
     17 C17         4.1770    5.6550    0.4370 c1        1 BLZ     -0.131000
     18 C18         3.4370    6.7820    0.7590 c1        1 BLZ     -0.119500
     19 C19         2.1640    6.6470    1.2910 c1        1 BLZ     -0.119500
     20 C20         1.6310    5.3850    1.5000 c1        1 BLZ     -0.031000
     21 CL2         0.0020    5.2160    2.0980 cl        1 BLZ     -0.002000
     22 C22        -0.5560    0.7010    2.3160 c1        1 BLZ     -0.493000
     23 S23        -1.2590   -0.4640    1.5700 ss        1 BLZ      0.696000
     24 C24        -0.3560    0.8060    3.8150 c1        1 BLZ      0.386000
     25 O25         0.1410    1.8070    4.2930 o         1 BLZ     -0.396000
     26 N26        -0.7940   -0.2440    4.6650 n3        1 BLZ     -0.416000
     27 C27        -1.8220   -2.0250   -1.4820 c1        1 BLZ     -0.036000
     28 C28        -0.9240   -3.0950   -1.2950 c1        1 BLZ     -0.128000
     29 C29        -1.0680   -4.2580   -2.0350 c2        1 BLZ      0.050500
     30 O30         0.0610   -5.0650   -1.8060 os        1 BLZ     -0.212500
     31 C31        -0.2200   -6.2560   -1.1020 c3        1 BLZ     -0.072000
     32 H11        -1.5530   -5.0290   -5.2960 h1        1 BLZ      0.086333
     33 H12        -1.8770   -6.5980   -5.2240 h1        1 BLZ      0.086333
     34 H13A       -3.0710   -5.5300   -5.1650 h1        1 BLZ      0.086333
     35 H4         -3.6930   -3.3900   -3.8050 ha        1 BLZ      0.161000
     36 H7         -3.2760    0.7450   -1.2220 DU        1 BLZ      0.185000
     37 H10        -0.5790    1.6920   -0.9380 DU        1 BLZ      0.185000
     38 H13         2.0890    2.2540    0.8070 h1        1 BLZ      0.101000
     39 H141        2.2350    1.4670    2.9490 hc        1 BLZ      0.096000
     40 H142        1.9990    2.9260    3.5620 hc        1 BLZ      0.096000
     41 H143        3.3820    2.5770    2.8340 hc        1 BLZ      0.096000
     42 H16         4.1650    3.5990    0.4180 ha        1 BLZ      0.136000
     43 H17         5.0730    5.7510    0.0620 ha        1 BLZ      0.141000
     44 H18         3.8130    7.6710    0.6120 ha        1 BLZ      0.147000
     45 H19         1.6440    7.4410    1.5180 ha        1 BLZ      0.147000
     46 H261       -1.0760   -1.0350    4.3050 hn        1 BLZ      0.232500
     47 H262       -0.8210   -0.1180    5.5710 hn        1 BLZ      0.232500
     48 H28        -0.2020   -3.0170   -0.6440 ha        1 BLZ      0.161000
     49 H311       -1.1370   -6.2190   -0.7510 h1        1 BLZ      0.086333
     50 H312        0.4120   -6.3520   -0.3570 h1        1 BLZ      0.086333
     51 H313       -0.1330   -7.0230   -1.7080 h1        1 BLZ      0.086333
@<TRIPOS>BOND
     1    1    2 1   
     2    1   32 1   
     3    1   33 1   
     4    1   34 1   
     5    2    3 1   
     6    3    4 1   
     7    3   29 1   
     8    4   35 1   
     9    5   27 1   
    10    6    7 1   
    11    7    8 1   
    12    8    9 1   
    13    8   27 1   
    14    9   10 1   
    15    9   23 1   
    16   10   11 1   
    17   11   22 1   
    18   12   13 1   
    19   13   14 1   
    20   13   15 1   
    21   13   38 1   
    22   14   39 1   
    23   14   40 1   
    24   14   41 1   
    25   15   16 1   
    26   15   20 1   
    27   16   17 1   
    28   16   42 1   
    29   17   43 1   
    30   18   19 1   
    31   18   44 1   
    32   19   45 1   
    33   20   21 1   
    34   22   23 1   
    35   24   25 1   
    36   24   26 1   
    37   26   46 1   
    38   26   47 1   
    39   28   29 1   
    40   28   48 1   
    41   29   30 1   
    42   30   31 1   
    43   31   49 1   
    44   31   50 1   
    45   31   51 1   
@<TRIPOS>SUBSTRUCTURE
     1 BLZ         1 TEMP              0 ****  ****    0 ROOT
