@<TRIPOS>MOLECULE
BLZ
   52    55     1     0     0
SMALL
bcc


@<TRIPOS>ATOM
      1 C1          0.8770   -0.7870   -0.7130 c3        1 BLZ      0.108700
      2 O2          1.6100    0.3280   -0.2090 os        1 BLZ     -0.327900
      3 C3          2.0580    0.2340    1.0930 ca        1 BLZ      0.077100
      4 C4          1.8340   -0.8870    1.8970 ca        1 BLZ     -0.105000
      5 C5          2.3240   -0.8730    3.2010 ca        1 BLZ      0.070400
      6 N6          2.2170   -1.8580    4.2220 nc        1 BLZ     -0.486100
      7 C7          2.8330   -1.3570    5.2780 cd        1 BLZ      0.415700
      8 N8          3.3860   -0.0390    5.0480 na        1 BLZ     -0.090400
      9 C9          4.0950    0.6640    5.9710 cc        1 BLZ      0.153700
     10 C10         4.8820    1.8160    5.7500 cd        1 BLZ     -0.297000
     11 C11         5.4700    2.2830    6.9390 cd        1 BLZ      0.243100
     12 O12         6.2860    3.3600    7.0830 os        1 BLZ     -0.373900
     13 C13         6.6940    4.0640    5.8680 c3        1 BLZ      0.203400
     14 C14         7.9070    4.8710    6.2970 c3        1 BLZ     -0.103100
     15 C15         5.5900    4.9420    5.3700 ca        1 BLZ     -0.144300
     16 C16         4.8740    5.7350    6.2750 ca        1 BLZ     -0.103000
     17 C17         3.8610    6.5830    5.8380 ca        1 BLZ     -0.121000
     18 C18         3.5530    6.6550    4.4790 ca        1 BLZ     -0.093000
     19 C19         4.2590    5.8800    3.5610 ca        1 BLZ     -0.111000
     20 C20         5.2750    5.0240    4.0040 ca        1 BLZ      0.025400
     21 CL2         6.1140    4.1040    2.8460 cl        1 BLZ     -0.075400
     22 C22         5.1450    1.4880    8.0690 cc        1 BLZ     -0.353700
     23 S23         4.1160    0.2230    7.6130 ss        1 BLZ      0.124200
     24 C24         5.5620    1.6290    9.4140 c         1 BLZ      0.621700
     25 O25         5.3210    0.9510   10.4100 o         1 BLZ     -0.471100
     26 N26         6.4650    2.8180    9.7140 n4        1 BLZ     -0.746400
     27 C27         3.0560    0.2740    3.7000 ca        1 BLZ     -0.062200
     28 C28         3.2780    1.3850    2.8970 ca        1 BLZ     -0.133000
     29 C29         2.7720    1.3610    1.5860 ca        1 BLZ      0.142100
     30 O30         2.9800    2.5340    0.8970 os        1 BLZ     -0.328900
     31 C31         3.0380    2.4650   -0.5280 c3        1 BLZ      0.122700
     32 H11         0.6230   -0.4710   -1.7580 h1        1 BLZ      0.055700
     33 H12        -0.0520   -0.9500   -0.1150 h1        1 BLZ      0.055700
     34 H13A        1.5120   -1.7050   -0.7210 h1        1 BLZ      0.055700
     35 H4          1.2780   -1.7630    1.5290 ha        1 BLZ      0.173000
     36 H7          2.9510   -1.8510    6.2530 h5        1 BLZ      0.083800
     37 H10         5.0240    2.2950    4.7760 ha        1 BLZ      0.199000
     38 H13         6.9890    3.2880    5.1060 h1        1 BLZ      0.089700
     39 H141        8.6970    4.1970    6.7050 hc        1 BLZ      0.062367
     40 H142        8.3110    5.4070    5.4040 hc        1 BLZ      0.062367
     41 H143        7.6280    5.6230    7.0730 hc        1 BLZ      0.062367
     42 H16         5.1250    5.6810    7.3460 ha        1 BLZ      0.124000
     43 H17         3.3070    7.2000    6.5620 ha        1 BLZ      0.150000
     44 H18         2.7540    7.3270    4.1270 ha        1 BLZ      0.157000
     45 H19         4.0170    5.9380    2.4870 ha        1 BLZ      0.168000
     46 H261        6.7090    2.8320   10.7080 hn        1 BLZ      0.464133
     47 H262        5.9820    3.6830    9.4540 hn        1 BLZ      0.464133
     48 H28         3.8080    2.2850    3.2390 ha        1 BLZ      0.160000
     49 H311        3.6320    1.5840   -0.8670 h1        1 BLZ      0.056367
     50 H312        2.0010    2.4240   -0.9420 h1        1 BLZ      0.056367
     51 H313        3.5420    3.4240   -0.8100 h1        1 BLZ      0.056367
     52 H263        7.3130    2.7520    9.1420 hn        1 BLZ      0.464133
@<TRIPOS>BOND
     1    1    2 1   
     2    1   32 1   
     3    1   33 1   
     4    1   34 1   
     5    2    3 1   
     6    3    4 ar  
     7    3   29 ar  
     8    4    5 ar  
     9    4   35 1   
    10    5    6 1   
    11    5   27 ar  
    12    6    7 2   
    13    7    8 1   
    14    7   36 1   
    15    8    9 1   
    16    8   27 1   
    17    9   10 2   
    18    9   23 1   
    19   10   11 1   
    20   10   37 1   
    21   11   12 1   
    22   11   22 2   
    23   12   13 1   
    24   13   14 1   
    25   13   15 1   
    26   13   38 1   
    27   14   39 1   
    28   14   40 1   
    29   14   41 1   
    30   15   16 ar  
    31   15   20 ar  
    32   16   17 ar  
    33   16   42 1   
    34   17   18 ar  
    35   17   43 1   
    36   18   19 ar  
    37   18   44 1   
    38   19   20 ar  
    39   19   45 1   
    40   20   21 1   
    41   22   23 1   
    42   22   24 1   
    43   24   25 2   
    44   24   26 1   
    45   26   46 1   
    46   26   47 1   
    47   26   52 1   
    48   27   28 ar  
    49   28   29 ar  
    50   28   48 1   
    51   29   30 1   
    52   30   31 1   
    53   31   49 1   
    54   31   50 1   
    55   31   51 1   
@<TRIPOS>SUBSTRUCTURE
     1 BLZ         1 TEMP              0 ****  ****    0 ROOT
