@<TRIPOS>MOLECULE
BM0
   25    24     1     0     0
SMALL
bcc


@<TRIPOS>ATOM
      1 C1          0.5660    1.1530    0.9260 c3        1 BM0     -0.184000
      2 C2          2.5210   -1.9270   -0.6780 c3        1 BM0     -0.237000
      3 C3          2.1400   -1.4230    0.7030 c3        1 BM0     -0.081000
      4 C4          4.1400   -0.1330    1.2870 c2        1 BM0     -0.120000
      5 C5          4.7490    0.9790    1.6830 c1        1 BM0     -0.351000
      6 C6          2.0320    0.9910    1.1420 c2        1 BM0      0.084000
      7 N1          6.0040    1.3610    2.0220 n7        1 BM0      0.088000
      8 N           2.7260   -0.1200    1.0470 n3        1 BM0     -0.001000
      9 C           0.2210    1.1660   -0.5450 c3        1 BM0     -0.221000
     10 H4          2.1590   -1.2400   -1.4810 hc        1 BM0      0.109667
     11 H3          0.2600    2.1320    1.3920 hc        1 BM0      0.134500
     12 H5         -0.0150    0.3460    1.4530 hc        1 BM0      0.134500
     13 H6          2.0390   -2.9270   -0.8240 hc        1 BM0      0.109667
     14 H8          3.6260   -2.0490   -0.7820 hc        1 BM0      0.109667
     15 H7          1.0170   -1.3440    0.7730 h1        1 BM0      0.133000
     16 H9          2.4900   -2.1590    1.4850 h1        1 BM0      0.133000
     17 H10         4.5930   -1.1280    1.1170 h4        1 BM0      0.163000
     18 H11         6.1300    1.4640    3.0230 hn        1 BM0      0.269000
     19 H13         2.6030    1.9170    1.4180 h4        1 BM0      0.218000
     20 H14         6.8060    1.7490    0.1200 h4        1 BM0      0.181000
     21 H12         7.8340    2.2940    1.6210 h4        1 BM0      0.181000
     22 H           0.7680    1.9810   -1.0770 hc        1 BM0      0.102333
     23 H2         -0.8770    1.3440   -0.6650 hc        1 BM0      0.102333
     24 H1          0.4750    0.1900   -1.0250 hc        1 BM0      0.102333
     25 C7          6.9290    1.8100    1.2140 c2        1 BM0     -0.159000
@<TRIPOS>BOND
     1    1    6 1   
     2    1    9 1   
     3    1   11 1   
     4    1   12 1   
     5    2    3 1   
     6    2   10 1   
     7    2   13 1   
     8    2   14 1   
     9    3    8 1   
    10    3   15 1   
    11    3   16 1   
    12    4    5 1   
    13    4    8 1   
    14    4   17 1   
    15    5    7 1   
    16    6    8 1   
    17    6   19 1   
    18    7   18 1   
    19    7   25 1   
    20    9   22 1   
    21    9   23 1   
    22    9   24 1   
    23   20   25 1   
    24   21   25 1   
@<TRIPOS>SUBSTRUCTURE
     1 BM0         1 TEMP              0 ****  ****    0 ROOT
