@<TRIPOS>MOLECULE
BM1
   35    38     1     0     0
SMALL
bcc


@<TRIPOS>ATOM
      1 S1          0.2100   -0.2180    0.1390 ss        1 BM1     -0.332200
      2 C2          1.9370    0.1820    0.2120 c3        1 BM1     -0.030300
      3 C3          2.3210    0.3210    1.6880 c3        1 BM1      0.059000
      4 C5         -0.0800   -0.0450    1.9550 c3        1 BM1      0.281100
      5 N4          1.1600    0.5440    2.5250 n         1 BM1     -0.407800
      6 C6          0.8800    1.8850    2.9670 c         1 BM1      0.692100
      7 OE          1.7420    2.6620    3.3900 o         1 BM1     -0.573500
      8 C7         -0.5860    2.1130    2.8470 ca        1 BM1     -0.163600
      9 C12        -1.1660    0.9820    2.2160 ca        1 BM1     -0.055300
     10 C8         -1.3540    3.2010    3.2170 ca        1 BM1     -0.053000
     11 C9         -2.7310    3.1560    2.9480 ca        1 BM1     -0.141000
     12 C10        -3.3020    2.0470    2.3310 ca        1 BM1     -0.100000
     13 C11        -2.5240    0.9400    1.9600 ca        1 BM1     -0.102000
     14 C13        -0.4570   -1.3860    2.5190 ca        1 BM1     -0.075300
     15 C14        -1.2690   -2.2330    1.7520 ca        1 BM1     -0.113000
     16 C15        -1.6700   -3.4760    2.2490 ca        1 BM1     -0.080300
     17 CA         -2.5380   -4.3610    1.4370 c3        1 BM1     -0.053800
     18 C16        -1.2510   -3.8740    3.5250 ca        1 BM1     -0.122000
     19 C17        -0.4460   -3.0340    4.2880 ca        1 BM1     -0.134000
     20 C18        -0.0490   -1.7900    3.7940 ca        1 BM1     -0.100000
     21 H21         2.1220    1.1310   -0.3440 h1        1 BM1      0.080700
     22 H22         2.5270   -0.6310   -0.2710 h1        1 BM1      0.080700
     23 H31         3.0550    1.1620    1.8330 h1        1 BM1      0.082200
     24 H32         2.8050   -0.6350    2.0390 h1        1 BM1      0.082200
     25 H81        -0.8980    4.0740    3.7070 ha        1 BM1      0.155000
     26 H91        -3.3620    4.0110    3.2320 ha        1 BM1      0.140000
     27 H101       -4.3840    2.0320    2.1280 ha        1 BM1      0.138000
     28 H111       -2.9850    0.0640    1.4800 ha        1 BM1      0.149000
     29 H141       -1.5810   -1.9250    0.7400 ha        1 BM1      0.144000
     30 HA1        -3.6120   -4.1770    1.6890 hc        1 BM1      0.045367
     31 HA2        -2.3100   -5.4360    1.6400 hc        1 BM1      0.045367
     32 HA3        -2.3970   -4.1700    0.3440 hc        1 BM1      0.045367
     33 H161       -1.5600   -4.8530    3.9200 ha        1 BM1      0.132000
     34 H171       -0.1180   -3.3490    5.2900 ha        1 BM1      0.134000
     35 H181        0.5830   -1.1400    4.4170 ha        1 BM1      0.149000
@<TRIPOS>BOND
     1    1    2 1   
     2    1    4 1   
     3    2    3 1   
     4    2   21 1   
     5    2   22 1   
     6    3    5 1   
     7    3   23 1   
     8    3   24 1   
     9    4    5 1   
    10    4    9 1   
    11    4   14 1   
    12    5    6 1   
    13    6    7 2   
    14    6    8 1   
    15    8    9 ar  
    16    8   10 ar  
    17    9   13 ar  
    18   10   11 ar  
    19   10   25 1   
    20   11   12 ar  
    21   11   26 1   
    22   12   13 ar  
    23   12   27 1   
    24   13   28 1   
    25   14   15 ar  
    26   14   20 ar  
    27   15   16 ar  
    28   15   29 1   
    29   16   17 1   
    30   16   18 ar  
    31   17   30 1   
    32   17   31 1   
    33   17   32 1   
    34   18   19 ar  
    35   18   33 1   
    36   19   20 ar  
    37   19   34 1   
    38   20   35 1   
@<TRIPOS>SUBSTRUCTURE
     1 BM1         1 TEMP              0 ****  ****    0 ROOT
