@<TRIPOS>MOLECULE
BM1
   35    34     1     0     0
SMALL
bcc


@<TRIPOS>ATOM
      1 S1          1.0970    0.4240   -1.4800 ss        1 BM1      0.032000
      2 C2          2.7980    0.4090   -1.4170 c3        1 BM1     -0.291000
      3 C3          3.1230    0.9110   -0.2450 c3        1 BM1     -0.057000
      4 C5          0.6720    0.1120   -0.2060 c3        1 BM1      0.047000
      5 N4          1.8280    0.5820    0.7460 n         1 BM1     -0.266000
      6 C6          2.1970   -0.5130    1.5370 c2        1 BM1      0.329000
      7 OE          2.9320   -0.4800    2.5040 o         1 BM1     -0.298000
      8 C7          1.3800   -1.7930    1.0150 c2        1 BM1     -0.143000
      9 C12         0.5080   -1.3610   -0.0480 c2        1 BM1     -0.048000
     10 C8          1.3570   -3.1100    1.4360 c1        1 BM1     -0.053000
     11 C9          0.4840   -4.0250    0.8280 c1        1 BM1     -0.120500
     12 C10        -0.3740   -3.6020   -0.2180 c1        1 BM1     -0.120500
     13 C11        -0.3530   -2.2680   -0.6470 c1        1 BM1     -0.102000
     14 C13        -0.5650    0.8050    0.1060 c2        1 BM1     -0.068000
     15 C14        -1.2660    1.4570   -0.8970 c2        1 BM1     -0.113000
     16 C15        -2.4520    2.1110   -0.6010 c1        1 BM1     -0.073000
     17 CA         -3.2030    2.8470   -1.6910 c2        1 BM1     -0.179000
     18 C16        -2.9360    2.1140    0.6980 c2        1 BM1     -0.122000
     19 C17        -2.2350    1.4630    1.7010 c1        1 BM1     -0.134000
     20 C18        -1.0490    0.8090    1.4050 c1        1 BM1     -0.100000
     21 H21         3.1670    0.9640   -2.1350 h1        1 BM1      0.120000
     22 H22         3.1300   -0.5090   -1.4940 h1        1 BM1      0.120000
     23 H31         3.2590    1.8790   -0.3160 h1        1 BM1      0.121500
     24 H32         3.9320    0.4780    0.0970 h1        1 BM1      0.121500
     25 H81         1.9470   -3.4030    2.1560 ha        1 BM1      0.155000
     26 H91         0.4680   -4.9550    1.1260 ha        1 BM1      0.139000
     27 H101       -0.9810   -4.2400   -0.6400 ha        1 BM1      0.139000
     28 H111       -0.9440   -1.9770   -1.3670 ha        1 BM1      0.149000
     29 H141       -0.9220    1.4600   -1.8100 ha        1 BM1      0.144000
     30 HA1        -3.8300    3.4820   -1.2840 ha        1 BM1      0.084667
     31 HA2        -3.7000    2.2030   -2.2380 ha        1 BM1      0.084667
     32 HA3        -2.5660    3.3330   -2.2550 ha        1 BM1      0.084667
     33 H161       -3.7710    2.5750    0.9060 ha        1 BM1      0.132000
     34 H171       -2.5760    1.4650    2.6160 ha        1 BM1      0.134000
     35 H181       -0.5550    0.3500    2.1110 ha        1 BM1      0.149000
@<TRIPOS>BOND
     1    1    2 1   
     2    1    4 1   
     3    2    3 1   
     4    2   21 1   
     5    2   22 1   
     6    3    5 1   
     7    3   23 1   
     8    3   24 1   
     9    4    5 1   
    10    4    9 1   
    11    4   14 1   
    12    5    6 1   
    13    6    7 1   
    14    6    8 1   
    15    8    9 1   
    16    8   10 1   
    17    9   13 1   
    18   10   25 1   
    19   11   12 1   
    20   11   26 1   
    21   12   27 1   
    22   13   28 1   
    23   14   15 1   
    24   14   20 1   
    25   15   16 1   
    26   15   29 1   
    27   16   18 1   
    28   17   30 1   
    29   17   31 1   
    30   17   32 1   
    31   18   19 1   
    32   18   33 1   
    33   19   34 1   
    34   20   35 1   
@<TRIPOS>SUBSTRUCTURE
     1 BM1         1 TEMP              0 ****  ****    0 ROOT
