@<TRIPOS>MOLECULE
BM1
   35    38     1     0     0
SMALL
bcc


@<TRIPOS>ATOM
      1 S1         -1.4410    1.6770    0.2640 ss        1 BM1     -0.332200
      2 C2         -3.0260    1.0180   -0.1870 c3        1 BM1     -0.030300
      3 C3         -2.8490   -0.4800   -0.4510 c3        1 BM1      0.059000
      4 C5         -0.5130    0.1090   -0.0420 c3        1 BM1      0.281100
      5 N4         -1.4650   -0.8200   -0.7080 n         1 BM1     -0.407800
      6 C6         -1.0470   -1.0180   -2.0720 c         1 BM1      0.692100
      7 OE         -1.7000   -1.6570   -2.9020 o         1 BM1     -0.573500
      8 C7          0.2740   -0.3570   -2.2490 ca        1 BM1     -0.163600
      9 C12         0.5900    0.3450   -1.0570 ca        1 BM1     -0.055300
     10 C8          1.1210   -0.3330   -3.3410 ca        1 BM1     -0.053000
     11 C9          2.3070    0.4100   -3.2390 ca        1 BM1     -0.141000
     12 C10         2.6190    1.0980   -2.0690 ca        1 BM1     -0.100000
     13 C11         1.7630    1.0700   -0.9570 ca        1 BM1     -0.102000
     14 C13         0.0470   -0.3890    1.2600 ca        1 BM1     -0.075300
     15 C14         0.5280    0.5460    2.1860 ca        1 BM1     -0.113000
     16 C15         1.0850    0.1260    3.3970 ca        1 BM1     -0.080300
     17 CA          1.6020    1.1200    4.3670 c3        1 BM1     -0.053800
     18 C16         1.1580   -1.2430    3.6820 ca        1 BM1     -0.122000
     19 C17         0.6820   -2.1730    2.7630 ca        1 BM1     -0.134000
     20 C18         0.1300   -1.7540    1.5520 ca        1 BM1     -0.100000
     21 H21        -3.7490    1.1860    0.6440 h1        1 BM1      0.080700
     22 H22        -3.4020    1.5460   -1.0940 h1        1 BM1      0.080700
     23 H31        -3.1700   -1.0600    0.4610 h1        1 BM1      0.082200
     24 H32        -3.4830   -0.8100   -1.3210 h1        1 BM1      0.082200
     25 H81         0.8720   -0.8810   -4.2620 ha        1 BM1      0.155000
     26 H91         2.9960    0.4460   -4.0960 ha        1 BM1      0.140000
     27 H101        3.5540    1.6760   -2.0090 ha        1 BM1      0.138000
     28 H111        2.0220    1.6090   -0.0340 ha        1 BM1      0.149000
     29 H141        0.4510    1.6240    1.9670 ha        1 BM1      0.144000
     30 HA1         2.7000    1.2730    4.2070 hc        1 BM1      0.045367
     31 HA2         1.0900    2.1060    4.2450 hc        1 BM1      0.045367
     32 HA3         1.4480    0.7680    5.4170 hc        1 BM1      0.045367
     33 H161        1.5920   -1.5800    4.6350 ha        1 BM1      0.132000
     34 H171        0.7410   -3.2480    2.9890 ha        1 BM1      0.134000
     35 H181       -0.2360   -2.5080    0.8380 ha        1 BM1      0.149000
@<TRIPOS>BOND
     1    1    2 1   
     2    1    4 1   
     3    2    3 1   
     4    2   21 1   
     5    2   22 1   
     6    3    5 1   
     7    3   23 1   
     8    3   24 1   
     9    4    5 1   
    10    4    9 1   
    11    4   14 1   
    12    5    6 1   
    13    6    7 2   
    14    6    8 1   
    15    8    9 ar  
    16    8   10 ar  
    17    9   13 ar  
    18   10   11 ar  
    19   10   25 1   
    20   11   12 ar  
    21   11   26 1   
    22   12   13 ar  
    23   12   27 1   
    24   13   28 1   
    25   14   15 ar  
    26   14   20 ar  
    27   15   16 ar  
    28   15   29 1   
    29   16   17 1   
    30   16   18 ar  
    31   17   30 1   
    32   17   31 1   
    33   17   32 1   
    34   18   19 ar  
    35   18   33 1   
    36   19   20 ar  
    37   19   34 1   
    38   20   35 1   
@<TRIPOS>SUBSTRUCTURE
     1 BM1         1 TEMP              0 ****  ****    0 ROOT
