@<TRIPOS>MOLECULE
BM1
   35    38     1     0     0
SMALL
bcc


@<TRIPOS>ATOM
      1 S1          0.1940   -0.2140    0.1330 ss        1 BM1     -0.332200
      2 C2          1.9220    0.1850    0.1950 c3        1 BM1     -0.030300
      3 C3          2.3160    0.3210    1.6680 c3        1 BM1      0.059000
      4 C5         -0.0830   -0.0450    1.9520 c3        1 BM1      0.281100
      5 N4          1.1620    0.5440    2.5130 n         1 BM1     -0.407800
      6 C6          0.8850    1.8850    2.9600 c         1 BM1      0.692100
      7 OE          1.7500    2.6600    3.3780 o         1 BM1     -0.573500
      8 C7         -0.5820    2.1120    2.8500 ca        1 BM1     -0.163600
      9 C12        -1.1670    0.9820    2.2210 ca        1 BM1     -0.055300
     10 C8         -1.3470    3.1990    3.2280 ca        1 BM1     -0.053000
     11 C9         -2.7260    3.1560    2.9690 ca        1 BM1     -0.141000
     12 C10        -3.3020    2.0480    2.3530 ca        1 BM1     -0.100000
     13 C11        -2.5260    0.9400    1.9750 ca        1 BM1     -0.102000
     14 C13        -0.4560   -1.3860    2.5160 ca        1 BM1     -0.075300
     15 C14        -1.2730   -2.2320    1.7540 ca        1 BM1     -0.113000
     16 C15        -1.6700   -3.4760    2.2510 ca        1 BM1     -0.080300
     17 CA         -2.5430   -4.3600    1.4440 c3        1 BM1     -0.053800
     18 C16        -1.2430   -3.8750    3.5240 ca        1 BM1     -0.122000
     19 C17        -0.4330   -3.0360    4.2830 ca        1 BM1     -0.134000
     20 C18        -0.0400   -1.7920    3.7880 ca        1 BM1     -0.100000
     21 H21         2.1030    1.1340   -0.3610 h1        1 BM1      0.080700
     22 H22         2.5080   -0.6270   -0.2940 h1        1 BM1      0.080700
     23 H31         2.8020   -0.6350    2.0140 h1        1 BM1      0.082200
     24 H32         3.0510    1.1630    1.8090 h1        1 BM1      0.082200
     25 H81        -0.8880    4.0720    3.7160 ha        1 BM1      0.155000
     26 H91        -3.3550    4.0110    3.2590 ha        1 BM1      0.140000
     27 H101       -4.3850    2.0330    2.1590 ha        1 BM1      0.138000
     28 H111       -2.9910    0.0650    1.4980 ha        1 BM1      0.149000
     29 H141       -1.5920   -1.9230    0.7440 ha        1 BM1      0.144000
     30 HA1        -3.6160   -4.1840    1.7110 hc        1 BM1      0.045367
     31 HA2        -2.3080   -5.4360    1.6380 hc        1 BM1      0.045367
     32 HA3        -2.4160   -4.1620    0.3520 hc        1 BM1      0.045367
     33 H161       -1.5480   -4.8550    3.9200 ha        1 BM1      0.132000
     34 H171       -0.0980   -3.3520    5.2820 ha        1 BM1      0.134000
     35 H181        0.5970   -1.1430    4.4080 ha        1 BM1      0.149000
@<TRIPOS>BOND
     1    1    2 1   
     2    1    4 1   
     3    2    3 1   
     4    2   21 1   
     5    2   22 1   
     6    3    5 1   
     7    3   23 1   
     8    3   24 1   
     9    4    5 1   
    10    4    9 1   
    11    4   14 1   
    12    5    6 1   
    13    6    7 2   
    14    6    8 1   
    15    8    9 ar  
    16    8   10 ar  
    17    9   13 ar  
    18   10   11 ar  
    19   10   25 1   
    20   11   12 ar  
    21   11   26 1   
    22   12   13 ar  
    23   12   27 1   
    24   13   28 1   
    25   14   15 ar  
    26   14   20 ar  
    27   15   16 ar  
    28   15   29 1   
    29   16   17 1   
    30   16   18 ar  
    31   17   30 1   
    32   17   31 1   
    33   17   32 1   
    34   18   19 ar  
    35   18   33 1   
    36   19   20 ar  
    37   19   34 1   
    38   20   35 1   
@<TRIPOS>SUBSTRUCTURE
     1 BM1         1 TEMP              0 ****  ****    0 ROOT
