@<TRIPOS>MOLECULE
BM1
   35    38     1     0     0
SMALL
bcc


@<TRIPOS>ATOM
      1 S1          0.1930   -0.2190    0.1320 ss        1 BM1     -0.332200
      2 C2          1.9210    0.1810    0.1920 c3        1 BM1     -0.030300
      3 C3          2.3160    0.3200    1.6640 c3        1 BM1      0.059000
      4 C5         -0.0830   -0.0450    1.9500 c3        1 BM1      0.281100
      5 N4          1.1630    0.5440    2.5100 n         1 BM1     -0.407800
      6 C6          0.8860    1.8850    2.9540 c         1 BM1      0.692100
      7 OE          1.7520    2.6610    3.3700 o         1 BM1     -0.573500
      8 C7         -0.5800    2.1130    2.8450 ca        1 BM1     -0.163600
      9 C12        -1.1660    0.9820    2.2190 ca        1 BM1     -0.055300
     10 C8         -1.3450    3.2010    3.2210 ca        1 BM1     -0.053000
     11 C9         -2.7240    3.1570    2.9630 ca        1 BM1     -0.141000
     12 C10        -3.3010    2.0480    2.3500 ca        1 BM1     -0.100000
     13 C11        -2.5260    0.9400    1.9740 ca        1 BM1     -0.102000
     14 C13        -0.4560   -1.3860    2.5170 ca        1 BM1     -0.075300
     15 C14        -1.2740   -2.2330    1.7570 ca        1 BM1     -0.113000
     16 C15        -1.6710   -3.4760    2.2570 ca        1 BM1     -0.080300
     17 CA         -2.5450   -4.3610    1.4530 c3        1 BM1     -0.053800
     18 C16        -1.2420   -3.8730    3.5300 ca        1 BM1     -0.122000
     19 C17        -0.4310   -3.0330    4.2870 ca        1 BM1     -0.134000
     20 C18        -0.0380   -1.7900    3.7890 ca        1 BM1     -0.100000
     21 H21         2.1020    1.1290   -0.3660 h1        1 BM1      0.080700
     22 H22         2.5070   -0.6320   -0.2970 h1        1 BM1      0.080700
     23 H31         2.8030   -0.6360    2.0110 h1        1 BM1      0.082200
     24 H32         3.0520    1.1610    1.8030 h1        1 BM1      0.082200
     25 H81        -0.8860    4.0740    3.7080 ha        1 BM1      0.155000
     26 H91        -3.3530    4.0130    3.2520 ha        1 BM1      0.140000
     27 H101       -4.3850    2.0330    2.1560 ha        1 BM1      0.138000
     28 H111       -2.9910    0.0640    1.4980 ha        1 BM1      0.149000
     29 H141       -1.5930   -1.9250    0.7480 ha        1 BM1      0.144000
     30 HA1        -2.4270   -4.1580    0.3600 hc        1 BM1      0.045367
     31 HA2        -2.3030   -5.4360    1.6410 hc        1 BM1      0.045367
     32 HA3        -3.6170   -4.1910    1.7280 hc        1 BM1      0.045367
     33 H161       -1.5480   -4.8520    3.9280 ha        1 BM1      0.132000
     34 H171       -0.0960   -3.3480    5.2870 ha        1 BM1      0.134000
     35 H181        0.5990   -1.1400    4.4070 ha        1 BM1      0.149000
@<TRIPOS>BOND
     1    1    2 1   
     2    1    4 1   
     3    2    3 1   
     4    2   21 1   
     5    2   22 1   
     6    3    5 1   
     7    3   23 1   
     8    3   24 1   
     9    4    5 1   
    10    4    9 1   
    11    4   14 1   
    12    5    6 1   
    13    6    7 2   
    14    6    8 1   
    15    8    9 ar  
    16    8   10 ar  
    17    9   13 ar  
    18   10   11 ar  
    19   10   25 1   
    20   11   12 ar  
    21   11   26 1   
    22   12   13 ar  
    23   12   27 1   
    24   13   28 1   
    25   14   15 ar  
    26   14   20 ar  
    27   15   16 ar  
    28   15   29 1   
    29   16   17 1   
    30   16   18 ar  
    31   17   30 1   
    32   17   31 1   
    33   17   32 1   
    34   18   19 ar  
    35   18   33 1   
    36   19   20 ar  
    37   19   34 1   
    38   20   35 1   
@<TRIPOS>SUBSTRUCTURE
     1 BM1         1 TEMP              0 ****  ****    0 ROOT
