@<TRIPOS>MOLECULE
BM2
   67    61     1     0     0
SMALL
bcc


@<TRIPOS>ATOM
      1 C27        -1.3360   -2.8540    3.3620 c1        1 BM2      0.300000
      2 O28        -0.1620   -3.1760    3.4080 o         1 BM2     -0.374000
      3 C29        -2.2800   -3.2050    4.5330 c3        1 BM2     -0.179000
      4 C30        -1.6420   -4.3020    5.3970 c3        1 BM2     -0.162000
      5 C31        -2.6220   -4.6910    6.5500 c3        1 BM2     -0.058000
      6 N32        -1.9870   -5.6650    7.4170 n3        1 BM2     -0.326000
      7 C33        -2.6700   -6.1200    8.6320 c2        1 BM2      0.152000
      8 N35        -2.3670   -5.5820    9.8030 n1        1 BM2     -0.344000
      9 N34        -3.6800   -7.1630    8.5510 n3        1 BM2     -0.320000
     10 N26        -1.8400   -2.1310    2.2250 n2        1 BM2     -0.378000
     11 C25        -1.0520   -2.0400    1.0240 c3        1 BM2     -0.035000
     12 C24        -1.8200   -1.2180   -0.0360 c3        1 BM2      0.006000
     13 N20        -0.8570   -0.8860   -1.2780 n         1 BM2     -0.325000
     14 C21        -0.8520   -1.9330   -2.0200 c3        1 BM2     -0.025000
     15 C22        -2.2010   -2.6160   -1.7550 c3        1 BM2     -0.165000
     16 C23        -2.7840   -1.9050   -0.5050 c3        1 BM2     -0.177000
     17 N14         1.1740    1.9150   -2.8780 n3        1 BM2     -0.880000
     18 C15         0.6920    0.5550   -2.7940 c3        1 BM2     -0.001000
     19 C18        -0.1230    0.3780   -1.5180 c2        1 BM2      0.303000
     20 O19        -0.2200    1.2980   -0.7260 o         1 BM2     -0.375000
     21 C16         1.8620   -0.3900   -2.7790 c3        1 BM2     -0.035000
     22 O17         3.0040    0.2720   -3.2580 oh        1 BM2     -0.336000
     23 S11         1.8700    2.4650   -4.2900 s4        1 BM2      2.086800
     24 O13         2.9210    1.6000   -4.7210 o         1 BM2     -0.553900
     25 O12         0.9540    2.3660   -5.3990 o         1 BM2     -0.553900
     26 C2          2.0270    5.1270   -4.9540 c1        1 BM2     -0.084500
     27 C1          2.4560    4.1460   -4.0780 c1        1 BM2     -0.839000
     28 C8          3.4170    4.4440   -3.1110 c1        1 BM2     -0.042000
     29 C7          3.9430    5.7250   -3.0270 c1        1 BM2     -0.084500
     30 C6          4.0460    8.0190   -3.8340 c1        1 BM2     -0.084500
     31 C5          3.6230    8.9990   -4.7100 c1        1 BM2     -0.118500
     32 C4          2.6620    8.7030   -5.6780 c1        1 BM2     -0.118500
     33 C3          2.1330    7.4270   -5.7600 c1        1 BM2     -0.084500
     34 C9          2.5630    6.4310   -4.8690 c1        1 BM2     -0.031000
     35 C10         3.5100    6.7240   -3.9170 c1        1 BM2     -0.031000
     36 H291       -2.4300   -2.4150    5.0730 hc        1 BM2      0.106000
     37 H292       -3.1330   -3.5250    4.1790 hc        1 BM2      0.106000
     38 H301       -1.4630   -5.0800    4.8500 hc        1 BM2      0.107500
     39 H302       -0.8010   -3.9700    5.7800 hc        1 BM2      0.107500
     40 H311       -3.4410   -5.0780    6.1670 h1        1 BM2      0.077500
     41 H312       -2.8480   -3.8980    7.0640 h1        1 BM2      0.077500
     42 HN2        -1.1430   -5.9240    7.2560 hn        1 BM2      0.198000
     43 HN5        -1.7460   -4.9410    9.8530 DU        1 BM2      0.148000
     44 HN41       -4.2040   -7.2300    7.8130 hn        1 BM2      0.187500
     45 HN42       -3.7520   -7.7940    9.2290 hn        1 BM2      0.187500
     46 HN6        -2.6590   -1.7690    2.2510 hn        1 BM2      0.226000
     47 H251       -0.8780   -2.9520    0.6720 h1        1 BM2      0.115500
     48 H252       -0.1920   -1.5940    1.2270 h1        1 BM2      0.115500
     49 H24        -2.1620   -0.3770    0.3660 h1        1 BM2      0.101000
     50 H211       -0.1080   -2.5320   -1.7630 h1        1 BM2      0.085000
     51 H212       -0.7760   -1.6810   -2.9670 h1        1 BM2      0.085000
     52 H221       -2.8030   -2.4950   -2.5280 hc        1 BM2      0.097500
     53 H222       -2.0670   -3.5860   -1.5690 hc        1 BM2      0.097500
     54 H231       -3.0870   -2.5720    0.1600 hc        1 BM2      0.108500
     55 H232       -3.5430   -1.3050   -0.7680 hc        1 BM2      0.108500
     56 HN4         1.1480    2.4510   -2.1470 hn        1 BM2      0.263000
     57 H15         0.1340    0.3640   -3.5610 h1        1 BM2      0.116000
     58 H161        1.6700   -1.1470   -3.3430 h1        1 BM2      0.099500
     59 H162        2.0220   -0.6950   -1.8690 h1        1 BM2      0.099500
     60 HO7         3.6510   -0.3220   -3.4080 ho        1 BM2      0.230000
     61 H2          1.4190    4.9020   -5.6660 ha        1 BM2      0.145750
     62 H8          3.6750    3.7790   -2.4720 ha        1 BM2      0.168000
     63 H7          4.6070    5.9310   -2.3600 ha        1 BM2      0.145750
     64 H6          4.7250    8.2280   -3.1490 ha        1 BM2      0.145750
     65 H5          3.9940    9.8920   -4.6520 ha        1 BM2      0.137500
     66 H4          2.3630    9.3970   -6.2980 ha        1 BM2      0.137500
     67 H3          1.4670    7.2220   -6.4300 ha        1 BM2      0.145750
@<TRIPOS>BOND
     1    1    2 1   
     2    1    3 1   
     3    3    4 1   
     4    3   36 1   
     5    3   37 1   
     6    4    5 1   
     7    4   38 1   
     8    4   39 1   
     9    5    6 1   
    10    5   40 1   
    11    5   41 1   
    12    6    7 1   
    13    6   42 1   
    14    7    8 1   
    15    7    9 1   
    16    9   44 1   
    17    9   45 1   
    18   10   11 1   
    19   10   46 1   
    20   11   12 1   
    21   11   47 1   
    22   11   48 1   
    23   12   13 1   
    24   12   16 1   
    25   12   49 1   
    26   13   14 1   
    27   13   19 1   
    28   14   15 1   
    29   14   50 1   
    30   14   51 1   
    31   15   16 1   
    32   15   52 1   
    33   15   53 1   
    34   16   54 1   
    35   16   55 1   
    36   17   18 1   
    37   17   23 1   
    38   17   56 1   
    39   18   19 1   
    40   18   21 1   
    41   18   57 1   
    42   19   20 1   
    43   21   22 1   
    44   21   58 1   
    45   21   59 1   
    46   22   60 1   
    47   23   24 1   
    48   23   25 1   
    49   26   34 1   
    50   26   61 1   
    51   27   28 1   
    52   28   62 1   
    53   29   35 1   
    54   29   63 1   
    55   30   35 1   
    56   30   64 1   
    57   31   32 1   
    58   31   65 1   
    59   32   66 1   
    60   33   34 1   
    61   33   67 1   
@<TRIPOS>SUBSTRUCTURE
     1 BM2         1 TEMP              0 ****  ****    0 ROOT
