@<TRIPOS>MOLECULE
BM2
   67    69     1     0     0
SMALL
bcc


@<TRIPOS>ATOM
      1 C27         4.4250   -0.4000    1.7290 c         1 BM2      0.656100
      2 O28         4.5710   -1.2830    2.5990 o         1 BM2     -0.614100
      3 C29         5.4700    0.6830    1.5280 c3        1 BM2     -0.153400
      4 C30         6.1570    0.5530    0.1870 c3        1 BM2     -0.086400
      5 C31         7.2380    1.6310    0.0670 c3        1 BM2      0.186800
      6 N32         7.9770    1.5200   -1.1740 nh        1 BM2     -0.803200
      7 C33         9.0470    2.4650   -1.3880 c2        1 BM2      0.753100
      8 N35         9.2200    3.4830   -0.5830 n2        1 BM2     -0.870100
      9 N34         9.9380    2.1140   -2.4520 nh        1 BM2     -0.943800
     10 N26         3.3170   -0.3780    0.9060 n         1 BM2     -0.568900
     11 C25         2.2490   -1.3290    1.0010 c3        1 BM2      0.081000
     12 C24         1.0290   -0.8190    1.8210 c3        1 BM2      0.084700
     13 N20        -0.1470   -1.6660    1.6270 n         1 BM2     -0.476800
     14 C21        -0.6090   -2.2420    2.8720 c3        1 BM2      0.093000
     15 C22         0.3490   -1.7820    3.9830 c3        1 BM2     -0.086400
     16 C23         1.3320   -0.8140    3.3340 c3        1 BM2     -0.098400
     17 N14        -3.0600   -2.0270   -0.6170 n3        1 BM2     -0.902100
     18 C15        -2.1210   -2.5390    0.3350 c3        1 BM2      0.188500
     19 C18        -0.8700   -1.6310    0.4510 c         1 BM2      0.651100
     20 O19        -0.4900   -0.9200   -0.4990 o         1 BM2     -0.597100
     21 C16        -1.6390   -3.9730    0.0060 c3        1 BM2      0.120400
     22 O17        -1.0340   -3.9600   -1.2730 oh        1 BM2     -0.589800
     23 O13        -5.4030   -2.0030   -1.3920 o         1 BM2     -0.656300
     24 O12        -4.9530   -2.1340    0.9720 o         1 BM2     -0.656300
     25 C2         -4.6570    0.8280   -1.3710 ca        1 BM2      0.034000
     26 C1         -4.5590    0.0570   -0.2310 ca        1 BM2     -0.384500
     27 C8         -4.4580    0.7080    1.0280 ca        1 BM2     -0.045000
     28 C7         -4.4480    2.0760    1.1220 ca        1 BM2     -0.135000
     29 C6         -4.5290    4.3000    0.0150 ca        1 BM2     -0.134000
     30 C5         -4.6250    5.0460   -1.1340 ca        1 BM2     -0.102000
     31 C4         -4.7380    4.4120   -2.3960 ca        1 BM2     -0.136000
     32 C3         -4.7500    3.0420   -2.4840 ca        1 BM2     -0.097000
     33 C9         -4.6500    2.2450   -1.3100 ca        1 BM2     -0.072000
     34 C10        -4.5390    2.8800   -0.0470 ca        1 BM2      0.013000
     35 H291        4.9910    1.6930    1.6260 hc        1 BM2      0.073700
     36 H292        6.2230    0.5800    2.3550 hc        1 BM2      0.073700
     37 H301        6.6150   -0.4670    0.0960 hc        1 BM2      0.053700
     38 H302        5.4110    0.6640   -0.6430 hc        1 BM2      0.053700
     39 H311        6.7470    2.6410    0.1810 h1        1 BM2      0.054200
     40 H312        7.9720    1.5140    0.9140 h1        1 BM2      0.054200
     41 HN2         7.3730    1.4710   -1.9710 hn        1 BM2      0.381800
     42 HN5        10.0370    4.0290   -0.7450 hn        1 BM2      0.395400
     43 HN41        9.6790    1.3290   -3.0040 hn        1 BM2      0.395800
     44 HN42       10.2560    2.8880   -2.9910 hn        1 BM2      0.395800
     45 HN6         3.1860    0.3930    0.2960 hn        1 BM2      0.311500
     46 H251        2.6410   -2.2740    1.4740 h1        1 BM2      0.076200
     47 H252        1.8990   -1.5600   -0.0480 h1        1 BM2      0.076200
     48 H24         0.7730    0.2240    1.4680 h1        1 BM2      0.059700
     49 H211       -1.6590   -1.9040    3.1010 h1        1 BM2      0.041200
     50 H212       -0.6150   -3.3640    2.7910 h1        1 BM2      0.041200
     51 H221       -0.2220   -1.2870    4.8060 hc        1 BM2      0.055700
     52 H222        0.8860   -2.6610    4.4170 hc        1 BM2      0.055700
     53 H231        1.1990    0.2180    3.7420 hc        1 BM2      0.068200
     54 H232        2.3900   -1.1280    3.5250 hc        1 BM2      0.068200
     55 HN4        -2.6510   -1.9150   -1.5190 hn        1 BM2      0.472800
     56 H15        -2.6420   -2.5990    1.3420 h1        1 BM2      0.091700
     57 H161       -0.8930   -4.2950    0.7820 h1        1 BM2      0.039200
     58 H162       -2.5140   -4.6760    0.0190 h1        1 BM2      0.039200
     59 HO7        -0.8380   -4.8790   -1.4930 ho        1 BM2      0.408000
     60 H8         -4.4070    0.0840    1.9370 ha        1 BM2      0.151000
     61 H7         -4.3720    2.5730    2.1010 ha        1 BM2      0.140000
     62 H6         -4.4420    4.7850    0.9990 ha        1 BM2      0.138000
     63 H5         -4.6180    6.1460   -1.0900 ha        1 BM2      0.136000
     64 H4         -4.8150    5.0340   -3.3000 ha        1 BM2      0.138000
     65 H3         -4.8380    2.5390   -3.4590 ha        1 BM2      0.139000
     66 S11        -4.5950   -1.6260   -0.3000 sy        1 BM2      1.519200
     67 H2         -4.7600    0.3420   -2.3590 ha        1 BM2      0.151000
@<TRIPOS>BOND
     1    1    2 2   
     2    1    3 1   
     3    1   10 1   
     4    3    4 1   
     5    3   35 1   
     6    3   36 1   
     7    4    5 1   
     8    4   37 1   
     9    4   38 1   
    10    5    6 1   
    11    5   39 1   
    12    5   40 1   
    13    6    7 1   
    14    6   41 1   
    15    7    8 2   
    16    7    9 1   
    17    8   42 1   
    18    9   43 1   
    19    9   44 1   
    20   10   11 1   
    21   10   45 1   
    22   11   12 1   
    23   11   46 1   
    24   11   47 1   
    25   12   13 1   
    26   12   16 1   
    27   12   48 1   
    28   13   14 1   
    29   13   19 1   
    30   14   15 1   
    31   14   49 1   
    32   14   50 1   
    33   15   16 1   
    34   15   51 1   
    35   15   52 1   
    36   16   53 1   
    37   16   54 1   
    38   17   18 1   
    39   17   55 1   
    40   17   66 1   
    41   18   19 1   
    42   18   21 1   
    43   18   56 1   
    44   19   20 2   
    45   21   22 1   
    46   21   57 1   
    47   21   58 1   
    48   22   59 1   
    49   23   66 2   
    50   24   66 2   
    51   25   26 ar  
    52   25   33 ar  
    53   25   67 1   
    54   26   27 ar  
    55   26   66 1   
    56   27   28 ar  
    57   27   60 1   
    58   28   34 ar  
    59   28   61 1   
    60   29   30 ar  
    61   29   34 ar  
    62   29   62 1   
    63   30   31 ar  
    64   30   63 1   
    65   31   32 ar  
    66   31   64 1   
    67   32   33 ar  
    68   32   65 1   
    69   33   34 ar  
@<TRIPOS>SUBSTRUCTURE
     1 BM2         1 TEMP              0 ****  ****    0 ROOT
