@<TRIPOS>MOLECULE
BM3
   31    31     1     0     0
SMALL
bcc


@<TRIPOS>ATOM
      1 C1          0.0750    0.1850   -0.1080 c3        1 BM3      0.326900
      2 O1         -0.0980   -1.1360    0.3180 oh        1 BM3     -0.609800
      3 C2          1.6150    0.4340   -0.1170 c3        1 BM3      0.090500
      4 N2          1.9200    1.7640   -0.7450 n4        1 BM3     -0.682800
      5 C7          1.9430    1.6800   -2.2600 c         1 BM3      0.554100
      6 O7          0.8710    1.8710   -2.8110 o         1 BM3     -0.400100
      7 C8          3.2690    1.3920   -2.8720 c3        1 BM3     -0.187100
      8 C3          2.1380    0.3520    1.3350 c3        1 BM3      0.087100
      9 O3          3.4900    0.7770    1.3270 oh        1 BM3     -0.636800
     10 C4          1.3220    1.2530    2.2880 c3        1 BM3      0.093100
     11 O4          1.7120    0.9810    3.6180 oh        1 BM3     -0.563800
     12 C5         -0.1690    0.8940    2.1670 c3        1 BM3      0.132100
     13 C6         -1.0520    1.8420    2.9820 c3        1 BM3      0.142400
     14 O6         -2.2650    1.1500    3.2060 oh        1 BM3     -0.592800
     15 O5         -0.5660    1.0530    0.7960 os        1 BM3     -0.437600
     16 H1         -0.4000    0.3900   -1.1110 h2        1 BM3      0.108700
     17 HA         -1.0520   -1.3010    0.3890 ho        1 BM3      0.464000
     18 H2          2.1220   -0.3670   -0.7310 hx        1 BM3      0.127700
     19 HB          1.1970    2.4330   -0.4410 hn        1 BM3      0.473300
     20 H3          2.0330   -0.7230    1.6610 h1        1 BM3      0.125700
     21 H8C1        3.7620    0.5090   -2.3910 hc        1 BM3      0.117033
     22 H8C2        3.9400    2.2850   -2.7730 hc        1 BM3      0.117033
     23 H8C3        3.1200    1.1770   -3.9640 hc        1 BM3      0.117033
     24 HC          3.9670    0.2540    1.9870 ho        1 BM3      0.456000
     25 H4          1.4910    2.3350    2.0350 h1        1 BM3      0.043700
     26 HD          2.5350    1.4620    3.7770 ho        1 BM3      0.422000
     27 H5         -0.3420   -0.1690    2.4950 h1        1 BM3      0.110700
     28 H6C1       -0.5340    2.0640    3.9540 h1        1 BM3      0.052200
     29 H6C2       -1.2420    2.7920    2.4150 h1        1 BM3      0.052200
     30 H6         -2.8140    1.7180    3.7620 ho        1 BM3      0.424000
     31 H22         2.8380    2.0780   -0.4010 hn        1 BM3      0.473300
@<TRIPOS>BOND
     1    1    2 1   
     2    1    3 1   
     3    1   15 1   
     4    1   16 1   
     5    2   17 1   
     6    3    4 1   
     7    3    8 1   
     8    3   18 1   
     9    4    5 1   
    10    4   19 1   
    11    4   31 1   
    12    5    6 2   
    13    5    7 1   
    14    7   21 1   
    15    7   22 1   
    16    7   23 1   
    17    8    9 1   
    18    8   10 1   
    19    8   20 1   
    20    9   24 1   
    21   10   11 1   
    22   10   12 1   
    23   10   25 1   
    24   11   26 1   
    25   12   13 1   
    26   12   15 1   
    27   12   27 1   
    28   13   14 1   
    29   13   28 1   
    30   13   29 1   
    31   14   30 1   
@<TRIPOS>SUBSTRUCTURE
     1 BM3         1 TEMP              0 ****  ****    0 ROOT
