@<TRIPOS>MOLECULE
BM3
   30    30     1     0     0
SMALL
bcc


@<TRIPOS>ATOM
      1 C1          2.3130    0.1090   -1.6610 c3        1 BM3      0.316900
      2 O1          1.1710   -0.3920   -2.3150 oh        1 BM3     -0.625800
      3 C2          2.1880   -0.2860   -0.1610 c3        1 BM3      0.101700
      4 N2          3.4080   -0.0360    0.5660 n         1 BM3     -0.559900
      5 C7          4.5450   -0.7990    0.3530 c         1 BM3      0.657100
      6 O7          4.6260   -1.5700   -0.6240 o         1 BM3     -0.613100
      7 C8          5.6910   -0.6140    1.3160 c3        1 BM3     -0.174100
      8 C3          0.9700    0.4660    0.4220 c3        1 BM3      0.103100
      9 O3          0.9050    0.2100    1.8140 oh        1 BM3     -0.602800
     10 C4          1.0740    1.9750    0.1470 c3        1 BM3      0.077100
     11 O4         -0.0550    2.6350    0.6900 oh        1 BM3     -0.594800
     12 C5          1.2090    2.2190   -1.3600 c3        1 BM3      0.076100
     13 C6          1.4850    3.6980   -1.6530 c3        1 BM3      0.137400
     14 O6          1.3750    3.9700   -3.0320 oh        1 BM3     -0.595800
     15 O5          2.3190    1.5030   -1.9020 os        1 BM3     -0.447600
     16 H1          3.2780   -0.2660   -2.1100 h2        1 BM3      0.113700
     17 HA          1.3090   -0.2730   -3.2630 ho        1 BM3      0.422000
     18 H2          1.9620   -1.3960   -0.1410 h1        1 BM3      0.089700
     19 HB          3.3070    0.4430    1.4320 hn        1 BM3      0.321500
     20 H3          0.0470    0.0530   -0.0780 h1        1 BM3      0.067700
     21 H8C1        5.3800   -0.8960    2.3510 hc        1 BM3      0.068367
     22 H8C2        6.5360   -1.2720    0.9980 hc        1 BM3      0.068367
     23 H8C3        6.0370    0.4470    1.3150 hc        1 BM3      0.068367
     24 HC          0.2780    0.8490    2.1830 ho        1 BM3      0.424000
     25 H4          1.9480    2.4170    0.7030 h1        1 BM3      0.096700
     26 HD         -0.8210    2.3980    0.1520 ho        1 BM3      0.407000
     27 H5          0.2720    1.8850   -1.8880 h1        1 BM3      0.063700
     28 H6C1        2.5020    3.9790   -1.2740 h1        1 BM3      0.061700
     29 H6C2        0.6970    4.3270   -1.1590 h1        1 BM3      0.061700
     30 H6          2.0410    3.4310   -3.4800 ho        1 BM3      0.412000
@<TRIPOS>BOND
     1    1    2 1   
     2    1    3 1   
     3    1   15 1   
     4    1   16 1   
     5    2   17 1   
     6    3    4 1   
     7    3    8 1   
     8    3   18 1   
     9    4    5 1   
    10    4   19 1   
    11    5    6 2   
    12    5    7 1   
    13    7   21 1   
    14    7   22 1   
    15    7   23 1   
    16    8    9 1   
    17    8   10 1   
    18    8   20 1   
    19    9   24 1   
    20   10   11 1   
    21   10   12 1   
    22   10   25 1   
    23   11   26 1   
    24   12   13 1   
    25   12   15 1   
    26   12   27 1   
    27   13   14 1   
    28   13   28 1   
    29   13   29 1   
    30   14   30 1   
@<TRIPOS>SUBSTRUCTURE
     1 BM3         1 TEMP              0 ****  ****    0 ROOT
