@<TRIPOS>MOLECULE
BM3
   31    31     1     0     0
SMALL
bcc


@<TRIPOS>ATOM
      1 C1          0.0930    0.1680   -0.1130 c3        1 BM3      0.326900
      2 O1         -0.0640   -1.1550    0.3150 oh        1 BM3     -0.609800
      3 C2          1.6290    0.4400   -0.1120 c3        1 BM3      0.090500
      4 N2          1.9190    1.7720   -0.7420 ny        1 BM3     -0.682800
      5 C7          1.9540    1.6830   -2.2570 c         1 BM3      0.554100
      6 O7          0.8840    1.8570   -2.8160 o         1 BM3     -0.400100
      7 C8          3.2890    1.4130   -2.8570 c3        1 BM3     -0.187100
      8 C3          2.1420    0.3700    1.3450 c3        1 BM3      0.087100
      9 O3          3.4880    0.8150    1.3450 oh        1 BM3     -0.636800
     10 C4          1.3060    1.2620    2.2880 c3        1 BM3      0.093100
     11 O4          1.6900    1.0000    3.6210 oh        1 BM3     -0.563800
     12 C5         -0.1790    0.8800    2.1570 c3        1 BM3      0.132100
     13 C6         -1.0810    1.8180    2.9620 c3        1 BM3      0.142400
     14 O6         -2.2860    1.1080    3.1800 oh        1 BM3     -0.592800
     15 O5         -0.5680    1.0290    0.7830 os        1 BM3     -0.437600
     16 H1         -0.3780    0.3620   -1.1210 h2        1 BM3      0.108700
     17 HA         -1.0160   -1.3330    0.3800 ho        1 BM3      0.464000
     18 H2          2.1520   -0.3550   -0.7190 hx        1 BM3      0.127700
     19 HB          2.8290    2.1000   -0.3920 hn        1 BM3      0.473300
     20 H3          2.0510   -0.7060    1.6730 h1        1 BM3      0.125700
     21 H8C1        3.7910    0.5390   -2.3710 hc        1 BM3      0.117033
     22 H8C2        3.9460    2.3160   -2.7560 hc        1 BM3      0.117033
     23 H8C3        3.1510    1.1930   -3.9500 hc        1 BM3      0.117033
     24 HC          3.9680    0.3020    2.0100 ho        1 BM3      0.456000
     25 H4          1.4600    2.3460    2.0330 h1        1 BM3      0.043700
     26 HD          2.5050    1.4940    3.7860 ho        1 BM3      0.422000
     27 H5         -0.3380   -0.1840    2.4880 h1        1 BM3      0.110700
     28 H6C1       -1.2820    2.7620    2.3910 h1        1 BM3      0.052200
     29 H6C2       -0.5750    2.0510    3.9380 h1        1 BM3      0.052200
     30 H6         -2.8470    1.6700    3.7300 ho        1 BM3      0.424000
     31 H22         1.1840    2.4310   -0.4460 hn        1 BM3      0.473300
@<TRIPOS>BOND
     1    1    2 1   
     2    1    3 1   
     3    1   15 1   
     4    1   16 1   
     5    2   17 1   
     6    3    4 1   
     7    3    8 1   
     8    3   18 1   
     9    4    5 1   
    10    4   19 1   
    11    4   31 1   
    12    5    6 2   
    13    5    7 1   
    14    7   21 1   
    15    7   22 1   
    16    7   23 1   
    17    8    9 1   
    18    8   10 1   
    19    8   20 1   
    20    9   24 1   
    21   10   11 1   
    22   10   12 1   
    23   10   25 1   
    24   11   26 1   
    25   12   13 1   
    26   12   15 1   
    27   12   27 1   
    28   13   14 1   
    29   13   28 1   
    30   13   29 1   
    31   14   30 1   
@<TRIPOS>SUBSTRUCTURE
     1 BM3         1 TEMP              0 ****  ****    0 ROOT
