@<TRIPOS>MOLECULE
BM3
   30    30     1     0     0
SMALL
bcc


@<TRIPOS>ATOM
      1 C1         -1.2440   -0.9690   -0.6770 c3        1 BM3      0.330900
      2 O1         -1.6740   -2.1830   -0.1920 oh        1 BM3     -0.617800
      3 C2          0.2690   -0.9670   -0.7210 c3        1 BM3      0.049700
      4 N2          0.7190    0.2140   -1.4450 n         1 BM3     -0.561900
      5 C7          1.4040    0.0680   -2.6990 c         1 BM3      0.665100
      6 O7          1.6090   -1.0410   -3.1540 o         1 BM3     -0.616100
      7 C8          1.9070    1.2960   -3.4370 c3        1 BM3     -0.172100
      8 C3          0.8720   -0.9580    0.6340 c3        1 BM3      0.085100
      9 O3          2.3000   -0.7750    0.5090 oh        1 BM3     -0.615800
     10 C4          0.3160    0.1360    1.4950 c3        1 BM3      0.127100
     11 O4          0.8070   -0.0310    2.8290 oh        1 BM3     -0.595800
     12 C5         -1.2020    0.1300    1.5280 c3        1 BM3      0.101100
     13 C6         -1.6780    1.3560    2.2580 c3        1 BM3      0.140400
     14 O6         -3.0910    1.3760    2.2760 oh        1 BM3     -0.593800
     15 O5         -1.7920    0.1170    0.1880 os        1 BM3     -0.467600
     16 H1         -1.5860   -0.8520   -1.5830 h2        1 BM3      0.083700
     17 HA         -2.2520   -2.5420   -0.7630 ho        1 BM3      0.425000
     18 H2          0.5730   -1.7650   -1.1970 h1        1 BM3      0.106700
     19 HB          0.6060    1.0420   -1.0810 hn        1 BM3      0.313500
     20 H3          0.6980   -1.8240    1.0660 h1        1 BM3      0.076700
     21 H8C1        2.3830    1.8830   -2.8090 hc        1 BM3      0.070367
     22 H8C2        1.1480    1.7790   -3.8230 hc        1 BM3      0.070367
     23 H8C3        2.5220    1.0190   -4.1570 hc        1 BM3      0.070367
     24 HC          2.7220   -1.4910    0.8370 ho        1 BM3      0.437000
     25 H4          0.6220    0.9960    1.1500 h1        1 BM3      0.047700
     26 HD          0.6060   -0.8450    3.1190 ho        1 BM3      0.428000
     27 H5         -1.5050   -0.6640    2.0130 h1        1 BM3      0.081700
     28 H6C1       -1.3470    2.1570    1.8020 h1        1 BM3      0.062700
     29 H6C2       -1.3390    1.3410    3.1800 h1        1 BM3      0.062700
     30 H6         -3.3730    1.9960    2.8520 ho        1 BM3      0.407000
@<TRIPOS>BOND
     1    1    2 1   
     2    1    3 1   
     3    1   15 1   
     4    1   16 1   
     5    2   17 1   
     6    3    4 1   
     7    3    8 1   
     8    3   18 1   
     9    4    5 1   
    10    4   19 1   
    11    5    6 2   
    12    5    7 1   
    13    7   21 1   
    14    7   22 1   
    15    7   23 1   
    16    8    9 1   
    17    8   10 1   
    18    8   20 1   
    19    9   24 1   
    20   10   11 1   
    21   10   12 1   
    22   10   25 1   
    23   11   26 1   
    24   12   13 1   
    25   12   15 1   
    26   12   27 1   
    27   13   14 1   
    28   13   28 1   
    29   13   29 1   
    30   14   30 1   
@<TRIPOS>SUBSTRUCTURE
     1 BM3         1 TEMP              0 ****  ****    0 ROOT
