@<TRIPOS>MOLECULE
BM3
   31    31     1     0     0
SMALL
bcc


@<TRIPOS>ATOM
      1 C1          0.0550    0.1950   -0.1530 c3        1 BM3      0.323900
      2 O1         -0.1390   -1.1330    0.2430 oh        1 BM3     -0.606800
      3 C2          1.5970    0.4210   -0.1540 c3        1 BM3      0.098500
      4 N2          1.9320    1.7520   -0.7610 n4        1 BM3     -0.683800
      5 C7          2.0030    1.6770   -2.2760 c         1 BM3      0.556100
      6 O7          0.9480    1.8660   -2.8580 o         1 BM3     -0.404100
      7 C8          3.3500    1.3980   -2.8450 c3        1 BM3     -0.188100
      8 C3          2.1210    0.3080    1.2950 c3        1 BM3      0.095100
      9 O3          3.4810    0.7070    1.2740 oh        1 BM3     -0.630800
     10 C4          1.3090    1.1910    2.2650 c3        1 BM3      0.078100
     11 O4          1.8130    1.0130    3.5680 oh        1 BM3     -0.572800
     12 C5         -0.1810    0.8530    2.1360 c3        1 BM3      0.097100
     13 C6         -1.0600    1.7830    2.9790 c3        1 BM3      0.134400
     14 O6         -2.0190    0.9460    3.5990 oh        1 BM3     -0.599800
     15 O5         -0.5850    1.0440    0.7720 os        1 BM3     -0.438600
     16 H1         -0.4160    0.4330   -1.1520 h2        1 BM3      0.110700
     17 HA         -1.0940   -1.3070    0.2360 ho        1 BM3      0.461000
     18 H2          2.0920   -0.3830   -0.7760 hx        1 BM3      0.132700
     19 HB          2.8440    2.0510   -0.3840 hn        1 BM3      0.473800
     20 H3          2.0350   -0.7770    1.5940 h1        1 BM3      0.110700
     21 H8C1        3.8410    0.5270   -2.3410 hc        1 BM3      0.118033
     22 H8C2        3.2360    1.1700   -3.9390 hc        1 BM3      0.118033
     23 H8C3        4.0070    2.3010   -2.7360 hc        1 BM3      0.118033
     24 HC          3.7830    0.7360    2.1960 ho        1 BM3      0.466000
     25 H4          1.4930    2.2800    2.0410 h1        1 BM3      0.080700
     26 HD          1.3900    0.2350    3.9600 ho        1 BM3      0.431000
     27 H5         -0.3640   -0.2200    2.4330 h1        1 BM3      0.101700
     28 H6C1       -0.4300    2.2870    3.7620 h1        1 BM3      0.058200
     29 H6C2       -1.5560    2.5510    2.3290 h1        1 BM3      0.058200
     30 H6         -2.6890    1.5220    3.9910 ho        1 BM3      0.428000
     31 H22         1.2100    2.4290   -0.4760 hn        1 BM3      0.473800
@<TRIPOS>BOND
     1    1    2 1   
     2    1    3 1   
     3    1   15 1   
     4    1   16 1   
     5    2   17 1   
     6    3    4 1   
     7    3    8 1   
     8    3   18 1   
     9    4    5 1   
    10    4   19 1   
    11    4   31 1   
    12    5    6 2   
    13    5    7 1   
    14    7   21 1   
    15    7   22 1   
    16    7   23 1   
    17    8    9 1   
    18    8   10 1   
    19    8   20 1   
    20    9   24 1   
    21   10   11 1   
    22   10   12 1   
    23   10   25 1   
    24   11   26 1   
    25   12   13 1   
    26   12   15 1   
    27   12   27 1   
    28   13   14 1   
    29   13   28 1   
    30   13   29 1   
    31   14   30 1   
@<TRIPOS>SUBSTRUCTURE
     1 BM3         1 TEMP              0 ****  ****    0 ROOT
