@<TRIPOS>MOLECULE
BM4
   99    97     1     0     0
SMALL
bcc


@<TRIPOS>ATOM
      1 OAU         0.0320   -3.3340  -11.1360 oh        1 BM4     -0.254000
      2 CAS        -0.3860   -2.5360  -10.0140 c2        1 BM4      0.079000
      3 CAQ         0.3790   -1.4380   -9.6110 c2        1 BM4     -0.160000
      4 CAT        -1.5620   -2.8590   -9.3260 c1        1 BM4     -0.216000
      5 CAR        -1.9720   -2.0830   -8.2360 c1        1 BM4     -0.131500
      6 CAP        -1.1930   -0.9650   -7.8260 c1        1 BM4     -0.131500
      7 CAO        -0.0390   -0.6460   -8.4990 c1        1 BM4     -0.021000
      8 CAC         0.7900    0.5670   -8.0670 c3        1 BM4      0.000000
      9 CAM         0.8710    1.5680   -9.2390 c3        1 BM4     -0.154000
     10 CAN        -0.5650    1.7310   -9.8990 c3        1 BM4     -0.214000
     11 CAB         0.1120    1.2520   -6.8650 c3        1 BM4     -0.043000
     12 CAD         2.1830    0.1110   -7.7070 c3        1 BM4     -0.146000
     13 CAE         3.2040    1.1700   -8.0610 c3        1 BM4     -0.152000
     14 CAF         3.2980    2.2260   -6.9560 c3        1 BM4     -0.156000
     15 CAG         1.9080    2.7900   -6.6220 c3        1 BM4     -0.048000
     16 NAA         1.1080    1.8110   -5.9590 n3        1 BM4     -0.290000
     17 CAH         0.4310    2.4290   -4.7890 c3        1 BM4     -0.050000
     18 CAI         1.2460    2.1290   -3.5020 c3        1 BM4     -0.162000
     19 CAJ         0.4070    2.5290   -2.2500 c3        1 BM4     -0.159000
     20 CAK         1.1090    1.9880   -0.9540 c3        1 BM4     -0.157000
     21 CAL         0.2280    2.2680    0.2570 c3        1 BM4     -0.158000
     22 CAV         0.7940    1.5230    1.4920 c3        1 BM4     -0.157000
     23 CAW        -0.2490    1.5780    2.6560 c3        1 BM4     -0.159000
     24 CAX         0.3590    0.9240    3.9310 c3        1 BM4     -0.161000
     25 CAY        -0.7410    0.8760    5.0810 c3        1 BM4     -0.050000
     26 NAZ        -0.2280    0.0960    6.2220 n3        1 BM4     -0.290000
     27 HOAU       -0.4000   -3.0700  -11.8640 ho        1 BM4      0.217000
     28 HAQ         1.1910   -1.2140  -10.0850 ha        1 BM4      0.151000
     29 HAT        -2.1020   -3.6350   -9.6100 ha        1 BM4      0.133000
     30 HAR        -2.8050   -2.3110   -7.7500 ha        1 BM4      0.133750
     31 HAP        -1.4760   -0.4290   -7.0750 ha        1 BM4      0.133750
     32 HAM         1.1740    2.4290   -8.9080 hc        1 BM4      0.085000
     33 HAMA        1.5030    1.2350   -9.9110 hc        1 BM4      0.085000
     34 HAN        -1.0740    0.8910   -9.7930 hc        1 BM4      0.075333
     35 HANA       -1.0530    2.4730   -9.4520 hc        1 BM4      0.075333
     36 HANB       -0.4640    1.9360  -10.8660 hc        1 BM4      0.075333
     37 HAB        -0.4720    1.9790   -7.1920 h1        1 BM4      0.071500
     38 HABA       -0.4260    0.6000   -6.3860 h1        1 BM4      0.071500
     39 HAD         2.3910   -0.7200   -8.2000 hc        1 BM4      0.089500
     40 HADA        2.2240   -0.0680   -6.7330 hc        1 BM4      0.089500
     41 HAE         2.9390    1.6050   -8.9010 hc        1 BM4      0.076000
     42 HAEA        4.0880    0.7430   -8.1810 hc        1 BM4      0.076000
     43 HAF         3.6950    1.8050   -6.1260 hc        1 BM4      0.083000
     44 HAFA        3.8810    2.9600   -7.2580 hc        1 BM4      0.083000
     45 HAG         1.4570    3.0620   -7.4610 h1        1 BM4      0.067500
     46 HAGA        2.0100    3.5950   -6.0240 h1        1 BM4      0.067500
     47 HAH        -0.4810    2.0520   -4.6980 h1        1 BM4      0.066500
     48 HAHA        0.3720    3.4190   -4.9220 h1        1 BM4      0.066500
     49 HAI         1.4570    1.1600   -3.4630 hc        1 BM4      0.088000
     50 HAIA        2.0840    2.6480   -3.5150 hc        1 BM4      0.088000
     51 HAJ        -0.4910    2.1410   -2.3210 hc        1 BM4      0.077500
     52 HAJA        0.3370    3.5300   -2.1990 hc        1 BM4      0.077500
     53 HAK         1.2510    1.0160   -1.0390 hc        1 BM4      0.080000
     54 HAKA        1.9620    2.4310   -0.8410 hc        1 BM4      0.080000
     55 HAL         0.2140    3.2450    0.4370 hc        1 BM4      0.078500
     56 HALA       -0.6720    1.9600    0.0790 hc        1 BM4      0.078500
     57 HAV         1.6250    1.9510    1.7780 hc        1 BM4      0.080000
     58 HAVA        0.9750    0.5730    1.2530 hc        1 BM4      0.080000
     59 HAW        -0.4750    2.5050    2.8440 hc        1 BM4      0.078000
     60 HAWA       -1.0720    1.0820    2.3880 hc        1 BM4      0.078000
     61 HAX         1.1380    1.4610    4.2390 hc        1 BM4      0.087500
     62 HAXA        0.6510    0.0180    3.7240 hc        1 BM4      0.087500
     63 HAY        -0.9440    1.7790    5.3720 h1        1 BM4      0.067500
     64 HAYA       -1.5480    0.4580    4.7400 h1        1 BM4      0.067500
     65 C24         0.3200    0.9670    7.1730 c3        1 BM4     -0.048000
     66 C25         1.5060   -0.7540    8.5420 c3        1 BM4     -0.152000
     67 C26        -1.3040   -0.6880    6.7940 c3        1 BM4     -0.043000
     68 C27        -0.8080   -1.5140    7.9950 c3        1 BM4     -0.001000
     69 C28         0.6520   -1.8270    7.8630 c3        1 BM4     -0.144000
     70 C29        -2.6030   -3.0880    7.1390 c1        1 BM4     -0.131500
     71 C30        -1.6020   -2.8320    8.0660 c1        1 BM4     -0.016000
     72 C31        -1.3650   -3.7360    9.1080 c1        1 BM4     -0.215000
     73 C32        -2.1390   -4.8980    9.2160 c1        1 BM4      0.079000
     74 C33        -3.1370   -5.1520    8.2910 c1        1 BM4     -0.159000
     75 C34        -3.3740   -4.2460    7.2470 c1        1 BM4     -0.131500
     76 C35        -1.0410   -0.7220    9.2800 c3        1 BM4     -0.153000
     77 O2         -1.9740   -5.7590   10.3330 oh        1 BM4     -0.253000
     78 C36        -2.5660   -0.5830    9.5320 c3        1 BM4     -0.215000
     79 C37         1.6590    0.4750    7.6380 c3        1 BM4     -0.156000
     80 H39        -0.2900    1.0290    7.9470 h1        1 BM4      0.068000
     81 H40         0.4260    1.8690    6.7680 h1        1 BM4      0.068000
     82 H41         1.0750   -0.4830    9.3890 hc        1 BM4      0.075000
     83 H42         2.3970   -1.1250    8.7360 hc        1 BM4      0.075000
     84 H43        -1.6510   -1.2860    6.1210 h1        1 BM4      0.072500
     85 H44        -2.0270   -0.0800    7.0930 h1        1 BM4      0.072500
     86 H45         0.8850   -1.8730    6.9180 hc        1 BM4      0.087000
     87 H46         0.8340   -2.6990    8.2840 hc        1 BM4      0.087000
     88 H47        -2.7650   -2.4690    6.4250 ha        1 BM4      0.133750
     89 H48        -0.6450   -3.5520    9.7750 ha        1 BM4      0.134000
     90 H49        -3.6810   -5.9680    8.3670 ha        1 BM4      0.150000
     91 H50        -4.0810   -4.4260    6.5920 ha        1 BM4      0.133750
     92 H51        -0.6120   -1.2110   10.0610 hc        1 BM4      0.082500
     93 H52        -0.6380    0.1750    9.1920 hc        1 BM4      0.082500
     94 H53        -1.2900   -6.3010   10.1900 ho        1 BM4      0.217000
     95 H54        -2.7450   -0.6580   10.4790 hc        1 BM4      0.076000
     96 H55        -2.8730    0.2940    9.2090 hc        1 BM4      0.076000
     97 H56        -3.0450   -1.2960    9.0500 hc        1 BM4      0.076000
     98 H57         2.2030    0.2350    6.8580 hc        1 BM4      0.083500
     99 H58         2.1080    1.1860    8.1360 hc        1 BM4      0.083500
@<TRIPOS>BOND
     1    1    2 1   
     2    1   27 1   
     3    2    3 1   
     4    2    4 1   
     5    3    7 1   
     6    3   28 1   
     7    4   29 1   
     8    5    6 1   
     9    5   30 1   
    10    6   31 1   
    11    7    8 1   
    12    8    9 1   
    13    8   11 1   
    14    8   12 1   
    15    9   10 1   
    16    9   32 1   
    17    9   33 1   
    18   10   34 1   
    19   10   35 1   
    20   10   36 1   
    21   11   16 1   
    22   11   37 1   
    23   11   38 1   
    24   12   13 1   
    25   12   39 1   
    26   12   40 1   
    27   13   14 1   
    28   13   41 1   
    29   13   42 1   
    30   14   15 1   
    31   14   43 1   
    32   14   44 1   
    33   15   16 1   
    34   15   45 1   
    35   15   46 1   
    36   16   17 1   
    37   17   18 1   
    38   17   47 1   
    39   17   48 1   
    40   18   19 1   
    41   18   49 1   
    42   18   50 1   
    43   19   20 1   
    44   19   51 1   
    45   19   52 1   
    46   20   21 1   
    47   20   53 1   
    48   20   54 1   
    49   21   22 1   
    50   21   55 1   
    51   21   56 1   
    52   22   23 1   
    53   22   57 1   
    54   22   58 1   
    55   23   24 1   
    56   23   59 1   
    57   23   60 1   
    58   24   25 1   
    59   24   61 1   
    60   24   62 1   
    61   25   26 1   
    62   25   63 1   
    63   25   64 1   
    64   26   65 1   
    65   26   67 1   
    66   65   79 1   
    67   65   80 1   
    68   65   81 1   
    69   66   69 1   
    70   66   79 1   
    71   66   82 1   
    72   66   83 1   
    73   67   68 1   
    74   67   84 1   
    75   67   85 1   
    76   68   69 1   
    77   68   71 1   
    78   68   76 1   
    79   69   86 1   
    80   69   87 1   
    81   70   75 1   
    82   70   88 1   
    83   71   72 1   
    84   72   89 1   
    85   73   74 1   
    86   73   77 1   
    87   74   90 1   
    88   75   91 1   
    89   76   78 1   
    90   76   92 1   
    91   76   93 1   
    92   77   94 1   
    93   78   95 1   
    94   78   96 1   
    95   78   97 1   
    96   79   98 1   
    97   79   99 1   
@<TRIPOS>SUBSTRUCTURE
     1 BM4         1 TEMP              0 ****  ****    0 ROOT
