@<TRIPOS>MOLECULE
BM4
   99   102     1     0     0
SMALL
bcc


@<TRIPOS>ATOM
      1 OAU         9.2140   -4.6140    0.3780 oh        1 BM4     -0.499100
      2 CAS         9.7110   -3.3460    0.5790 ca        1 BM4      0.123600
      3 CAQ         8.9910   -2.1950    0.2240 ca        1 BM4     -0.214500
      4 CAT        10.9880   -3.2610    1.1540 ca        1 BM4     -0.159500
      5 CAR        11.5340   -1.9980    1.3530 ca        1 BM4     -0.097000
      6 CAP        10.8260   -0.8500    1.0050 ca        1 BM4     -0.167500
      7 CAO         9.5330   -0.9270    0.4600 ca        1 BM4     -0.023800
      8 CAC         8.8090    0.3630    0.0980 c3        1 BM4      0.006300
      9 CAM         9.5960    0.9890   -1.0620 c3        1 BM4     -0.074900
     10 CAN         9.7470    0.1020   -2.2730 c3        1 BM4     -0.097100
     11 CAB         7.3530    0.0390   -0.3060 c3        1 BM4      0.194300
     12 CAD         8.8070    1.2760    1.3350 c3        1 BM4     -0.065900
     13 CAE         8.6420    2.7570    1.0750 c3        1 BM4     -0.073400
     14 CAF         7.2340    3.1720    0.7250 c3        1 BM4     -0.077400
     15 CAG         6.6510    2.4340   -0.4780 c3        1 BM4      0.188800
     16 NAA         6.3200    1.0530   -0.1970 n3        1 BM4     -0.765100
     17 CAH         5.0850    0.6180   -0.8390 c3        1 BM4      0.187300
     18 CAI         3.8250    1.1400   -0.1450 c3        1 BM4     -0.083400
     19 CAJ         2.5940    0.5910   -0.8320 c3        1 BM4     -0.080400
     20 CAK         1.3290    1.0990   -0.1730 c3        1 BM4     -0.078400
     21 CAL         0.0950    0.5490   -0.8550 c3        1 BM4     -0.079400
     22 CAV        -1.1690    1.0580   -0.1960 c3        1 BM4     -0.078400
     23 CAW        -2.4040    0.5100   -0.8790 c3        1 BM4     -0.080400
     24 CAX        -3.6660    1.0180   -0.2140 c3        1 BM4     -0.083400
     25 CAY        -4.8940    0.4570   -0.9320 c3        1 BM4      0.187300
     26 NAZ        -6.1550    0.8500   -0.3120 n3        1 BM4     -0.765100
     27 HOAU        8.3290   -4.5310   -0.0070 ho        1 BM4      0.417500
     28 HAQ         8.0100   -2.3280   -0.2530 ha        1 BM4      0.134000
     29 HAT        11.5290   -4.1760    1.4270 ha        1 BM4      0.150000
     30 HAR        12.5410   -1.9050    1.7880 ha        1 BM4      0.133500
     31 HAP        11.3060    0.1300    1.1530 ha        1 BM4      0.135000
     32 HAM         9.1090    1.9450   -1.3850 hc        1 BM4      0.044200
     33 HAMA       10.6170    1.2550   -0.6760 hc        1 BM4      0.044200
     34 HAN        10.0680   -0.9270   -1.9840 hc        1 BM4      0.036367
     35 HANA        8.7880    0.0250   -2.8410 hc        1 BM4      0.036367
     36 HANB       10.5180    0.5320   -2.9590 hc        1 BM4      0.036367
     37 HAB         7.3870   -0.3920   -1.3510 h1        1 BM4      0.031950
     38 HABA        6.9870   -0.7700    0.3970 h1        1 BM4      0.031950
     39 HAD         7.9890    0.9290    2.0220 hc        1 BM4      0.048450
     40 HADA        9.7720    1.1510    1.8960 hc        1 BM4      0.048450
     41 HAE         8.9380    3.3030    2.0140 hc        1 BM4      0.036200
     42 HAEA        9.3510    3.1000    0.2770 hc        1 BM4      0.036200
     43 HAF         6.5690    3.0200    1.6160 hc        1 BM4      0.043950
     44 HAFA        7.2280    4.2680    0.4830 hc        1 BM4      0.043950
     45 HAG         5.7030    2.9780   -0.7660 h1        1 BM4      0.028700
     46 HAGA        7.3480    2.5360   -1.3590 h1        1 BM4      0.028700
     47 HAH         5.0550    0.9310   -1.9240 h1        1 BM4      0.027700
     48 HAHA        5.0410   -0.5090   -0.8200 h1        1 BM4      0.027700
     49 HAI         3.8290    0.8310    0.9330 hc        1 BM4      0.048450
     50 HAIA        3.8000    2.2600   -0.1690 hc        1 BM4      0.048450
     51 HAJ         2.5990    0.8880   -1.9140 hc        1 BM4      0.038450
     52 HAJA        2.6090   -0.5310   -0.7980 hc        1 BM4      0.038450
     53 HAK         1.3250    0.8030    0.9090 hc        1 BM4      0.041450
     54 HAKA        1.3110    2.2200   -0.2090 hc        1 BM4      0.041450
     55 HAL         0.1000    0.8450   -1.9380 hc        1 BM4      0.039200
     56 HALA        0.1130   -0.5720   -0.8190 hc        1 BM4      0.039200
     57 HAV        -1.1750    0.7610    0.8860 hc        1 BM4      0.041450
     58 HAVA       -1.1870    2.1800   -0.2310 hc        1 BM4      0.041450
     59 HAW        -2.3980    0.8090   -1.9610 hc        1 BM4      0.038450
     60 HAWA       -2.3840   -0.6110   -0.8470 hc        1 BM4      0.038450
     61 HAX        -3.6790    0.7070    0.8630 hc        1 BM4      0.048450
     62 HAXA       -3.6760    2.1390   -0.2360 hc        1 BM4      0.048450
     63 HAY        -4.8540    0.7740   -2.0160 h1        1 BM4      0.027700
     64 HAYA       -4.8140   -0.6680   -0.9150 h1        1 BM4      0.027700
     65 C24        -6.5250    2.2210   -0.5950 c3        1 BM4      0.188800
     66 C25        -8.5420    2.4720    0.9370 c3        1 BM4     -0.073400
     67 C26        -7.1530   -0.1950   -0.4490 c3        1 BM4      0.194300
     68 C27        -8.6230    0.0800   -0.0570 c3        1 BM4      0.006300
     69 C28        -8.6620    0.9840    1.1850 c3        1 BM4     -0.065900
     70 C29        -8.7290   -2.4880    0.0390 ca        1 BM4     -0.167500
     71 C30        -9.3070   -1.2370    0.2860 ca        1 BM4     -0.023800
     72 C31       -10.6030   -1.2020    0.8250 ca        1 BM4     -0.214500
     73 C32       -11.2660   -2.3900    1.1520 ca        1 BM4      0.123600
     74 C33       -10.6660   -3.6410    0.9350 ca        1 BM4     -0.159500
     75 C34        -9.3980   -3.6690    0.3690 ca        1 BM4     -0.097000
     76 C35        -9.4180    0.6890   -1.2210 c3        1 BM4     -0.074900
     77 O2        -12.5330   -2.4040    1.6940 oh        1 BM4     -0.499100
     78 C36        -9.5270   -0.1920   -2.4400 c3        1 BM4     -0.097100
     79 C37        -7.1460    2.9350    0.6040 c3        1 BM4     -0.077400
     80 H39        -5.5910    2.7960   -0.8680 h1        1 BM4      0.028700
     81 H40        -7.2130    2.3030   -1.4830 h1        1 BM4      0.028700
     82 H41        -9.2550    2.7960    0.1350 hc        1 BM4      0.036200
     83 H42        -8.8650    3.0000    1.8770 hc        1 BM4      0.036200
     84 H43        -7.1620   -0.6110   -1.5000 h1        1 BM4      0.031950
     85 H44        -6.7710   -1.0030    0.2470 h1        1 BM4      0.031950
     86 H45        -7.8390    0.6590    1.8780 hc        1 BM4      0.048450
     87 H46        -9.6260    0.8240    1.7380 hc        1 BM4      0.048450
     88 H47        -7.7410   -2.5800   -0.4360 ha        1 BM4      0.135000
     89 H48       -11.1190   -0.2430    0.9830 ha        1 BM4      0.134000
     90 H49       -11.2030   -4.5600    1.2040 ha        1 BM4      0.150000
     91 H50        -8.9130   -4.6380    0.1740 ha        1 BM4      0.133500
     92 H51       -10.4510    0.9190   -0.8430 hc        1 BM4      0.044200
     93 H52        -8.9590    1.6630   -1.5310 hc        1 BM4      0.044200
     94 H53       -12.8240   -1.4860    1.7940 ho        1 BM4      0.417500
     95 H54       -10.3090    0.2140   -3.1280 hc        1 BM4      0.036367
     96 H55        -8.5620   -0.2280   -3.0010 hc        1 BM4      0.036367
     97 H56        -9.8100   -1.2360   -2.1620 hc        1 BM4      0.036367
     98 H57        -6.4860    2.8030    1.5020 hc        1 BM4      0.043950
     99 H58        -7.1750    4.0320    0.3650 hc        1 BM4      0.043950
@<TRIPOS>BOND
     1    1    2 1   
     2    1   27 1   
     3    2    3 ar  
     4    2    4 ar  
     5    3    7 ar  
     6    3   28 1   
     7    4    5 ar  
     8    4   29 1   
     9    5    6 ar  
    10    5   30 1   
    11    6    7 ar  
    12    6   31 1   
    13    7    8 1   
    14    8    9 1   
    15    8   11 1   
    16    8   12 1   
    17    9   10 1   
    18    9   32 1   
    19    9   33 1   
    20   10   34 1   
    21   10   35 1   
    22   10   36 1   
    23   11   16 1   
    24   11   37 1   
    25   11   38 1   
    26   12   13 1   
    27   12   39 1   
    28   12   40 1   
    29   13   14 1   
    30   13   41 1   
    31   13   42 1   
    32   14   15 1   
    33   14   43 1   
    34   14   44 1   
    35   15   16 1   
    36   15   45 1   
    37   15   46 1   
    38   16   17 1   
    39   17   18 1   
    40   17   47 1   
    41   17   48 1   
    42   18   19 1   
    43   18   49 1   
    44   18   50 1   
    45   19   20 1   
    46   19   51 1   
    47   19   52 1   
    48   20   21 1   
    49   20   53 1   
    50   20   54 1   
    51   21   22 1   
    52   21   55 1   
    53   21   56 1   
    54   22   23 1   
    55   22   57 1   
    56   22   58 1   
    57   23   24 1   
    58   23   59 1   
    59   23   60 1   
    60   24   25 1   
    61   24   61 1   
    62   24   62 1   
    63   25   26 1   
    64   25   63 1   
    65   25   64 1   
    66   26   65 1   
    67   26   67 1   
    68   65   79 1   
    69   65   80 1   
    70   65   81 1   
    71   66   69 1   
    72   66   79 1   
    73   66   82 1   
    74   66   83 1   
    75   67   68 1   
    76   67   84 1   
    77   67   85 1   
    78   68   69 1   
    79   68   71 1   
    80   68   76 1   
    81   69   86 1   
    82   69   87 1   
    83   70   71 ar  
    84   70   75 ar  
    85   70   88 1   
    86   71   72 ar  
    87   72   73 ar  
    88   72   89 1   
    89   73   74 ar  
    90   73   77 1   
    91   74   75 ar  
    92   74   90 1   
    93   75   91 1   
    94   76   78 1   
    95   76   92 1   
    96   76   93 1   
    97   77   94 1   
    98   78   95 1   
    99   78   96 1   
   100   78   97 1   
   101   79   98 1   
   102   79   99 1   
@<TRIPOS>SUBSTRUCTURE
     1 BM4         1 TEMP              0 ****  ****    0 ROOT
