@<TRIPOS>MOLECULE
BM5
   38    41     1     0     0
SMALL
bcc


@<TRIPOS>ATOM
      1 S1         -0.1350   -0.2280   -0.0120 ss        1 BM5     -0.312200
      2 C2          1.6030    0.0570   -0.1930 c3        1 BM5     -0.038300
      3 C3          2.2200    0.0680    1.2170 c3        1 BM5      0.039700
      4 C5         -0.1310   -0.1180    1.8300 c3        1 BM5      0.282100
      5 N4          1.2180    0.3690    2.2280 n         1 BM5     -0.408800
      6 C6          1.0960    1.6960    2.7780 c         1 BM5      0.698100
      7 OE          2.0570    2.3860    3.1270 o         1 BM5     -0.561500
      8 C7         -0.3530    2.0150    2.8820 ca        1 BM5     -0.160600
      9 C12        -1.0940    0.9570    2.2940 ca        1 BM5     -0.056300
     10 C8         -0.9840    3.1270    3.4080 ca        1 BM5     -0.050000
     11 C9         -2.3850    3.1820    3.3430 ca        1 BM5     -0.139000
     12 C10        -3.1140    2.1430    2.7690 ca        1 BM5     -0.098000
     13 C11        -2.4740    1.0110    2.2390 ca        1 BM5     -0.101000
     14 C13        -0.5040   -1.4590    2.3960 ca        1 BM5     -0.083300
     15 C14        -1.4820   -2.2180    1.7370 ca        1 BM5     -0.103000
     16 C15        -1.8760   -3.4520    2.2480 ca        1 BM5     -0.134500
     17 C16        -1.2980   -3.9410    3.4210 ca        1 BM5     -0.119000
     18 C17        -0.3270   -3.1900    4.0790 ca        1 BM5     -0.134500
     19 C18         0.0700   -1.9500    3.5730 ca        1 BM5     -0.103000
     20 CA          3.4170    1.0070    1.2460 c         1 BM5      0.638100
     21 OB          3.6310    1.9860    0.5330 o         1 BM5     -0.521000
     22 OC          4.3550    0.6140    2.1520 os        1 BM5     -0.417900
     23 CD          5.4740    1.4880    2.3280 c3        1 BM5      0.124700
     24 H21         2.0540   -0.7590   -0.8050 h1        1 BM5      0.098200
     25 H22         1.7780    1.0300   -0.7160 h1        1 BM5      0.098200
     26 H3          2.6020   -0.9730    1.4600 h1        1 BM5      0.109700
     27 H81        -0.4030    3.9450    3.8610 ha        1 BM5      0.157000
     28 H91        -2.9090    4.0580    3.7520 ha        1 BM5      0.142000
     29 H101       -4.2120    2.2050    2.7270 ha        1 BM5      0.140000
     30 H111       -3.0590    0.1920    1.7950 ha        1 BM5      0.149000
     31 H141       -1.9300   -1.8440    0.8010 ha        1 BM5      0.147500
     32 H151       -2.6420   -4.0420    1.7240 ha        1 BM5      0.135000
     33 H161       -1.6080   -4.9170    3.8220 ha        1 BM5      0.134000
     34 H171        0.1330   -3.5710    5.0030 ha        1 BM5      0.135000
     35 H181        0.8350   -1.3710    4.1130 ha        1 BM5      0.147500
     36 HD1         6.0410    1.5770    1.3700 h1        1 BM5      0.055700
     37 HD2         5.1160    2.4910    2.6630 h1        1 BM5      0.055700
     38 HD3         6.0790    0.9810    3.1190 h1        1 BM5      0.055700
@<TRIPOS>BOND
     1    1    2 1   
     2    1    4 1   
     3    2    3 1   
     4    2   24 1   
     5    2   25 1   
     6    3    5 1   
     7    3   20 1   
     8    3   26 1   
     9    4    5 1   
    10    4    9 1   
    11    4   14 1   
    12    5    6 1   
    13    6    7 2   
    14    6    8 1   
    15    8    9 ar  
    16    8   10 ar  
    17    9   13 ar  
    18   10   11 ar  
    19   10   27 1   
    20   11   12 ar  
    21   11   28 1   
    22   12   13 ar  
    23   12   29 1   
    24   13   30 1   
    25   14   15 ar  
    26   14   19 ar  
    27   15   16 ar  
    28   15   31 1   
    29   16   17 ar  
    30   16   32 1   
    31   17   18 ar  
    32   17   33 1   
    33   18   19 ar  
    34   18   34 1   
    35   19   35 1   
    36   20   21 2   
    37   20   22 1   
    38   22   23 1   
    39   23   36 1   
    40   23   37 1   
    41   23   38 1   
@<TRIPOS>SUBSTRUCTURE
     1 BM5         1 TEMP              0 ****  ****    0 ROOT
