@<TRIPOS>MOLECULE
BM5
   38    41     1     0     0
SMALL
bcc


@<TRIPOS>ATOM
      1 S1         -0.1170   -0.2630   -0.0090 ss        1 BM5     -0.312200
      2 C2          1.6220    0.0240   -0.1840 c3        1 BM5     -0.038300
      3 C3          2.2300    0.0570    1.2300 c3        1 BM5      0.039700
      4 C5         -0.1240   -0.1250    1.8310 c3        1 BM5      0.282100
      5 N4          1.2210    0.3710    2.2300 n         1 BM5     -0.408800
      6 C6          1.0930    1.7050    2.7600 c         1 BM5      0.698100
      7 OE          2.0500    2.4020    3.1040 o         1 BM5     -0.561500
      8 C7         -0.3570    2.0230    2.8490 ca        1 BM5     -0.160600
      9 C12        -1.0930    0.9550    2.2730 ca        1 BM5     -0.056300
     10 C8         -0.9930    3.1420    3.3550 ca        1 BM5     -0.050000
     11 C9         -2.3940    3.1920    3.2800 ca        1 BM5     -0.139000
     12 C10        -3.1170    2.1440    2.7170 ca        1 BM5     -0.098000
     13 C11        -2.4720    1.0050    2.2090 ca        1 BM5     -0.101000
     14 C13        -0.4980   -1.4580    2.4140 ca        1 BM5     -0.083300
     15 C14        -1.4710   -2.2290    1.7610 ca        1 BM5     -0.103000
     16 C15        -1.8650   -3.4560    2.2880 ca        1 BM5     -0.134500
     17 C16        -1.2940   -3.9260    3.4710 ca        1 BM5     -0.119000
     18 C17        -0.3280   -3.1630    4.1240 ca        1 BM5     -0.134500
     19 C18         0.0690   -1.9310    3.6020 ca        1 BM5     -0.103000
     20 CA          3.4250    0.9980    1.2520 c         1 BM5      0.638100
     21 OB          3.6410    1.9670    0.5260 o         1 BM5     -0.521000
     22 OC          4.3590    0.6200    2.1690 os        1 BM5     -0.417900
     23 CD          5.4750    1.5000    2.3390 c3        1 BM5      0.124700
     24 H21         2.0780   -0.8000   -0.7800 h1        1 BM5      0.098200
     25 H22         1.7980    0.9890   -0.7200 h1        1 BM5      0.098200
     26 H3          2.6120   -0.9790    1.4910 h1        1 BM5      0.109700
     27 H81        -0.4170    3.9670    3.8000 ha        1 BM5      0.157000
     28 H91        -2.9220    4.0740    3.6740 ha        1 BM5      0.142000
     29 H101       -4.2150    2.2030    2.6680 ha        1 BM5      0.140000
     30 H111       -3.0530    0.1790    1.7730 ha        1 BM5      0.149000
     31 H141       -1.9140   -1.8700    0.8170 ha        1 BM5      0.147500
     32 H151       -2.6270   -4.0550    1.7680 ha        1 BM5      0.135000
     33 H161       -1.6050   -4.8970    3.8850 ha        1 BM5      0.134000
     34 H171        0.1260   -3.5290    5.0570 ha        1 BM5      0.135000
     35 H181        0.8300   -1.3420    4.1380 ha        1 BM5      0.147500
     36 HD1         5.1130    2.5070    2.6570 h1        1 BM5      0.055700
     37 HD2         6.0760    1.0050    3.1410 h1        1 BM5      0.055700
     38 HD3         6.0460    1.5760    1.3830 h1        1 BM5      0.055700
@<TRIPOS>BOND
     1    1    2 1   
     2    1    4 1   
     3    2    3 1   
     4    2   24 1   
     5    2   25 1   
     6    3    5 1   
     7    3   20 1   
     8    3   26 1   
     9    4    5 1   
    10    4    9 1   
    11    4   14 1   
    12    5    6 1   
    13    6    7 2   
    14    6    8 1   
    15    8    9 ar  
    16    8   10 ar  
    17    9   13 ar  
    18   10   11 ar  
    19   10   27 1   
    20   11   12 ar  
    21   11   28 1   
    22   12   13 ar  
    23   12   29 1   
    24   13   30 1   
    25   14   15 ar  
    26   14   19 ar  
    27   15   16 ar  
    28   15   31 1   
    29   16   17 ar  
    30   16   32 1   
    31   17   18 ar  
    32   17   33 1   
    33   18   19 ar  
    34   18   34 1   
    35   19   35 1   
    36   20   21 2   
    37   20   22 1   
    38   22   23 1   
    39   23   36 1   
    40   23   37 1   
    41   23   38 1   
@<TRIPOS>SUBSTRUCTURE
     1 BM5         1 TEMP              0 ****  ****    0 ROOT
