@<TRIPOS>MOLECULE
BM5
   38    41     1     0     0
SMALL
bcc


@<TRIPOS>ATOM
      1 S1          0.6280    2.2300   -0.2340 ss        1 BM5     -0.312200
      2 C2          0.5800    2.0980    1.5310 c3        1 BM5     -0.038300
      3 C3          0.5200    0.6010    1.8810 c3        1 BM5      0.039700
      4 C5          0.3540    0.4320   -0.5430 c3        1 BM5      0.282100
      5 N4          0.0070   -0.1810    0.7670 n         1 BM5     -0.408800
      6 C6         -1.3690   -0.6110    0.7350 c         1 BM5      0.698100
      7 OE         -1.9610   -1.0900    1.7050 o         1 BM5     -0.561500
      8 C7         -1.8750   -0.4180   -0.6500 ca        1 BM5     -0.160600
      9 C12        -0.8710    0.2300   -1.4140 ca        1 BM5     -0.056300
     10 C8         -3.1010   -0.7420   -1.2020 ca        1 BM5     -0.050000
     11 C9         -3.3240   -0.4100   -2.5470 ca        1 BM5     -0.139000
     12 C10        -2.3390    0.2230   -3.3000 ca        1 BM5     -0.098000
     13 C11        -1.0920    0.5480   -2.7410 ca        1 BM5     -0.101000
     14 C13         1.5820   -0.1390   -1.1960 ca        1 BM5     -0.083300
     15 C14         2.2680    0.6430   -2.1370 ca        1 BM5     -0.103000
     16 C15         3.3920    0.1360   -2.7850 ca        1 BM5     -0.134500
     17 C16         3.8430   -1.1540   -2.5000 ca        1 BM5     -0.119000
     18 C17         3.1630   -1.9330   -1.5660 ca        1 BM5     -0.134500
     19 C18         2.0340   -1.4320   -0.9160 ca        1 BM5     -0.103000
     20 CA         -0.2590    0.4070    3.1740 c         1 BM5      0.638100
     21 OB         -1.1360    1.1280    3.6460 o         1 BM5     -0.521000
     22 OC          0.1660   -0.6830    3.8710 os        1 BM5     -0.417900
     23 CD         -0.5730   -1.0110    5.0510 c3        1 BM5      0.124700
     24 H21        -0.3120    2.6400    1.9310 h1        1 BM5      0.098200
     25 H22         1.4980    2.5590    1.9650 h1        1 BM5      0.098200
     26 H3          1.5750    0.2220    2.0640 h1        1 BM5      0.109700
     27 H81        -3.8760   -1.2430   -0.6030 ha        1 BM5      0.157000
     28 H91        -4.2930   -0.6550   -3.0080 ha        1 BM5      0.142000
     29 H101       -2.5340    0.4760   -4.3530 ha        1 BM5      0.140000
     30 H111       -0.3170    1.0400   -3.3450 ha        1 BM5      0.149000
     31 H141        1.9260    1.6680   -2.3540 ha        1 BM5      0.147500
     32 H151        3.9250    0.7560   -3.5190 ha        1 BM5      0.135000
     33 H161        4.7320   -1.5520   -3.0100 ha        1 BM5      0.134000
     34 H171        3.5140   -2.9500   -1.3370 ha        1 BM5      0.135000
     35 H181        1.5100   -2.0680   -0.1860 ha        1 BM5      0.147500
     36 HD1        -0.0670   -1.9330    5.4280 h1        1 BM5      0.055700
     37 HD2        -0.5040   -0.1730    5.7860 h1        1 BM5      0.055700
     38 HD3        -1.6390   -1.2060    4.7830 h1        1 BM5      0.055700
@<TRIPOS>BOND
     1    1    2 1   
     2    1    4 1   
     3    2    3 1   
     4    2   24 1   
     5    2   25 1   
     6    3    5 1   
     7    3   20 1   
     8    3   26 1   
     9    4    5 1   
    10    4    9 1   
    11    4   14 1   
    12    5    6 1   
    13    6    7 2   
    14    6    8 1   
    15    8    9 ar  
    16    8   10 ar  
    17    9   13 ar  
    18   10   11 ar  
    19   10   27 1   
    20   11   12 ar  
    21   11   28 1   
    22   12   13 ar  
    23   12   29 1   
    24   13   30 1   
    25   14   15 ar  
    26   14   19 ar  
    27   15   16 ar  
    28   15   31 1   
    29   16   17 ar  
    30   16   32 1   
    31   17   18 ar  
    32   17   33 1   
    33   18   19 ar  
    34   18   34 1   
    35   19   35 1   
    36   20   21 2   
    37   20   22 1   
    38   22   23 1   
    39   23   36 1   
    40   23   37 1   
    41   23   38 1   
@<TRIPOS>SUBSTRUCTURE
     1 BM5         1 TEMP              0 ****  ****    0 ROOT
