@<TRIPOS>MOLECULE
BM5
   38    41     1     0     0
SMALL
bcc


@<TRIPOS>ATOM
      1 S1         -0.1290   -0.2130   -0.0150 ss        1 BM5     -0.312200
      2 C2          1.6120    0.0620   -0.1890 c3        1 BM5     -0.038300
      3 C3          2.2230    0.0620    1.2230 c3        1 BM5      0.039700
      4 C5         -0.1310   -0.1120    1.8270 c3        1 BM5      0.282100
      5 N4          1.2200    0.3640    2.2320 n         1 BM5     -0.408800
      6 C6          1.1040    1.6890    2.7890 c         1 BM5      0.698100
      7 OE          2.0680    2.3710    3.1450 o         1 BM5     -0.561500
      8 C7         -0.3440    2.0170    2.8880 ca        1 BM5     -0.160600
      9 C12        -1.0890    0.9670    2.2920 ca        1 BM5     -0.056300
     10 C8         -0.9690    3.1310    3.4170 ca        1 BM5     -0.050000
     11 C9         -2.3690    3.1940    3.3470 ca        1 BM5     -0.139000
     12 C10        -3.1020    2.1640    2.7650 ca        1 BM5     -0.098000
     13 C11        -2.4680    1.0300    2.2330 ca        1 BM5     -0.101000
     14 C13        -0.5140   -1.4540    2.3850 ca        1 BM5     -0.083300
     15 C14        -1.4950   -2.2030    1.7180 ca        1 BM5     -0.103000
     16 C15        -1.8980   -3.4370    2.2230 ca        1 BM5     -0.134500
     17 C16        -1.3280   -3.9360    3.3940 ca        1 BM5     -0.119000
     18 C17        -0.3550   -3.1930    4.0600 ca        1 BM5     -0.134500
     19 C18         0.0520   -1.9540    3.5620 ca        1 BM5     -0.103000
     20 CA          3.4270    0.9930    1.2610 c         1 BM5      0.638100
     21 OB          3.6490    1.9740    0.5540 o         1 BM5     -0.521000
     22 OC          4.3590    0.5890    2.1680 os        1 BM5     -0.417900
     23 CD          5.4830    1.4550    2.3530 c3        1 BM5      0.124700
     24 H21         2.0590   -0.7540   -0.8030 h1        1 BM5      0.098200
     25 H22         1.7950    1.0360   -0.7060 h1        1 BM5      0.098200
     26 H3          2.5980   -0.9820    1.4630 h1        1 BM5      0.109700
     27 H81        -0.3850    3.9420    3.8770 ha        1 BM5      0.157000
     28 H91        -2.8890    4.0720    3.7590 ha        1 BM5      0.142000
     29 H101       -4.2000    2.2330    2.7190 ha        1 BM5      0.140000
     30 H111       -3.0570    0.2170    1.7820 ha        1 BM5      0.149000
     31 H141       -1.9370   -1.8220    0.7830 ha        1 BM5      0.147500
     32 H151       -2.6660   -4.0190    1.6920 ha        1 BM5      0.135000
     33 H161       -1.6460   -4.9110    3.7900 ha        1 BM5      0.134000
     34 H171        0.0990   -3.5820    4.9840 ha        1 BM5      0.135000
     35 H181        0.8180   -1.3830    4.1070 ha        1 BM5      0.147500
     36 HD1         6.0820    0.9400    3.1430 h1        1 BM5      0.055700
     37 HD2         5.1300    2.4590    2.6920 h1        1 BM5      0.055700
     38 HD3         6.0530    1.5460    1.3970 h1        1 BM5      0.055700
@<TRIPOS>BOND
     1    1    2 1   
     2    1    4 1   
     3    2    3 1   
     4    2   24 1   
     5    2   25 1   
     6    3    5 1   
     7    3   20 1   
     8    3   26 1   
     9    4    5 1   
    10    4    9 1   
    11    4   14 1   
    12    5    6 1   
    13    6    7 2   
    14    6    8 1   
    15    8    9 ar  
    16    8   10 ar  
    17    9   13 ar  
    18   10   11 ar  
    19   10   27 1   
    20   11   12 ar  
    21   11   28 1   
    22   12   13 ar  
    23   12   29 1   
    24   13   30 1   
    25   14   15 ar  
    26   14   19 ar  
    27   15   16 ar  
    28   15   31 1   
    29   16   17 ar  
    30   16   32 1   
    31   17   18 ar  
    32   17   33 1   
    33   18   19 ar  
    34   18   34 1   
    35   19   35 1   
    36   20   21 2   
    37   20   22 1   
    38   22   23 1   
    39   23   36 1   
    40   23   37 1   
    41   23   38 1   
@<TRIPOS>SUBSTRUCTURE
     1 BM5         1 TEMP              0 ****  ****    0 ROOT
