@<TRIPOS>MOLECULE
BM5
   38    37     1     0     0
SMALL
bcc


@<TRIPOS>ATOM
      1 S1          0.1140    0.5180   -1.3540 ss        1 BM5      0.052000
      2 C2          1.8140    0.5010   -1.3560 c3        1 BM5     -0.299000
      3 C3          2.2000    0.5180   -0.0880 c3        1 BM5      0.013000
      4 C5         -0.2630   -0.2540   -0.3610 c3        1 BM5      0.048000
      5 N4          0.8930   -0.2050    0.6820 n         1 BM5     -0.267000
      6 C6          0.3530    0.2380    1.8960 c2        1 BM5      0.335000
      7 OE          0.9400    0.3020    2.9580 o         1 BM5     -0.286000
      8 C7         -1.1950    0.5620    1.6560 c2        1 BM5     -0.140000
      9 C12        -1.4990    0.2840    0.2840 c2        1 BM5     -0.049000
     10 C8         -2.1930    0.9980    2.5110 c1        1 BM5     -0.050000
     11 C9         -3.5000    1.1670    2.0340 c1        1 BM5     -0.123000
     12 C10        -3.8010    0.8920    0.6800 c1        1 BM5     -0.123000
     13 C11        -2.7940    0.4520   -0.1860 c1        1 BM5     -0.101000
     14 C13        -0.4770   -1.6150   -0.8250 c2        1 BM5     -0.076000
     15 C14        -0.7980   -1.8520   -2.1520 c2        1 BM5     -0.111000
     16 C15        -1.0090   -3.1480   -2.5930 c1        1 BM5     -0.133000
     17 C16        -0.9000   -4.2080   -1.7070 c1        1 BM5     -0.123000
     18 C17        -0.5790   -3.9710   -0.3800 c1        1 BM5     -0.123000
     19 C18        -0.3670   -2.6750    0.0610 c1        1 BM5     -0.095000
     20 CA          2.5450    1.8940    0.4370 c2        1 BM5      0.309000
     21 OB          1.7780    2.4700    1.1820 o         1 BM5     -0.332000
     22 OC          3.7410    2.5160    0.0420 os        1 BM5     -0.256000
     23 CD          3.8270    3.8740    0.4130 c3        1 BM5     -0.065000
     24 H21         2.1410   -0.3130   -1.7940 h1        1 BM5      0.137500
     25 H22         2.1570    1.2920   -1.8210 h1        1 BM5      0.137500
     26 H3          3.0360    0.0290    0.0560 h1        1 BM5      0.149000
     27 H81        -1.9870    1.1870    3.4460 ha        1 BM5      0.157000
     28 H91        -4.2030    1.4740    2.6370 ha        1 BM5      0.137750
     29 H101       -4.7110    1.0110    0.3490 ha        1 BM5      0.137750
     30 H111       -3.0020    0.2630   -1.1200 ha        1 BM5      0.149000
     31 H141       -0.8750   -1.1060   -2.7760 ha        1 BM5      0.144000
     32 H151       -1.2350   -3.3150   -3.5270 ha        1 BM5      0.135000
     33 H161       -1.0490   -5.1210   -2.0170 ha        1 BM5      0.137750
     34 H171       -0.5020   -4.7170    0.2440 ha        1 BM5      0.137750
     35 H181       -0.1410   -2.5080    0.9950 ha        1 BM5      0.151000
     36 HD1         4.1010    3.9400    1.3530 h1        1 BM5      0.095000
     37 HD2         2.9510    4.3010    0.2960 h1        1 BM5      0.095000
     38 HD3         4.4890    4.3260   -0.1540 h1        1 BM5      0.095000
@<TRIPOS>BOND
     1    1    2 1   
     2    1    4 1   
     3    2    3 1   
     4    2   24 1   
     5    2   25 1   
     6    3    5 1   
     7    3   20 1   
     8    3   26 1   
     9    4    5 1   
    10    4    9 1   
    11    4   14 1   
    12    5    6 1   
    13    6    7 1   
    14    6    8 1   
    15    8    9 1   
    16    8   10 1   
    17    9   13 1   
    18   10   27 1   
    19   11   12 1   
    20   11   28 1   
    21   12   29 1   
    22   13   30 1   
    23   14   15 1   
    24   14   19 1   
    25   15   16 1   
    26   15   31 1   
    27   16   32 1   
    28   17   18 1   
    29   17   33 1   
    30   18   34 1   
    31   19   35 1   
    32   20   21 1   
    33   20   22 1   
    34   22   23 1   
    35   23   36 1   
    36   23   37 1   
    37   23   38 1   
@<TRIPOS>SUBSTRUCTURE
     1 BM5         1 TEMP              0 ****  ****    0 ROOT
