@<TRIPOS>MOLECULE
BM6
   55    58     1     0     0
SMALL
bcc


@<TRIPOS>ATOM
      1 O1         -0.2040    0.2460    0.1920 o         1 BM6     -0.829800
      2 O2          1.6710    0.1940   -1.0210 o         1 BM6     -0.829800
      3 O3          5.4780    0.6450    4.8250 os        1 BM6     -0.436600
      4 O4          3.5750    0.6900    6.0540 os        1 BM6     -0.436600
      5 C1          1.0540    0.1930    0.0820 c         1 BM6      0.906200
      6 C2          1.8780    0.1270    1.3600 ca        1 BM6     -0.109600
      7 C3          1.2500    0.1320    2.6090 ca        1 BM6     -0.117500
      8 C4          2.0010    0.0840    3.7810 ca        1 BM6     -0.130000
      9 C5          3.3980    0.0300    3.7150 ca        1 BM6     -0.163300
     10 C6          4.0320    0.0160    2.4680 ca        1 BM6     -0.130000
     11 C7          3.2750    0.0650    1.3000 ca        1 BM6     -0.117500
     12 C8          4.2130   -0.0290    4.9800 c3        1 BM6      0.451200
     13 C9          4.4660   -1.4480    5.4280 ca        1 BM6     -0.068300
     14 C10         5.6200   -2.1230    5.0200 ca        1 BM6     -0.098000
     15 C11         5.8280   -3.4340    5.4310 ca        1 BM6     -0.141000
     16 C12         4.9020   -4.1010    6.2480 ca        1 BM6     -0.063300
     17 C13         3.7260   -3.4350    6.6300 ca        1 BM6     -0.070300
     18 C14         3.5320   -2.1040    6.2270 ca        1 BM6     -0.095000
     19 C15         2.6520   -4.0830    7.4620 c3        1 BM6     -0.001700
     20 C16         2.8480   -5.5970    7.5400 c3        1 BM6     -0.069400
     21 C17         4.2850   -5.9780    7.7900 c3        1 BM6     -0.067400
     22 C18         5.2110   -5.5140    6.6640 c3        1 BM6     -0.002700
     23 C19         5.3580    1.9970    5.2690 c3        1 BM6      0.108400
     24 C20         4.0740    2.0270    6.0980 c3        1 BM6      0.108400
     25 C21         1.2780   -3.8300    6.8420 c3        1 BM6     -0.085600
     26 C22         2.6720   -3.4840    8.8650 c3        1 BM6     -0.085600
     27 C23         6.6460   -5.6140    7.1830 c3        1 BM6     -0.083600
     28 C24         5.0640   -6.4370    5.4580 c3        1 BM6     -0.083600
     29 H3          0.1490    0.1780    2.6390 ha        1 BM6      0.152500
     30 H4          1.5080    0.0940    4.7630 ha        1 BM6      0.117500
     31 H6          5.1300   -0.0270    2.4220 ha        1 BM6      0.117500
     32 H7          3.7550    0.0580    0.3080 ha        1 BM6      0.152500
     33 H10         6.3530   -1.6100    4.3780 ha        1 BM6      0.146000
     34 H11         6.7370   -3.9580    5.1000 ha        1 BM6      0.123000
     35 H14         2.6260   -1.5580    6.5380 ha        1 BM6      0.147000
     36 H161        2.4980   -6.0610    6.5790 hc        1 BM6      0.040700
     37 H162        2.2040   -6.0060    8.3630 hc        1 BM6      0.040700
     38 H171        4.3660   -7.0920    7.8920 hc        1 BM6      0.036700
     39 H172        4.6300   -5.5260    8.7570 hc        1 BM6      0.036700
     40 H191        6.2770    2.2150    5.8680 h1        1 BM6      0.051700
     41 H192        5.3040    2.6650    4.3740 h1        1 BM6      0.051700
     42 H201        4.2500    2.2630    7.1770 h1        1 BM6      0.051700
     43 H202        3.3030    2.7130    5.6670 h1        1 BM6      0.051700
     44 H211        0.5140   -4.4750    7.3400 hc        1 BM6      0.036367
     45 H212        1.2940   -4.0660    5.7520 hc        1 BM6      0.036367
     46 H213        0.9720   -2.7650    6.9700 hc        1 BM6      0.036367
     47 H221        2.5400   -2.3760    8.8100 hc        1 BM6      0.036367
     48 H222        1.8430   -3.9140    9.4770 hc        1 BM6      0.036367
     49 H223        3.6420   -3.7000    9.3720 hc        1 BM6      0.036367
     50 H231        7.3800   -5.5090    6.3490 hc        1 BM6      0.034200
     51 H232        6.8430   -4.8140    7.9350 hc        1 BM6      0.034200
     52 H233        6.8050   -6.6090    7.6650 hc        1 BM6      0.034200
     53 H241        5.7380   -6.1020    4.6340 hc        1 BM6      0.034200
     54 H242        4.0130   -6.4250    5.0810 hc        1 BM6      0.034200
     55 H243        5.3330   -7.4830    5.7400 hc        1 BM6      0.034200
@<TRIPOS>BOND
     1    1    5 1   
     2    2    5 1   
     3    3   12 1   
     4    3   23 1   
     5    4   12 1   
     6    4   24 1   
     7    5    6 1   
     8    6    7 ar  
     9    6   11 ar  
    10    7    8 ar  
    11    7   29 1   
    12    8    9 ar  
    13    8   30 1   
    14    9   10 ar  
    15    9   12 1   
    16   10   11 ar  
    17   10   31 1   
    18   11   32 1   
    19   12   13 1   
    20   13   14 ar  
    21   13   18 ar  
    22   14   15 ar  
    23   14   33 1   
    24   15   16 ar  
    25   15   34 1   
    26   16   17 ar  
    27   16   22 1   
    28   17   18 ar  
    29   17   19 1   
    30   18   35 1   
    31   19   20 1   
    32   19   25 1   
    33   19   26 1   
    34   20   21 1   
    35   20   36 1   
    36   20   37 1   
    37   21   22 1   
    38   21   38 1   
    39   21   39 1   
    40   22   27 1   
    41   22   28 1   
    42   23   24 1   
    43   23   40 1   
    44   23   41 1   
    45   24   42 1   
    46   24   43 1   
    47   25   44 1   
    48   25   45 1   
    49   25   46 1   
    50   26   47 1   
    51   26   48 1   
    52   26   49 1   
    53   27   50 1   
    54   27   51 1   
    55   27   52 1   
    56   28   53 1   
    57   28   54 1   
    58   28   55 1   
@<TRIPOS>SUBSTRUCTURE
     1 BM6         1 TEMP              0 ****  ****    0 ROOT
