@<TRIPOS>MOLECULE
BM6
   55    54     1     0     0
SMALL
bcc


@<TRIPOS>ATOM
      1 O1          3.6230    6.9900    1.2540 o         1 BM6     -0.564500
      2 O2          4.8360    5.2110    1.6270 o         1 BM6     -0.564500
      3 O3         -1.1620    2.9510   -0.1710 os        1 BM6     -0.293000
      4 O4         -0.4780    2.7510   -2.3500 os        1 BM6     -0.293000
      5 C1          3.7690    5.7380    1.2060 c2        1 BM6      0.355000
      6 C2          2.6500    4.8610    0.6620 c2        1 BM6     -0.089000
      7 C3          1.7880    4.2100    1.5390 c2        1 BM6     -0.117000
      8 C4          0.8010    3.3610    1.0440 c1        1 BM6     -0.131000
      9 C5          0.6770    3.1640   -0.3280 c1        1 BM6     -0.156000
     10 C6          1.5400    3.8160   -1.2060 c1        1 BM6     -0.129000
     11 C7          2.5260    4.6640   -0.7110 c1        1 BM6     -0.117000
     12 C8         -0.3970    2.2020   -0.8750 c3        1 BM6      0.293000
     13 C9         -0.1400    0.6870   -0.7010 c2        1 BM6     -0.061000
     14 C10         1.0570    0.0940   -1.2410 c2        1 BM6     -0.098000
     15 C11         1.3180   -1.2880   -1.0440 c1        1 BM6     -0.141000
     16 C12         0.4190   -2.0700   -0.3310 c1        1 BM6     -0.059000
     17 C13        -0.8110   -1.4610    0.2240 c1        1 BM6     -0.059000
     18 C14        -1.0620   -0.1080    0.0290 c1        1 BM6     -0.095000
     19 C15        -1.8530   -2.4270    0.9540 c3        1 BM6     -0.010000
     20 C16        -1.5850   -3.8300    0.8800 c3        1 BM6     -0.146500
     21 C17        -0.1890   -4.2380    0.9300 c3        1 BM6     -0.146500
     22 C18         0.6980   -3.6110   -0.0030 c3        1 BM6     -0.010000
     23 C19        -2.1750    3.4530   -1.1180 c3        1 BM6     -0.042000
     24 C20        -1.6470    3.0930   -2.5240 c3        1 BM6     -0.042000
     25 C21        -3.2430   -2.1770    0.3410 c3        1 BM6     -0.202250
     26 C22        -1.9070   -2.0320    2.4420 c3        1 BM6     -0.202250
     27 C23         2.1300   -3.7270    0.5530 c3        1 BM6     -0.202250
     28 C24         0.6320   -4.3980   -1.3250 c3        1 BM6     -0.202250
     29 H3          1.8750    4.3490    2.5080 ha        1 BM6      0.152000
     30 H4          0.1920    2.9020    1.6630 ha        1 BM6      0.117000
     31 H6          1.4520    3.6770   -2.1740 ha        1 BM6      0.118000
     32 H7          3.1350    5.1240   -1.3310 ha        1 BM6      0.153000
     33 H10         1.6840    0.6420   -1.7610 ha        1 BM6      0.146000
     34 H11         2.1340   -1.6910   -1.4130 ha        1 BM6      0.124000
     35 H14        -1.8720    0.2990    0.4040 ha        1 BM6      0.147000
     36 H161       -1.9680   -4.1670    0.0390 hc        1 BM6      0.077750
     37 H162       -2.0550   -4.2680    1.6270 hc        1 BM6      0.077750
     38 H171        0.1440   -4.0370    1.8330 hc        1 BM6      0.077750
     39 H172       -0.1600   -5.2080    0.7570 hc        1 BM6      0.077750
     40 H191       -3.0390    3.0120   -0.9570 h1        1 BM6      0.091000
     41 H192       -2.2680    4.4290   -1.0300 h1        1 BM6      0.091000
     42 H201       -1.6880    3.8780   -3.1170 h1        1 BM6      0.091000
     43 H202       -2.1670    2.3500   -2.9040 h1        1 BM6      0.091000
     44 H211       -3.8700   -2.8670    0.6560 hc        1 BM6      0.074500
     45 H212       -3.5670   -1.2910    0.6160 hc        1 BM6      0.074500
     46 H213       -3.1800   -2.2140   -0.6400 hc        1 BM6      0.074500
     47 H221       -1.0120   -2.1280    2.8390 hc        1 BM6      0.074500
     48 H222       -2.2030   -1.0980    2.5220 hc        1 BM6      0.074500
     49 H223       -2.5400   -2.6180    2.9140 hc        1 BM6      0.074500
     50 H231        2.3030   -4.6580    0.8210 hc        1 BM6      0.074500
     51 H232        2.7730   -3.4600   -0.1410 hc        1 BM6      0.074500
     52 H233        2.2270   -3.1370    1.3340 hc        1 BM6      0.074500
     53 H241       -0.2220   -4.2120   -1.7750 hc        1 BM6      0.074500
     54 H242        0.7010   -5.3610   -1.1370 hc        1 BM6      0.074500
     55 H243        1.3760   -4.1240   -1.9070 hc        1 BM6      0.074500
@<TRIPOS>BOND
     1    1    5 1   
     2    2    5 1   
     3    3   12 1   
     4    3   23 1   
     5    4   12 1   
     6    4   24 1   
     7    5    6 1   
     8    6    7 1   
     9    6   11 1   
    10    7    8 1   
    11    7   29 1   
    12    8   30 1   
    13    9   10 1   
    14    9   12 1   
    15   10   31 1   
    16   11   32 1   
    17   12   13 1   
    18   13   14 1   
    19   13   18 1   
    20   14   15 1   
    21   14   33 1   
    22   15   34 1   
    23   16   17 1   
    24   16   22 1   
    25   17   19 1   
    26   18   35 1   
    27   19   20 1   
    28   19   25 1   
    29   19   26 1   
    30   20   21 1   
    31   20   36 1   
    32   20   37 1   
    33   21   22 1   
    34   21   38 1   
    35   21   39 1   
    36   22   27 1   
    37   22   28 1   
    38   23   24 1   
    39   23   40 1   
    40   23   41 1   
    41   24   42 1   
    42   24   43 1   
    43   25   44 1   
    44   25   45 1   
    45   25   46 1   
    46   26   47 1   
    47   26   48 1   
    48   26   49 1   
    49   27   50 1   
    50   27   51 1   
    51   27   52 1   
    52   28   53 1   
    53   28   54 1   
    54   28   55 1   
@<TRIPOS>SUBSTRUCTURE
     1 BM6         1 TEMP              0 ****  ****    0 ROOT
