@<TRIPOS>MOLECULE
BM6
   55    58     1     0     0
SMALL
bcc


@<TRIPOS>ATOM
      1 O1         -0.1880    0.2420    0.1750 o         1 BM6     -0.829800
      2 O2          1.6920    0.1940   -1.0300 o         1 BM6     -0.829800
      3 O3          5.4720    0.6480    4.8340 os        1 BM6     -0.436600
      4 O4          3.5630    0.6890    6.0540 os        1 BM6     -0.436600
      5 C1          1.0700    0.1910    0.0700 c         1 BM6      0.906200
      6 C2          1.8890    0.1250    1.3520 ca        1 BM6     -0.109600
      7 C3          1.2550    0.1290    2.5990 ca        1 BM6     -0.117500
      8 C4          2.0010    0.0810    3.7730 ca        1 BM6     -0.130000
      9 C5          3.3980    0.0300    3.7140 ca        1 BM6     -0.163300
     10 C6          4.0380    0.0190    2.4700 ca        1 BM6     -0.130000
     11 C7          3.2850    0.0670    1.2990 ca        1 BM6     -0.117500
     12 C8          4.2080   -0.0280    4.9820 c3        1 BM6      0.451200
     13 C9          4.4620   -1.4470    5.4300 ca        1 BM6     -0.068300
     14 C10         5.6170   -2.1200    5.0220 ca        1 BM6     -0.098000
     15 C11         5.8270   -3.4310    5.4320 ca        1 BM6     -0.141000
     16 C12         4.9010   -4.1000    6.2490 ca        1 BM6     -0.063300
     17 C13         3.7250   -3.4350    6.6310 ca        1 BM6     -0.070300
     18 C14         3.5290   -2.1050    6.2290 ca        1 BM6     -0.095000
     19 C15         2.6510   -4.0850    7.4630 c3        1 BM6     -0.001700
     20 C16         2.8490   -5.5990    7.5410 c3        1 BM6     -0.069400
     21 C17         4.2870   -5.9780    7.7900 c3        1 BM6     -0.067400
     22 C18         5.2120   -5.5130    6.6640 c3        1 BM6     -0.002700
     23 C19         5.3470    2.0000    5.2790 c3        1 BM6      0.108400
     24 C20         4.0600    2.0270    6.1020 c3        1 BM6      0.108400
     25 C21         1.2770   -3.8330    6.8440 c3        1 BM6     -0.085600
     26 C22         2.6710   -3.4860    8.8670 c3        1 BM6     -0.085600
     27 C23         6.6470   -5.6120    7.1820 c3        1 BM6     -0.083600
     28 C24         5.0650   -6.4350    5.4580 c3        1 BM6     -0.083600
     29 H3          0.1540    0.1720    2.6230 ha        1 BM6      0.152500
     30 H4          1.5030    0.0890    4.7540 ha        1 BM6      0.117500
     31 H6          5.1360   -0.0220    2.4280 ha        1 BM6      0.117500
     32 H7          3.7700    0.0610    0.3090 ha        1 BM6      0.152500
     33 H10         6.3490   -1.6070    4.3800 ha        1 BM6      0.146000
     34 H11         6.7360   -3.9540    5.1010 ha        1 BM6      0.123000
     35 H14         2.6230   -1.5600    6.5400 ha        1 BM6      0.147000
     36 H161        2.5000   -6.0630    6.5800 hc        1 BM6      0.040700
     37 H162        2.2060   -6.0090    8.3640 hc        1 BM6      0.040700
     38 H171        4.6320   -5.5260    8.7580 hc        1 BM6      0.036700
     39 H172        4.3690   -7.0920    7.8920 hc        1 BM6      0.036700
     40 H191        5.2960    2.6690    4.3830 h1        1 BM6      0.051700
     41 H192        6.2630    2.2190    5.8810 h1        1 BM6      0.051700
     42 H201        4.2300    2.2610    7.1810 h1        1 BM6      0.051700
     43 H202        3.2890    2.7110    5.6680 h1        1 BM6      0.051700
     44 H211        0.5140   -4.4790    7.3420 hc        1 BM6      0.036367
     45 H212        1.2930   -4.0690    5.7530 hc        1 BM6      0.036367
     46 H213        0.9700   -2.7680    6.9730 hc        1 BM6      0.036367
     47 H221        2.5380   -2.3790    8.8120 hc        1 BM6      0.036367
     48 H222        1.8430   -3.9170    9.4790 hc        1 BM6      0.036367
     49 H223        3.6420   -3.7010    9.3730 hc        1 BM6      0.036367
     50 H231        6.8080   -6.6060    7.6640 hc        1 BM6      0.034200
     51 H232        6.8440   -4.8110    7.9340 hc        1 BM6      0.034200
     52 H233        7.3800   -5.5060    6.3480 hc        1 BM6      0.034200
     53 H241        5.3360   -7.4810    5.7390 hc        1 BM6      0.034200
     54 H242        4.0150   -6.4240    5.0810 hc        1 BM6      0.034200
     55 H243        5.7390   -6.0990    4.6330 hc        1 BM6      0.034200
@<TRIPOS>BOND
     1    1    5 1   
     2    2    5 1   
     3    3   12 1   
     4    3   23 1   
     5    4   12 1   
     6    4   24 1   
     7    5    6 1   
     8    6    7 ar  
     9    6   11 ar  
    10    7    8 ar  
    11    7   29 1   
    12    8    9 ar  
    13    8   30 1   
    14    9   10 ar  
    15    9   12 1   
    16   10   11 ar  
    17   10   31 1   
    18   11   32 1   
    19   12   13 1   
    20   13   14 ar  
    21   13   18 ar  
    22   14   15 ar  
    23   14   33 1   
    24   15   16 ar  
    25   15   34 1   
    26   16   17 ar  
    27   16   22 1   
    28   17   18 ar  
    29   17   19 1   
    30   18   35 1   
    31   19   20 1   
    32   19   25 1   
    33   19   26 1   
    34   20   21 1   
    35   20   36 1   
    36   20   37 1   
    37   21   22 1   
    38   21   38 1   
    39   21   39 1   
    40   22   27 1   
    41   22   28 1   
    42   23   24 1   
    43   23   40 1   
    44   23   41 1   
    45   24   42 1   
    46   24   43 1   
    47   25   44 1   
    48   25   45 1   
    49   25   46 1   
    50   26   47 1   
    51   26   48 1   
    52   26   49 1   
    53   27   50 1   
    54   27   51 1   
    55   27   52 1   
    56   28   53 1   
    57   28   54 1   
    58   28   55 1   
@<TRIPOS>SUBSTRUCTURE
     1 BM6         1 TEMP              0 ****  ****    0 ROOT
