@<TRIPOS>MOLECULE
BM6
   55    58     1     0     0
SMALL
bcc


@<TRIPOS>ATOM
      1 O1          5.6080    2.4820    1.3780 o         1 BM6     -0.829800
      2 O2          5.9500    2.2880   -0.8210 o         1 BM6     -0.829800
      3 O3          1.0640   -2.7000   -1.1530 os        1 BM6     -0.436600
      4 O4          0.7130   -2.4970    1.0760 os        1 BM6     -0.436600
      5 C1          5.3220    2.0110    0.2400 c         1 BM6      0.906200
      6 C2          4.1500    1.0460    0.1430 ca        1 BM6     -0.109600
      7 C3          3.4240    0.6950    1.2860 ca        1 BM6     -0.117500
      8 C4          2.3580   -0.1970    1.2030 ca        1 BM6     -0.130000
      9 C5          2.0050   -0.7520   -0.0320 ca        1 BM6     -0.163300
     10 C6          2.7210   -0.3990   -1.1800 ca        1 BM6     -0.130000
     11 C7          3.7860    0.4940   -1.0900 ca        1 BM6     -0.117500
     12 C8          0.8480   -1.7130   -0.1260 c3        1 BM6      0.451200
     13 C9         -0.4580   -1.0060   -0.3940 ca        1 BM6     -0.068300
     14 C10        -0.9060   -0.8200   -1.7050 ca        1 BM6     -0.098000
     15 C11        -2.1040   -0.1540   -1.9320 ca        1 BM6     -0.141000
     16 C12        -2.8780    0.3430   -0.8710 ca        1 BM6     -0.063300
     17 C13        -2.4110    0.1870    0.4440 ca        1 BM6     -0.070300
     18 C14        -1.2100   -0.5040    0.6670 ca        1 BM6     -0.095000
     19 C15        -3.1450    0.7280    1.6420 c3        1 BM6     -0.001700
     20 C16        -4.2340    1.7180    1.2260 c3        1 BM6     -0.069400
     21 C17        -5.0350    1.2280    0.0470 c3        1 BM6     -0.067400
     22 C18        -4.1730    1.0360   -1.2020 c3        1 BM6     -0.002700
     23 C19         1.6540   -3.8670   -0.5790 c3        1 BM6      0.108400
     24 C20         1.4170   -3.7310    0.9240 c3        1 BM6      0.108400
     25 C21        -2.1790    1.4720    2.5640 c3        1 BM6     -0.085600
     26 C22        -3.7660   -0.4300    2.4180 c3        1 BM6     -0.085600
     27 C23        -4.9840    0.2050   -2.1950 c3        1 BM6     -0.083600
     28 C24        -3.8690    2.3920   -1.8340 c3        1 BM6     -0.083600
     29 H3          3.7210    1.1410    2.2490 ha        1 BM6      0.152500
     30 H4          1.7910   -0.4770    2.1030 ha        1 BM6      0.117500
     31 H6          2.4390   -0.8380   -2.1480 ha        1 BM6      0.117500
     32 H7          4.3650    0.7830   -1.9820 ha        1 BM6      0.152500
     33 H10        -0.3060   -1.2040   -2.5440 ha        1 BM6      0.146000
     34 H11        -2.4450   -0.0080   -2.9680 ha        1 BM6      0.123000
     35 H14        -0.8420   -0.6570    1.6940 ha        1 BM6      0.147000
     36 H161       -3.7560    2.7010    0.9710 hc        1 BM6      0.040700
     37 H162       -4.9190    1.8950    2.0960 hc        1 BM6      0.040700
     38 H171       -5.8520    1.9610   -0.1830 hc        1 BM6      0.036700
     39 H172       -5.5250    0.2520    0.3060 hc        1 BM6      0.036700
     40 H191        2.7410   -3.8850   -0.8410 h1        1 BM6      0.051700
     41 H192        1.1260   -4.7420   -1.0320 h1        1 BM6      0.051700
     42 H201        2.3720   -3.6720    1.5040 h1        1 BM6      0.051700
     43 H202        0.7520   -4.5260    1.3420 h1        1 BM6      0.051700
     44 H211       -2.7530    2.0400    3.3350 hc        1 BM6      0.036367
     45 H212       -1.5000    0.7580    3.0890 hc        1 BM6      0.036367
     46 H213       -1.5560    2.1880    1.9770 hc        1 BM6      0.036367
     47 H221       -4.5230   -0.9610    1.7930 hc        1 BM6      0.036367
     48 H222       -2.9740   -1.1600    2.7140 hc        1 BM6      0.036367
     49 H223       -4.2660   -0.0480    3.3410 hc        1 BM6      0.036367
     50 H231       -4.5110    0.2180   -3.2060 hc        1 BM6      0.034200
     51 H232       -5.0540   -0.8530   -1.8480 hc        1 BM6      0.034200
     52 H233       -6.0150    0.6240   -2.2860 hc        1 BM6      0.034200
     53 H241       -4.8190    2.9000   -2.1260 hc        1 BM6      0.034200
     54 H242       -3.3170    3.0440   -1.1170 hc        1 BM6      0.034200
     55 H243       -3.2390    2.2570   -2.7460 hc        1 BM6      0.034200
@<TRIPOS>BOND
     1    1    5 1   
     2    2    5 1   
     3    3   12 1   
     4    3   23 1   
     5    4   12 1   
     6    4   24 1   
     7    5    6 1   
     8    6    7 ar  
     9    6   11 ar  
    10    7    8 ar  
    11    7   29 1   
    12    8    9 ar  
    13    8   30 1   
    14    9   10 ar  
    15    9   12 1   
    16   10   11 ar  
    17   10   31 1   
    18   11   32 1   
    19   12   13 1   
    20   13   14 ar  
    21   13   18 ar  
    22   14   15 ar  
    23   14   33 1   
    24   15   16 ar  
    25   15   34 1   
    26   16   17 ar  
    27   16   22 1   
    28   17   18 ar  
    29   17   19 1   
    30   18   35 1   
    31   19   20 1   
    32   19   25 1   
    33   19   26 1   
    34   20   21 1   
    35   20   36 1   
    36   20   37 1   
    37   21   22 1   
    38   21   38 1   
    39   21   39 1   
    40   22   27 1   
    41   22   28 1   
    42   23   24 1   
    43   23   40 1   
    44   23   41 1   
    45   24   42 1   
    46   24   43 1   
    47   25   44 1   
    48   25   45 1   
    49   25   46 1   
    50   26   47 1   
    51   26   48 1   
    52   26   49 1   
    53   27   50 1   
    54   27   51 1   
    55   27   52 1   
    56   28   53 1   
    57   28   54 1   
    58   28   55 1   
@<TRIPOS>SUBSTRUCTURE
     1 BM6         1 TEMP              0 ****  ****    0 ROOT
