@<TRIPOS>MOLECULE
BM9
   71    66     1     0     0
SMALL
bcc


@<TRIPOS>ATOM
      1 C27         2.4440    2.9390    1.2720 c1        1 BM9      0.302000
      2 O28         2.2460    2.9330    2.4580 o         1 BM9     -0.378000
      3 C29         3.0730    4.2100    0.5840 c3        1 BM9     -0.126000
      4 C30         3.4590    5.2980    1.6260 c3        1 BM9     -0.055000
      5 N31         3.9470    6.5500    1.0030 n3        1 BM9     -0.277000
      6 C32         3.0540    7.0800    0.0180 c3        1 BM9     -0.060000
      7 C33         2.6560    6.0780   -1.0130 c3        1 BM9     -0.159000
      8 C34         2.1410    4.8060   -0.4180 c3        1 BM9     -0.154000
      9 C35         4.8410    7.4340    1.7370 c2        1 BM9      0.149000
     10 N37         6.1420    7.2750    1.6440 n1        1 BM9     -0.304000
     11 N36         4.2980    8.4910    2.5710 n3        1 BM9     -0.337000
     12 N26         2.0950    1.7780    0.4720 n2        1 BM9     -0.375000
     13 C25         1.5490    0.6030    1.1080 c3        1 BM9     -0.035000
     14 C24         0.3420    0.1130    0.3190 c3        1 BM9      0.005000
     15 N20         0.0130   -1.0660    0.6980 n         1 BM9     -0.319000
     16 C21        -1.5930   -1.1530    0.5790 c3        1 BM9     -0.037000
     17 C22        -2.0720    0.0610    0.9530 c3        1 BM9     -0.165000
     18 C23        -0.9590    1.0340    0.6380 c3        1 BM9     -0.177000
     19 N14        -0.3990   -3.9810    0.3170 n3        1 BM9     -0.895000
     20 C15         0.3910   -3.5350    1.4380 c3        1 BM9     -0.012000
     21 C18         0.9320   -2.1440    1.1580 c2        1 BM9      0.296000
     22 O19         2.1690   -1.9360    1.2000 o         1 BM9     -0.382000
     23 C16         1.5480   -4.4820    1.6520 c3        1 BM9     -0.027000
     24 O17         1.3150   -5.2780    2.8380 oh        1 BM9     -0.324000
     25 S11        -1.7570   -5.0020    0.5750 s4        1 BM9      2.084800
     26 O13        -1.3490   -6.3250    0.9490 o         1 BM9     -0.550900
     27 O12        -2.5110   -4.5910    1.7560 o         1 BM9     -0.550900
     28 C2         -3.8510   -4.1850   -1.1530 c1        1 BM9     -0.081500
     29 C1         -2.8040   -5.0320   -0.8890 c1        1 BM9     -0.839000
     30 C8         -2.5260   -6.0840   -1.7520 c1        1 BM9     -0.049000
     31 C7         -3.3070   -6.2800   -2.8800 c1        1 BM9     -0.081500
     32 C6         -5.1710   -5.6170   -4.3060 c1        1 BM9     -0.081500
     33 C5         -6.2210   -4.7660   -4.5740 c1        1 BM9     -0.115500
     34 C4         -6.5000   -3.7090   -3.7070 c1        1 BM9     -0.115500
     35 C3         -5.7170   -3.5130   -2.5710 c1        1 BM9     -0.081500
     36 C9         -4.6450   -4.3820   -2.2980 c1        1 BM9     -0.030500
     37 C10        -4.3720   -5.4190   -3.1490 c1        1 BM9     -0.030500
     38 H29         3.8680    3.8250    0.1530 hc        1 BM9      0.123000
     39 H301        2.6810    5.5020    2.1690 h1        1 BM9      0.094500
     40 H302        4.1500    4.9490    2.1960 h1        1 BM9      0.094500
     41 H321        3.4880    7.8330   -0.4260 h1        1 BM9      0.084000
     42 H322        2.2470    7.4040    0.4690 h1        1 BM9      0.084000
     43 H331        1.9480    6.4720   -1.5840 hc        1 BM9      0.091500
     44 H332        3.4390    5.8720   -1.5730 hc        1 BM9      0.091500
     45 H341        1.9940    4.1390   -1.1580 hc        1 BM9      0.086500
     46 H342        1.2720    4.9900    0.0260 hc        1 BM9      0.086500
     47 HN7         6.4880    6.6050    1.1160 DU        1 BM9      0.161000
     48 HN61        3.3950    8.5530    2.7010 hn        1 BM9      0.192500
     49 HN62        4.8720    9.1370    2.9410 hn        1 BM9      0.192500
     50 HN6         2.2310    1.7850   -0.4020 hn        1 BM9      0.227000
     51 H251        2.2440   -0.1180    1.1330 h1        1 BM9      0.115000
     52 H252        1.2670    0.8290    2.0420 h1        1 BM9      0.115000
     53 H24         0.5390    0.1210   -0.6410 h1        1 BM9      0.097000
     54 H211       -1.9310   -1.8360    1.1670 h1        1 BM9      0.100500
     55 H212       -1.8580   -1.3520   -0.3710 h1        1 BM9      0.100500
     56 H221       -2.2690    0.0680    1.9170 hc        1 BM9      0.096000
     57 H222       -2.8640    0.2810    0.4470 hc        1 BM9      0.096000
     58 H231       -0.7890    1.6050    1.4020 hc        1 BM9      0.105500
     59 H232       -1.1910    1.5720   -0.1390 hc        1 BM9      0.105500
     60 HN4        -0.1380   -3.7720   -0.5380 hn        1 BM9      0.256000
     61 H15        -0.1470   -3.5140    2.2170 h1        1 BM9      0.130000
     62 H161        2.3740   -3.9660    1.7620 h1        1 BM9      0.105000
     63 H162        1.6340   -5.0660    0.8840 h1        1 BM9      0.105000
     64 HO7         2.0320   -5.7760    3.0050 ho        1 BM9      0.218000
     65 H2         -4.0210   -3.4300   -0.5690 ha        1 BM9      0.145000
     66 H8         -1.8420   -6.7170   -1.5280 ha        1 BM9      0.156000
     67 H7         -3.1070   -7.0420   -3.5050 ha        1 BM9      0.145000
     68 H6         -4.9780   -6.3510   -4.9100 ha        1 BM9      0.145000
     69 H5         -6.7910   -4.9090   -5.4030 ha        1 BM9      0.139500
     70 H4         -7.2230   -3.1220   -3.8900 ha        1 BM9      0.139500
     71 H3         -5.9130   -2.7700   -1.9610 ha        1 BM9      0.145000
@<TRIPOS>BOND
     1    1    2 1   
     2    1    3 1   
     3    3    4 1   
     4    3    8 1   
     5    3   38 1   
     6    4    5 1   
     7    4   39 1   
     8    4   40 1   
     9    5    6 1   
    10    5    9 1   
    11    6    7 1   
    12    6   41 1   
    13    6   42 1   
    14    7    8 1   
    15    7   43 1   
    16    7   44 1   
    17    8   45 1   
    18    8   46 1   
    19    9   10 1   
    20    9   11 1   
    21   11   48 1   
    22   11   49 1   
    23   12   13 1   
    24   12   50 1   
    25   13   14 1   
    26   13   51 1   
    27   13   52 1   
    28   14   15 1   
    29   14   18 1   
    30   14   53 1   
    31   15   16 1   
    32   15   21 1   
    33   16   17 1   
    34   16   54 1   
    35   16   55 1   
    36   17   18 1   
    37   17   56 1   
    38   17   57 1   
    39   18   58 1   
    40   18   59 1   
    41   19   20 1   
    42   19   25 1   
    43   19   60 1   
    44   20   21 1   
    45   20   23 1   
    46   20   61 1   
    47   21   22 1   
    48   23   24 1   
    49   23   62 1   
    50   23   63 1   
    51   24   64 1   
    52   25   26 1   
    53   25   27 1   
    54   28   36 1   
    55   28   65 1   
    56   29   30 1   
    57   30   66 1   
    58   31   37 1   
    59   31   67 1   
    60   32   37 1   
    61   32   68 1   
    62   33   34 1   
    63   33   69 1   
    64   34   70 1   
    65   35   36 1   
    66   35   71 1   
@<TRIPOS>SUBSTRUCTURE
     1 BM9         1 TEMP              0 ****  ****    0 ROOT
