@<TRIPOS>MOLECULE
BM9
   71    74     1     0     0
SMALL
bcc


@<TRIPOS>ATOM
      1 C27         4.5340    1.3660    0.1670 c         1 BM9      0.664100
      2 O28         4.2860    2.0180    1.2000 o         1 BM9     -0.604100
      3 C29         5.8070    0.5420    0.0120 c3        1 BM9     -0.165700
      4 C30         5.4760   -0.9260    0.3340 c3        1 BM9      0.191800
      5 N31         6.6110   -1.8310    0.3960 nh        1 BM9     -0.694600
      6 C32         7.6990   -1.3010    1.2110 c3        1 BM9      0.169800
      7 C33         8.0950    0.1450    0.9180 c3        1 BM9     -0.108400
      8 C34         6.8870    1.0560    0.9510 c3        1 BM9     -0.070400
      9 C35         7.0520   -2.3850   -0.8820 c2        1 BM9      0.745100
     10 N37         6.8060   -1.7750   -2.0130 n2        1 BM9     -0.874100
     11 N36         7.7820   -3.6100   -0.7620 nh        1 BM9     -0.931800
     12 N26         3.6640    1.3660   -0.9060 n         1 BM9     -0.577900
     13 C25         2.4010    2.0430   -0.8790 c3        1 BM9      0.083000
     14 C24         1.2580    1.2020   -1.5120 c3        1 BM9      0.082700
     15 N20        -0.0430    1.8560   -1.3690 n         1 BM9     -0.456800
     16 C21        -0.6540    2.1240   -2.6580 c3        1 BM9      0.071000
     17 C22         0.2460    1.5030   -3.7380 c3        1 BM9     -0.087400
     18 C23         1.4890    0.9870   -3.0230 c3        1 BM9     -0.095400
     19 N14        -3.1310    1.5280    0.2290 n3        1 BM9     -0.910100
     20 C15        -2.1190    2.4990   -0.0660 c3        1 BM9      0.148500
     21 C18        -0.7220    1.8310   -0.1730 c         1 BM9      0.636100
     22 O19        -0.2020    1.3410    0.8520 o         1 BM9     -0.621100
     23 C16        -1.9980    3.5960    1.0240 c3        1 BM9      0.131400
     24 O17        -1.9270    3.0650    2.3250 oh        1 BM9     -0.600800
     25 O13        -5.4850    1.7180   -0.5830 o         1 BM9     -0.664800
     26 O12        -3.7640    1.1440   -2.1290 o         1 BM9     -0.664800
     27 C2         -5.5030   -0.9720    0.4420 ca        1 BM9      0.032000
     28 C1         -4.4680   -0.5690   -0.3780 ca        1 BM9     -0.388500
     29 C8         -3.5760   -1.5500   -0.8880 ca        1 BM9     -0.040000
     30 C7         -3.7220   -2.8750   -0.5730 ca        1 BM9     -0.134000
     31 C6         -4.9580   -4.6690    0.6270 ca        1 BM9     -0.135000
     32 C5         -5.9930   -5.0460    1.4460 ca        1 BM9     -0.099000
     33 C4         -6.8980   -4.0820    1.9530 ca        1 BM9     -0.135000
     34 C3         -6.7490   -2.7550    1.6320 ca        1 BM9     -0.096000
     35 C9         -5.6840   -2.3350    0.7870 ca        1 BM9     -0.075000
     36 C10        -4.7790   -3.3020    0.2770 ca        1 BM9      0.015000
     37 H29         6.1860    0.6190   -1.0450 hc        1 BM9      0.089700
     38 H301        5.0040   -0.9640    1.3590 h1        1 BM9      0.065200
     39 H302        4.7280   -1.3120   -0.4120 h1        1 BM9      0.065200
     40 H321        7.3370   -1.3670    2.2780 h1        1 BM9      0.060200
     41 H322        8.6070   -1.9560    1.1130 h1        1 BM9      0.060200
     42 H331        8.8390    0.4750    1.6870 hc        1 BM9      0.052700
     43 H332        8.5910    0.2070   -0.0860 hc        1 BM9      0.052700
     44 H341        7.1810    2.0950    0.6500 hc        1 BM9      0.060700
     45 H342        6.4750    1.1160    1.9940 hc        1 BM9      0.060700
     46 HN7         7.0800   -2.2610   -2.8390 hn        1 BM9      0.391400
     47 HN61        7.7390   -4.0450    0.1330 hn        1 BM9      0.394800
     48 HN62        7.6160   -4.2500   -1.5060 hn        1 BM9      0.394800
     49 HN6         3.8820    0.8200   -1.7050 hn        1 BM9      0.311500
     50 H251        2.4930    3.0170   -1.4410 h1        1 BM9      0.069700
     51 H252        2.1320    2.2760    0.1940 h1        1 BM9      0.069700
     52 H24         1.2160    0.2070   -0.9770 h1        1 BM9      0.069700
     53 H211       -1.6930    1.6890   -2.7140 h1        1 BM9      0.067700
     54 H212       -0.7280    3.2380   -2.8040 h1        1 BM9      0.067700
     55 H221       -0.2930    0.6720   -4.2550 hc        1 BM9      0.056700
     56 H222        0.5120    2.2690   -4.5060 hc        1 BM9      0.056700
     57 H231        1.6510   -0.0990   -3.2320 hc        1 BM9      0.053700
     58 H232        2.3950    1.5430   -3.3710 hc        1 BM9      0.053700
     59 HN4        -3.0820    1.2130    1.1720 hn        1 BM9      0.467800
     60 H15        -2.3840    3.0140   -1.0380 h1        1 BM9      0.082700
     61 H161       -1.0940    4.2210    0.7960 h1        1 BM9      0.059200
     62 H162       -2.9200    4.2370    1.0250 h1        1 BM9      0.059200
     63 HO7        -1.1240    2.5240    2.3820 ho        1 BM9      0.431000
     64 H8         -2.7650   -1.2200   -1.5610 ha        1 BM9      0.148000
     65 H7         -3.0270   -3.6300   -0.9720 ha        1 BM9      0.141000
     66 H6         -4.2510   -5.4120    0.2280 ha        1 BM9      0.139000
     67 H5         -6.1340   -6.1040    1.7190 ha        1 BM9      0.138000
     68 H4         -7.7200   -4.4120    2.6070 ha        1 BM9      0.139000
     69 H3         -7.4470   -1.9970    2.0200 ha        1 BM9      0.141000
     70 S11        -4.2720    1.0440   -0.8140 sy        1 BM9      1.529200
     71 H2         -6.2200   -0.2260    0.8330 ha        1 BM9      0.160000
@<TRIPOS>BOND
     1    1    2 2   
     2    1    3 1   
     3    1   12 1   
     4    3    4 1   
     5    3    8 1   
     6    3   37 1   
     7    4    5 1   
     8    4   38 1   
     9    4   39 1   
    10    5    6 1   
    11    5    9 1   
    12    6    7 1   
    13    6   40 1   
    14    6   41 1   
    15    7    8 1   
    16    7   42 1   
    17    7   43 1   
    18    8   44 1   
    19    8   45 1   
    20    9   10 2   
    21    9   11 1   
    22   10   46 1   
    23   11   47 1   
    24   11   48 1   
    25   12   13 1   
    26   12   49 1   
    27   13   14 1   
    28   13   50 1   
    29   13   51 1   
    30   14   15 1   
    31   14   18 1   
    32   14   52 1   
    33   15   16 1   
    34   15   21 1   
    35   16   17 1   
    36   16   53 1   
    37   16   54 1   
    38   17   18 1   
    39   17   55 1   
    40   17   56 1   
    41   18   57 1   
    42   18   58 1   
    43   19   20 1   
    44   19   59 1   
    45   19   70 1   
    46   20   21 1   
    47   20   23 1   
    48   20   60 1   
    49   21   22 2   
    50   23   24 1   
    51   23   61 1   
    52   23   62 1   
    53   24   63 1   
    54   25   70 2   
    55   26   70 2   
    56   27   28 ar  
    57   27   35 ar  
    58   27   71 1   
    59   28   29 ar  
    60   28   70 1   
    61   29   30 ar  
    62   29   64 1   
    63   30   36 ar  
    64   30   65 1   
    65   31   32 ar  
    66   31   36 ar  
    67   31   66 1   
    68   32   33 ar  
    69   32   67 1   
    70   33   34 ar  
    71   33   68 1   
    72   34   35 ar  
    73   34   69 1   
    74   35   36 ar  
@<TRIPOS>SUBSTRUCTURE
     1 BM9         1 TEMP              0 ****  ****    0 ROOT
