@<TRIPOS>MOLECULE
BMA
   24    24     1     0     0
SMALL
bcc


@<TRIPOS>ATOM
      1 C1         -1.4660   -0.7200   -0.3790 c3        1 BMA      0.320900
      2 C2         -0.5440   -0.4370   -1.5840 c3        1 BMA      0.059100
      3 C3          0.9320   -0.6070   -1.2110 c3        1 BMA      0.112100
      4 C4          1.2470    0.1420    0.0960 c3        1 BMA      0.087100
      5 C5          0.2950   -0.3320    1.2010 c3        1 BMA      0.115100
      6 C6          0.5160    0.4520    2.4980 c3        1 BMA      0.140400
      7 O1         -2.7360   -0.1610   -0.6000 oh        1 BMA     -0.601800
      8 O2         -0.7070    0.8970   -2.0390 oh        1 BMA     -0.606800
      9 O3          1.7910   -0.1620   -2.2410 oh        1 BMA     -0.594800
     10 O4          2.5670   -0.1340    0.5270 oh        1 BMA     -0.594800
     11 O5         -1.0580   -0.0760    0.8180 os        1 BMA     -0.459600
     12 O6         -0.2490   -0.0830    3.5550 oh        1 BMA     -0.593800
     13 H1         -1.6030   -1.8250   -0.2200 h2        1 BMA      0.080700
     14 H2         -0.8090   -1.1490   -2.4150 h1        1 BMA      0.066700
     15 H3          1.1720   -1.7010   -1.0930 h1        1 BMA      0.091700
     16 H4          1.1260    1.2490   -0.0710 h1        1 BMA      0.063700
     17 H5          0.4270   -1.4330    1.3860 h1        1 BMA      0.068700
     18 H61         0.2660    1.5340    2.3380 h1        1 BMA      0.066200
     19 H62         1.5880    0.3400    2.8120 h1        1 BMA      0.066200
     20 HO1        -2.7290    0.7470   -0.2620 ho        1 BMA      0.432000
     21 HO2        -1.6250    0.9800   -2.3310 ho        1 BMA      0.424000
     22 HO3         1.5000    0.7230   -2.5030 ho        1 BMA      0.425000
     23 HO4         3.1330   -0.0590   -0.2550 ho        1 BMA      0.423000
     24 HO6        -1.1760   -0.0250    3.2920 ho        1 BMA      0.410000
@<TRIPOS>BOND
     1    1    2 1   
     2    1    7 1   
     3    1   11 1   
     4    1   13 1   
     5    2    3 1   
     6    2    8 1   
     7    2   14 1   
     8    3    4 1   
     9    3    9 1   
    10    3   15 1   
    11    4    5 1   
    12    4   10 1   
    13    4   16 1   
    14    5    6 1   
    15    5   11 1   
    16    5   17 1   
    17    6   12 1   
    18    6   18 1   
    19    6   19 1   
    20    7   20 1   
    21    8   21 1   
    22    9   22 1   
    23   10   23 1   
    24   12   24 1   
@<TRIPOS>SUBSTRUCTURE
     1 BMA         1 TEMP              0 ****  ****    0 ROOT
