@<TRIPOS>MOLECULE
BMB
   92    91     1     0     0
SMALL
bcc


@<TRIPOS>ATOM
      1 C          -2.2310    0.6370   -0.0020 c2        1 BMB      0.278000
      2 N          -0.2040    1.3960   -2.1790 n2        1 BMB     -0.287000
      3 O          -2.9500    1.3190   -0.7290 o         1 BMB     -0.263000
      4 CA         -1.8770    0.9350    1.4250 c3        1 BMB     -0.180000
      5 CB         -0.3950    1.2140    1.5940 c3        1 BMB     -0.167000
      6 CAA        -0.1260    1.8280    2.9440 c3        1 BMB     -0.213000
      7 CAB        -0.7640    2.3750   -2.7640 c2        1 BMB     -0.092000
      8 CAF        -2.0150   -4.8400   -7.5680 ca        1 BMB     -0.100000
      9 CAG         0.1190    2.3230    6.6640 c2        1 BMB     -0.193000
     10 CAH        -2.0760   -4.3550    9.8170 ca        1 BMB     -0.130000
     11 CAI        -0.7680   -4.2230   -7.6760 ca        1 BMB     -0.133500
     12 CAJ        -2.8770   -4.5010   -6.5240 ca        1 BMB     -0.133500
     13 CAK         1.6750    0.6590    7.2560 c1        1 BMB      0.145000
     14 CAL        -0.7640    1.5570    7.3220 c2        1 BMB     -0.122000
     15 CAM        -0.8120   -4.6220    9.2920 ca        1 BMB     -0.132000
     16 CAN        -2.8820   -3.3830    9.2250 ca        1 BMB     -0.132000
     17 CAO        -0.3770   -3.2650   -6.7420 ca        1 BMB     -0.087500
     18 CAP        -2.4970   -3.5450   -5.5850 ca        1 BMB     -0.087500
     19 CAQ         1.1180   -0.5380    7.1320 c2        1 BMB     -0.428000
     20 CAR        -1.1710    0.2310    6.8890 c2        1 BMB     -0.180000
     21 CAS        -0.3550   -3.9210    8.1770 ca        1 BMB     -0.113500
     22 CAT        -2.4250   -2.6770    8.1130 ca        1 BMB     -0.113500
     23 CAW        -3.7310   -2.5000   -1.9760 cx        1 BMB     -0.166000
     24 CAX        -3.6580   -3.6750   -1.0430 cx        1 BMB     -0.217000
     25 CAY         0.0470   -4.7620    1.2510 c3        1 BMB     -0.225000
     26 CAZ        -5.0630   -2.7420    3.0730 c3        1 BMB     -0.094000
     27 CBA        -3.7190   -2.8210    3.5460 c1        1 BMB     -0.427000
     28 CBB        -0.8520   -1.9490   -4.7370 c1        1 BMB     -0.064000
     29 NBD        -0.5360   -1.1500   -3.9510 n1        1 BMB     -0.084000
     30 NBE        -1.6660   -0.6210   -0.5980 n4        1 BMB      0.056000
     31 CBH        -1.3660   -3.0840    4.1880 c2        1 BMB      0.391000
     32 CBI        -1.4820   -2.4100    1.0570 c2        1 BMB      0.318000
     33 CBJ        -1.2430   -2.9240   -5.6940 ca        1 BMB     -0.029000
     34 CBK        -0.2780   -0.7770    6.8020 c2        1 BMB     -0.001000
     35 CBL        -1.1580   -2.9410    7.5840 ca        1 BMB     -0.090000
     36 CBM        -3.5190   -2.2760   -0.4910 cx        1 BMB     -0.066000
     37 CBO        -1.4000   -4.8320    1.6900 c3        1 BMB     -0.100000
     38 CBP        -2.4990   -3.1150    3.2240 c2        1 BMB     -0.163000
     39 CBQ        -2.2270   -1.8110    0.0040 c2        1 BMB     -0.551000
     40 CBR        -0.6370   -2.1880    6.3750 c3        1 BMB      0.089000
     41 NBS        -2.1300   -3.5360    1.7930 n4        1 BMB     -0.018000
     42 HN         -2.4830    1.8250    1.7450 hc        1 BMB      0.141000
     43 HA         -2.1700    0.0570    2.0670 hc        1 BMB      0.141000
     44 HB         -0.0400    1.9040    0.7850 hc        1 BMB      0.102500
     45 HBA         0.1780    0.2490    1.5060 hc        1 BMB      0.102500
     46 HAA        -0.6430    2.8120    3.0460 hc        1 BMB      0.082667
     47 HAAA        0.9720    1.9890    3.0780 hc        1 BMB      0.082667
     48 HAAB       -0.4840    1.1520    3.7600 hc        1 BMB      0.082667
     49 HAB        -1.7330    2.7370   -2.3640 h4        1 BMB      0.115000
     50 HABA       -0.3910    2.9200   -3.6540 h4        1 BMB      0.115000
     51 HABB        0.6620    1.0750   -2.5580 hn        1 BMB      0.151000
     52 HAG         0.5310    2.0530    5.6780 ha        1 BMB      0.126500
     53 HAH        -2.4370   -4.9110   10.6940 ha        1 BMB      0.127000
     54 HAI        -0.0890   -4.4930   -8.4990 ha        1 BMB      0.143000
     55 HAJ        -3.8590   -4.9890   -6.4400 ha        1 BMB      0.143000
     56 HAK         0.4400    3.2990    7.0500 ha        1 BMB      0.126500
     57 HAL        -1.2200    1.8990    8.2680 ha        1 BMB      0.132000
     58 HAM        -0.1760   -5.3910    9.7530 ha        1 BMB      0.129000
     59 HAN        -3.8810   -3.1730    9.6340 ha        1 BMB      0.129000
     60 HAO         0.6070   -2.7800   -6.8250 ha        1 BMB      0.146500
     61 HAP        -3.1760   -3.2770   -4.7580 ha        1 BMB      0.146500
     62 HAQ         1.7500   -1.4350    7.2900 ha        1 BMB      0.186000
     63 HAR        -2.2420    0.0900    6.6780 ha        1 BMB      0.145000
     64 HAS         0.6380   -4.1450    7.7580 ha        1 BMB      0.132500
     65 HAT        -3.0660   -1.9090    7.6540 ha        1 BMB      0.132500
     66 HAW        -2.8700   -2.3390   -2.6570 hc        1 BMB      0.107000
     67 HAWA       -4.3860   -1.8770    0.0820 hc        1 BMB      0.117000
     68 HAX         0.6430   -4.1460    1.9730 hc        1 BMB      0.097667
     69 HAXA        0.1450   -4.3150    0.2330 hc        1 BMB      0.097667
     70 HAY        -1.9690   -5.4820    0.9640 hx        1 BMB      0.106500
     71 HAYA       -2.7690   -4.3290   -1.0830 hc        1 BMB      0.112500
     72 HAZ        -5.4750   -1.7190    3.2770 hc        1 BMB      0.055333
     73 HAZA        0.4590   -5.8000    1.2330 hc        1 BMB      0.097667
     74 HBAA       -5.6950   -3.4850    3.6270 hc        1 BMB      0.055333
     75 HBAB       -5.1890   -2.9410    1.9710 hc        1 BMB      0.055333
     76 HBB        -6.4730   -4.4700   -2.1550 ha        1 BMB      0.000000
     77 HBBA       -6.8020   -5.0050   -1.9000 ha        1 BMB      0.000000
     78 HNBD       -5.2240   -2.7600   -3.4980 hc        1 BMB      0.079000
     79 HNBE       -0.6480   -0.6170   -0.4380 hn        1 BMB      0.251000
     80 HBM        -4.5840   -4.2370   -0.8230 hc        1 BMB      0.112500
     81 HBO        -1.4410   -5.3140    2.7110 hx        1 BMB      0.106500
     82 HBP        -3.0450   -3.6900    1.3490 hn        1 BMB      0.215000
     83 HBQ        -1.8590   -0.6310   -1.6060 hn        1 BMB      0.251000
     84 HBR         0.3200   -2.6990    6.0290 h1        1 BMB      0.140000
     85 OAD        -0.3290   -3.7760    4.0850 o         1 BMB     -0.415000
     86 OAE        -0.3440   -2.0220    1.4110 o         1 BMB     -0.396000
     87 CAV        -5.0320   -2.1280   -2.5960 c3        1 BMB     -0.191000
     88 NBF        -1.5380   -2.1990    5.2470 n         1 BMB     -0.352000
     89 HAF        -2.3190   -5.5960   -8.3080 ha        1 BMB      0.141000
     90 HAV        -5.0210   -1.0550   -2.9100 hc        1 BMB      0.079000
     91 HAVA       -5.8780   -2.2750   -1.8800 hc        1 BMB      0.079000
     92 HNBF       -2.4640   -1.8570    5.3940 hn        1 BMB      0.240000
@<TRIPOS>BOND
     1    1    3 1   
     2    1    4 1   
     3    1   30 1   
     4    2    7 1   
     5    2   51 1   
     6    4    5 1   
     7    4   42 1   
     8    4   43 1   
     9    5    6 1   
    10    5   44 1   
    11    5   45 1   
    12    6   46 1   
    13    6   47 1   
    14    6   48 1   
    15    7   49 1   
    16    7   50 1   
    17    8   11 1   
    18    8   12 1   
    19    8   89 1   
    20    9   14 1   
    21    9   52 1   
    22    9   56 1   
    23   10   15 1   
    24   10   16 1   
    25   10   53 1   
    26   11   17 1   
    27   11   54 1   
    28   12   18 1   
    29   12   55 1   
    30   13   19 1   
    31   14   20 1   
    32   14   57 1   
    33   15   21 1   
    34   15   58 1   
    35   16   22 1   
    36   16   59 1   
    37   17   33 1   
    38   17   60 1   
    39   18   33 1   
    40   18   61 1   
    41   19   34 1   
    42   19   62 1   
    43   20   34 1   
    44   20   63 1   
    45   21   35 1   
    46   21   64 1   
    47   22   35 1   
    48   22   65 1   
    49   23   24 1   
    50   23   36 1   
    51   23   66 1   
    52   23   87 1   
    53   24   36 1   
    54   24   71 1   
    55   24   80 1   
    56   25   37 1   
    57   25   68 1   
    58   25   69 1   
    59   25   73 1   
    60   26   27 1   
    61   26   72 1   
    62   26   74 1   
    63   26   75 1   
    64   27   38 1   
    65   28   29 1   
    66   28   33 1   
    67   30   39 1   
    68   30   79 1   
    69   30   83 1   
    70   31   38 1   
    71   31   85 1   
    72   31   88 1   
    73   32   39 1   
    74   32   41 1   
    75   32   86 1   
    76   34   40 1   
    77   35   40 1   
    78   36   39 1   
    79   36   67 1   
    80   37   41 1   
    81   37   70 1   
    82   37   81 1   
    83   38   41 1   
    84   40   84 1   
    85   40   88 1   
    86   41   82 1   
    87   76   77 1   
    88   78   87 1   
    89   87   90 1   
    90   87   91 1   
    91   88   92 1   
@<TRIPOS>SUBSTRUCTURE
     1 BMB         1 TEMP              0 ****  ****    0 ROOT
