@<TRIPOS>MOLECULE
BMB
   92    85     1     0     0
SMALL
bcc


@<TRIPOS>ATOM
      1 C           2.6210    0.5000   -1.2300 c1        1 BMB      0.308000
      2 N           4.9120    0.9760   -1.8930 n3        1 BMB     -0.316000
      3 O           2.2850    1.0880   -2.2270 o         1 BMB     -0.376000
      4 CA          4.1000    0.5030   -0.8040 c2        1 BMB     -0.043000
      5 CB          4.2770    1.3980    0.3670 c3        1 BMB     -0.181000
      6 CAA         5.7800    1.4480    0.7580 c3        1 BMB     -0.216000
      7 CAB         5.7120   -0.0950   -2.3910 c3        1 BMB     -0.126000
      8 OAD         0.3540    0.8820    2.9350 o         1 BMB     -0.381000
      9 OAE        -1.5160    0.7450   -0.2260 o         1 BMB     -0.380000
     10 CAF        -1.7530   -3.5510   -9.9850 c1        1 BMB     -0.127333
     11 CAG        -2.5560    6.3750    2.6850 c1        1 BMB     -0.127333
     12 CAH        -1.4300    3.7440    8.5710 c1        1 BMB     -0.127333
     13 CAI        -1.2760   -4.6960   -9.3270 c1        1 BMB     -0.127333
     14 CAJ        -1.9590   -2.3640   -9.2650 c1        1 BMB     -0.127333
     15 CAK        -1.4610    5.6340    2.2620 c1        1 BMB     -0.127333
     16 CAL        -3.3570    5.9030    3.7020 c1        1 BMB     -0.127333
     17 CAM        -0.2570    3.6170    7.8430 c1        1 BMB     -0.127333
     18 CAN        -2.6300    3.3100    8.0360 c1        1 BMB     -0.127333
     19 CAO        -1.0040   -4.6540   -7.9550 c1        1 BMB     -0.126000
     20 CAP        -1.6890   -2.3220   -7.8980 c1        1 BMB     -0.127333
     21 CAQ        -1.1720    4.4200    2.8620 c1        1 BMB     -0.115500
     22 CAR        -3.0710    4.6920    4.3020 c1        1 BMB     -0.127333
     23 CAS        -0.2840    3.0450    6.5580 c1        1 BMB     -0.127333
     24 CAT        -2.6640    2.7400    6.7590 c1        1 BMB     -0.115500
     25 CAV        -0.6430   -2.9470   -3.6010 c3        1 BMB     -0.070000
     26 CAW         0.5460   -2.3410   -2.8320 c3        1 BMB     -0.166000
     27 CAX         0.8890   -2.8760   -0.4270 c3        1 BMB     -0.162000
     28 CAY        -0.0030   -3.4480    0.6430 c3        1 BMB     -0.165000
     29 CAZ        -1.6760   -2.8250    2.1060 c3        1 BMB     -0.166000
     30 CBA        -2.1410   -1.5000    2.7780 c3        1 BMB     -0.164000
     31 CBB        -1.3620   -3.7020   -5.7290 c3        1 BMB     -0.033000
     32 NBD        -0.3350   -2.9760   -5.0270 n3        1 BMB     -0.305000
     33 NBE         1.6690   -0.3950   -0.5570 n3        1 BMB     -0.361000
     34 NBF        -1.7270    1.4750    3.7960 n         1 BMB     -0.368000
     35 CBH        -0.8520    0.7140    2.8980 c2        1 BMB      0.305000
     36 CBI        -0.6740   -0.1440   -0.0500 c1        1 BMB      0.300000
     37 CBJ        -1.2090   -3.4730   -7.2390 c1        1 BMB     -0.089000
     38 CBK        -1.9720    3.9480    3.8790 c1        1 BMB     -0.085500
     39 CBL        -1.4850    2.6100    6.0210 c1        1 BMB     -0.085500
     40 CBM         0.1120   -2.0170   -1.3630 c3        1 BMB     -0.115000
     41 CBO        -1.1260   -2.4760    0.9880 c3        1 BMB      0.030000
     42 CBP        -1.4440   -0.2880    1.9410 c3        1 BMB      0.005000
     43 CBQ         0.3600   -0.5630   -1.0840 c2        1 BMB      0.024000
     44 CBR        -1.2250    2.7040    4.4560 c3        1 BMB      0.101000
     45 NBS        -0.5430   -0.9490    1.2020 n3        1 BMB     -0.320000
     46 HN          5.4580    1.6550   -1.5970 hn        1 BMB      0.166000
     47 HA          4.3760   -0.4170   -0.5610 h4        1 BMB      0.126000
     48 HB          3.9680    2.3040    0.1370 hc        1 BMB      0.104000
     49 HBA         3.7640    1.0630    1.1080 hc        1 BMB      0.104000
     50 HAA         5.8930    2.0110    1.5600 hc        1 BMB      0.074667
     51 HAAA        6.0980    0.5430    0.9490 hc        1 BMB      0.074667
     52 HAAB        6.2860    1.8180    0.0340 hc        1 BMB      0.074667
     53 HAB         5.1850   -0.6340   -3.0160 h1        1 BMB      0.075333
     54 HABA        6.4860    0.2660   -2.8490 h1        1 BMB      0.075333
     55 HABB        6.0080   -0.6580   -1.6430 h1        1 BMB      0.075333
     56 HAF        -1.9490   -3.5820  -10.9740 ha        1 BMB      0.134000
     57 HAG        -2.7590    7.2300    2.2620 ha        1 BMB      0.134000
     58 HAH        -1.4080    4.1560    9.4980 ha        1 BMB      0.134000
     59 HAI        -1.1310   -5.5280   -9.8310 ha        1 BMB      0.134000
     60 HAJ        -2.2960   -1.5580   -9.7270 ha        1 BMB      0.134000
     61 HAK        -0.8990    5.9670    1.5480 ha        1 BMB      0.134000
     62 HAL        -4.1280    6.4260    3.9990 ha        1 BMB      0.134000
     63 HAM         0.5860    3.9240    8.2220 ha        1 BMB      0.134000
     64 HAN        -3.4380    3.3990    8.5420 ha        1 BMB      0.134000
     65 HAO        -0.6660   -5.4650   -7.4890 ha        1 BMB      0.129000
     66 HAP        -1.8340   -1.4850   -7.3900 ha        1 BMB      0.134000
     67 HAQ        -0.3900    3.8910    2.5600 ha        1 BMB      0.135500
     68 HAR        -3.6170    4.3710    4.9950 ha        1 BMB      0.134000
     69 HAS         0.5340    2.9570    6.0510 ha        1 BMB      0.134000
     70 HAT        -3.5130    2.4340    6.3840 ha        1 BMB      0.135500
     71 HAV        -1.4550   -2.3930   -3.4480 h1        1 BMB      0.065500
     72 HAVA       -0.8030   -3.8410   -3.2890 h1        1 BMB      0.065500
     73 HAW         0.8300   -1.5330   -3.2670 hc        1 BMB      0.101500
     74 HAWA        1.2950   -2.9890   -2.8200 hc        1 BMB      0.101500
     75 HAX         1.3060   -3.6180   -0.9350 hc        1 BMB      0.089500
     76 HAXA        1.5860   -2.3450   -0.0100 hc        1 BMB      0.089500
     77 HAY        -0.3940   -4.2940    0.3210 hc        1 BMB      0.095500
     78 HAYA        0.5490   -3.6300    1.4750 hc        1 BMB      0.095500
     79 HAZ        -1.0230   -3.2840    2.6770 hc        1 BMB      0.099500
     80 HAZA       -2.4830   -3.4340    1.9280 hc        1 BMB      0.099500
     81 HBAA       -1.8420   -1.4750    3.7290 hc        1 BMB      0.112500
     82 HBAB       -3.1340   -1.4220    2.7290 hc        1 BMB      0.112500
     83 HBB        -2.2360   -3.3880   -5.4400 h1        1 BMB      0.075000
     84 HBBA       -1.2780   -4.6550   -5.5340 h1        1 BMB      0.075000
     85 HNBD        0.4920   -3.3940   -5.1610 hn        1 BMB      0.162000
     86 HNBE        1.9090   -0.8220    0.2140 hn        1 BMB      0.243000
     87 HNBF       -2.5620    1.1600    3.9950 hn        1 BMB      0.252000
     88 HBM        -0.8420   -2.2080   -1.2580 hc        1 BMB      0.097000
     89 HBO        -1.7900   -2.4770    0.2820 h1        1 BMB      0.084000
     90 HBP        -2.0250    0.2950    1.3760 h1        1 BMB      0.120000
     91 HBQ         0.4080   -0.0030   -1.8590 h4        1 BMB      0.160000
     92 HBR        -0.2410    2.7970    4.2870 h1        1 BMB      0.135000
@<TRIPOS>BOND
     1    1    3 1   
     2    1   33 1   
     3    2    4 1   
     4    2    7 1   
     5    2   46 1   
     6    4    5 1   
     7    4   47 1   
     8    5    6 1   
     9    5   48 1   
    10    5   49 1   
    11    6   50 1   
    12    6   51 1   
    13    6   52 1   
    14    7   53 1   
    15    7   54 1   
    16    7   55 1   
    17    8   35 1   
    18    9   36 1   
    19   10   13 1   
    20   10   56 1   
    21   11   15 1   
    22   11   57 1   
    23   12   18 1   
    24   12   58 1   
    25   13   59 1   
    26   14   20 1   
    27   14   60 1   
    28   15   61 1   
    29   16   22 1   
    30   16   62 1   
    31   17   23 1   
    32   17   63 1   
    33   18   64 1   
    34   19   37 1   
    35   19   65 1   
    36   20   66 1   
    37   21   38 1   
    38   21   67 1   
    39   22   68 1   
    40   23   69 1   
    41   24   39 1   
    42   24   70 1   
    43   25   26 1   
    44   25   32 1   
    45   25   71 1   
    46   25   72 1   
    47   26   40 1   
    48   26   73 1   
    49   26   74 1   
    50   27   28 1   
    51   27   40 1   
    52   27   75 1   
    53   27   76 1   
    54   28   41 1   
    55   28   77 1   
    56   28   78 1   
    57   29   30 1   
    58   29   41 1   
    59   29   79 1   
    60   29   80 1   
    61   30   42 1   
    62   30   81 1   
    63   30   82 1   
    64   31   32 1   
    65   31   37 1   
    66   31   83 1   
    67   31   84 1   
    68   32   85 1   
    69   33   43 1   
    70   33   86 1   
    71   34   35 1   
    72   34   44 1   
    73   34   87 1   
    74   35   42 1   
    75   36   45 1   
    76   38   44 1   
    77   39   44 1   
    78   40   43 1   
    79   40   88 1   
    80   41   45 1   
    81   41   89 1   
    82   42   45 1   
    83   42   90 1   
    84   43   91 1   
    85   44   92 1   
@<TRIPOS>SUBSTRUCTURE
     1 BMB         1 TEMP              0 ****  ****    0 ROOT
