@<TRIPOS>MOLECULE
BMB
   92    96     1     0     0
SMALL
bcc


@<TRIPOS>ATOM
      1 C           0.9710    2.0530   -0.6470 c         1 BMB      0.618100
      2 N           0.7060    4.5430   -0.4790 n3        1 BMB     -0.803200
      3 O           1.6200    2.1670   -1.7060 o         1 BMB     -0.614100
      4 CA          0.2080    3.2560   -0.0310 c3        1 BMB      0.117500
      5 CB         -1.2810    3.0550   -0.3550 c3        1 BMB     -0.086400
      6 CAA        -2.1460    4.1050    0.2920 c3        1 BMB     -0.086100
      7 CAB         2.0390    4.8530   -0.0290 c3        1 BMB      0.144100
      8 CAF        11.1570   -0.1130   -1.7700 ca        1 BMB     -0.128000
      9 CAG        -6.1760    1.1040   -3.3940 ca        1 BMB     -0.123500
     10 CAH        -7.8570   -0.3040    3.3610 ca        1 BMB     -0.123500
     11 CAI        10.4400    0.6810   -0.8750 ca        1 BMB     -0.133500
     12 CAJ        10.6750   -1.3740   -2.1210 ca        1 BMB     -0.133500
     13 CAK        -5.1250    1.8220   -2.8230 ca        1 BMB     -0.128750
     14 CAL        -6.7390    0.0290   -2.7060 ca        1 BMB     -0.128750
     15 CAM        -7.1780    0.9010    3.1790 ca        1 BMB     -0.128750
     16 CAN        -7.4970   -1.4210    2.6090 ca        1 BMB     -0.128750
     17 CAO         9.2430    0.2160   -0.3300 ca        1 BMB     -0.117000
     18 CAP         9.4770   -1.8400   -1.5810 ca        1 BMB     -0.117000
     19 CAQ        -4.6370    1.4670   -1.5660 ca        1 BMB     -0.116500
     20 CAR        -6.2530   -0.3270   -1.4490 ca        1 BMB     -0.116500
     21 CAS        -6.1420    0.9880    2.2520 ca        1 BMB     -0.116500
     22 CAT        -6.4630   -1.3350    1.6760 ca        1 BMB     -0.116500
     23 CAW         3.9150   -0.3490   -0.1390 c3        1 BMB     -0.084400
     24 CAX         2.4520   -0.9360    1.7920 c3        1 BMB     -0.074400
     25 CAY         1.1190   -1.3920    2.3410 c3        1 BMB     -0.102400
     26 CAZ        -0.5360   -3.2980    2.4190 c3        1 BMB     -0.088400
     27 CBA        -1.8450   -3.3320    1.6390 c3        1 BMB     -0.083400
     28 CBB         7.4890   -1.5730   -0.0740 c3        1 BMB      0.210100
     29 NBD         6.3800   -0.6390   -0.1520 n3        1 BMB     -0.826200
     30 NBE         0.9390    0.8630    0.0590 n         1 BMB     -0.552900
     31 CBH        -2.4440   -1.0830    0.6630 c         1 BMB      0.648100
     32 CBI         0.2640   -1.3480   -0.7040 c         1 BMB      0.688500
     33 CBJ         8.7570   -1.0480   -0.6810 ca        1 BMB     -0.095300
     34 CBK        -5.2040    0.3940   -0.8710 ca        1 BMB     -0.098300
     35 CBL        -5.7790   -0.1300    1.4900 ca        1 BMB     -0.098300
     36 CBM         2.6030   -1.0060    0.2820 c3        1 BMB     -0.063700
     37 CBO         0.4910   -2.5340    1.5430 c3        1 BMB      0.116700
     38 CBP        -1.6410   -2.3920    0.4340 c3        1 BMB      0.043700
     39 CBQ         1.4420   -0.3670   -0.5020 c3        1 BMB      0.042700
     40 CBR        -4.6520    0.0240    0.4910 c3        1 BMB      0.189300
     41 NBS        -0.2110   -2.1510    0.3260 n         1 BMB     -0.472800
     42 HN          0.6530    4.5960   -1.4820 hn        1 BMB      0.373800
     43 HA          0.3340    3.2250    1.0930 h1        1 BMB      0.073700
     44 HB         -1.4310    3.0670   -1.4660 hc        1 BMB      0.058200
     45 HBA        -1.5870    2.0400    0.0200 hc        1 BMB      0.058200
     46 HAA        -3.2240    3.8600    0.1310 hc        1 BMB      0.036700
     47 HAAA       -1.9540    4.1510    1.3910 hc        1 BMB      0.036700
     48 HAAB       -1.9460    5.1150   -0.1400 hc        1 BMB      0.036700
     49 HAB         2.8110    4.1050   -0.3640 h1        1 BMB      0.036033
     50 HABA        2.3200    5.8610   -0.4320 h1        1 BMB      0.036033
     51 HABB        2.0510    4.8970    1.0910 h1        1 BMB      0.036033
     52 HAG        -6.5590    1.3850   -4.3860 ha        1 BMB      0.133000
     53 HAH        -8.6740   -0.3720    4.0940 ha        1 BMB      0.133000
     54 HAI        10.8170    1.6760   -0.5980 ha        1 BMB      0.131000
     55 HAJ        11.2390   -2.0020   -2.8260 ha        1 BMB      0.131000
     56 HAK        -4.6760    2.6660   -3.3660 ha        1 BMB      0.133500
     57 HAL        -7.5670   -0.5390   -3.1540 ha        1 BMB      0.133500
     58 HAM        -7.4590    1.7860    3.7700 ha        1 BMB      0.133500
     59 HAN        -8.0280   -2.3730    2.7500 ha        1 BMB      0.133500
     60 HAO         8.6780    0.8420    0.3780 ha        1 BMB      0.138000
     61 HAP         9.1010   -2.8340   -1.8640 ha        1 BMB      0.138000
     62 HAQ        -3.7970    2.0300   -1.1250 ha        1 BMB      0.133500
     63 HAR        -6.7050   -1.1680   -0.9030 ha        1 BMB      0.133500
     64 HAS        -5.6080    1.9410    2.1180 ha        1 BMB      0.133500
     65 HAT        -6.1960   -2.2290    1.0930 ha        1 BMB      0.133500
     66 HAW         4.0230    0.6420    0.3750 hc        1 BMB      0.060200
     67 HAWA        3.8980   -0.1470   -1.2440 hc        1 BMB      0.060200
     68 HAX         2.6390    0.1170    2.1380 hc        1 BMB      0.048700
     69 HAXA        3.2610   -1.5730    2.2430 hc        1 BMB      0.048700
     70 HAY         1.2840   -1.7540    3.3920 hc        1 BMB      0.057200
     71 HAYA        0.3960   -0.5360    2.4090 hc        1 BMB      0.057200
     72 HAZ        -0.6800   -2.7800    3.3990 hc        1 BMB      0.057700
     73 HAZA       -0.1640   -4.3310    2.6240 hc        1 BMB      0.057700
     74 HBAA       -2.0630   -4.3660    1.2720 hc        1 BMB      0.061700
     75 HBAB       -2.7030   -3.0010    2.2720 hc        1 BMB      0.061700
     76 HBB         7.6750   -1.7750    1.0220 h1        1 BMB      0.035700
     77 HBBA        7.2380   -2.5680   -0.5530 h1        1 BMB      0.035700
     78 HNBD        6.3420   -0.2040   -1.0550 hn        1 BMB      0.365800
     79 HNBE        0.2830    0.7770    0.8060 hn        1 BMB      0.330500
     80 HBM         2.6390   -2.0890   -0.0320 hc        1 BMB      0.054700
     81 HBO         1.3140   -3.2490    1.2380 h1        1 BMB      0.056700
     82 HBP        -1.9900   -2.8650   -0.5290 h1        1 BMB      0.092700
     83 HBQ         1.8160   -0.1430   -1.5540 h1        1 BMB      0.117700
     84 HBR        -3.9980    0.8850    0.8490 h1        1 BMB      0.098700
     85 OAD        -1.8990   -0.0380    1.0790 o         1 BMB     -0.638100
     86 OAE        -0.3110   -1.3780   -1.8080 o         1 BMB     -0.615500
     87 CAV         5.1080   -1.2450    0.1880 c3        1 BMB      0.164800
     88 NBF        -3.7970   -1.1460    0.4190 n         1 BMB     -0.550900
     89 HAF        12.1010    0.2550   -2.1980 ha        1 BMB      0.130000
     90 HAV         5.1310   -1.4520    1.2960 h1        1 BMB      0.026700
     91 HAVA        4.9580   -2.2400   -0.3300 h1        1 BMB      0.026700
     92 HNBF       -4.1710   -1.9470   -0.0300 hn        1 BMB      0.311500
@<TRIPOS>BOND
     1    1    3 2   
     2    1    4 1   
     3    1   30 1   
     4    2    4 1   
     5    2    7 1   
     6    2   42 1   
     7    4    5 1   
     8    4   43 1   
     9    5    6 1   
    10    5   44 1   
    11    5   45 1   
    12    6   46 1   
    13    6   47 1   
    14    6   48 1   
    15    7   49 1   
    16    7   50 1   
    17    7   51 1   
    18    8   11 ar  
    19    8   12 ar  
    20    8   89 1   
    21    9   13 ar  
    22    9   14 ar  
    23    9   52 1   
    24   10   15 ar  
    25   10   16 ar  
    26   10   53 1   
    27   11   17 ar  
    28   11   54 1   
    29   12   18 ar  
    30   12   55 1   
    31   13   19 ar  
    32   13   56 1   
    33   14   20 ar  
    34   14   57 1   
    35   15   21 ar  
    36   15   58 1   
    37   16   22 ar  
    38   16   59 1   
    39   17   33 ar  
    40   17   60 1   
    41   18   33 ar  
    42   18   61 1   
    43   19   34 ar  
    44   19   62 1   
    45   20   34 ar  
    46   20   63 1   
    47   21   35 ar  
    48   21   64 1   
    49   22   35 ar  
    50   22   65 1   
    51   23   36 1   
    52   23   66 1   
    53   23   67 1   
    54   23   87 1   
    55   24   25 1   
    56   24   36 1   
    57   24   68 1   
    58   24   69 1   
    59   25   37 1   
    60   25   70 1   
    61   25   71 1   
    62   26   27 1   
    63   26   37 1   
    64   26   72 1   
    65   26   73 1   
    66   27   38 1   
    67   27   74 1   
    68   27   75 1   
    69   28   29 1   
    70   28   33 1   
    71   28   76 1   
    72   28   77 1   
    73   29   78 1   
    74   29   87 1   
    75   30   39 1   
    76   30   79 1   
    77   31   38 1   
    78   31   85 2   
    79   31   88 1   
    80   32   39 1   
    81   32   41 1   
    82   32   86 2   
    83   34   40 1   
    84   35   40 1   
    85   36   39 1   
    86   36   80 1   
    87   37   41 1   
    88   37   81 1   
    89   38   41 1   
    90   38   82 1   
    91   39   83 1   
    92   40   84 1   
    93   40   88 1   
    94   87   90 1   
    95   87   91 1   
    96   88   92 1   
@<TRIPOS>SUBSTRUCTURE
     1 BMB         1 TEMP              0 ****  ****    0 ROOT
