@<TRIPOS>MOLECULE
BMB
   96    94     1     0     0
SMALL
bcc


@<TRIPOS>ATOM
      1 C         822.1830  460.1610 -203.0320 c2        1 BMB      0.290000
      2 N         820.0730  459.6160 -201.8160 n4        1 BMB     -0.028000
      3 O         821.8130  461.3500 -202.9370 o         1 BMB     -0.360000
      4 CA        821.1920  459.0320 -202.6370 c3        1 BMB     -0.113000
      5 CB        820.6700  458.3570 -203.9100 c3        1 BMB     -0.188000
      6 CAA       819.7550  457.1960 -203.6250 c3        1 BMB     -0.241000
      7 CAB       820.4560  459.8320 -200.4040 c3        1 BMB     -0.197000
      8 CAF      -139.2500 -454.3550-1185.2670 c1        1 BMB      0.001000
      9 CAG       -19.4510  249.8800  877.5710 cu        1 BMB      0.082000
     10 CAH       -22.0940  249.2900  884.8790 ca        1 BMB     -0.096000
     11 CAI      -139.7310 -452.9840-1185.3210 c3        1 BMB     -0.254000
     12 CAJ      -139.4360 -455.1860-1186.4190 c2        1 BMB     -0.172000
     13 CAK       -19.8760  249.7270  878.8810 cu        1 BMB      0.033000
     14 CAL       -20.3610  250.8040  878.0530 cu        1 BMB      0.033000
     15 CAM       -22.6980  248.7240  883.7540 ca        1 BMB     -0.122000
     16 CAN       -21.4990  250.5480  884.7930 ca        1 BMB     -0.122000
     17 CAO      -140.3880 -452.5150-1186.5560 c2        1 BMB      0.043000
     18 CAP      -140.0440 -454.7420-1187.5490 c2        1 BMB     -0.047000
     19 CAQ       -20.4540  249.7600  880.2240 c3        1 BMB     -0.036000
     20 CAR       -21.3120  251.6610  878.7620 c3        1 BMB     -0.036000
     21 CAS       -22.7050  249.4120  882.5420 ca        1 BMB     -0.108500
     22 CAT       -21.5060  251.2460  883.5850 ca        1 BMB     -0.108500
     23 CAW       -59.7570   24.9850  -76.7990 c2        1 BMB     -0.218000
     24 CAX      -578.4110 -328.1880  -12.3760 c3        1 BMB     -0.239000
     25 CAY      -576.2500 -322.6530  -11.1640 c3        1 BMB     -0.247500
     26 CAZ      -578.0680 -322.3080   -9.4830 c3        1 BMB     -0.247500
     27 CBA      -579.7310 -320.9910  -11.9590 c1        1 BMB      0.411000
     28 CBB      -141.1520 -452.9630-1188.8120 c1        1 BMB      0.352000
     29 NBD      -141.6620 -452.6440-1189.8050 n2        1 BMB     -0.118000
     30 NBE       823.4180  459.8000 -203.4600 n         1 BMB     -0.384000
     31 CBH      -578.1690 -321.6300  -13.6780 c2        1 BMB      0.262000
     32 CBI      -578.3650 -324.3930  -12.7010 c2        1 BMB      0.316000
     33 CBJ      -140.5300 -453.3730-1187.6150 c2        1 BMB     -0.156000
     34 CBK       -21.3590  250.9810  880.1240 c2        1 BMB     -0.405000
     35 CBL       -22.1030  250.6730  882.4570 ca        1 BMB     -0.122000
     36 CBM      -578.2620 -326.8150  -12.8760 c2        1 BMB      0.059000
     37 CBO      -577.5850 -323.1580  -10.6490 c3        1 BMB     -0.049000
     38 CBP      -578.9130 -321.9680  -12.3820 c2        1 BMB     -0.542000
     39 CBQ      -578.5290 -325.7210  -12.1290 c2        1 BMB     -0.319000
     40 CBR       -22.1200  251.4170  881.1730 c2        1 BMB      0.225000
     41 NBS      -578.6590 -323.2410  -11.7340 n4        1 BMB      0.018000
     42 HN        819.8210  460.5300 -202.2360 hn        1 BMB      0.265000
     43 HA        821.7130  458.2660 -201.9880 hx        1 BMB      0.159000
     44 HB        820.1550  459.1110 -204.5650 hc        1 BMB      0.131500
     45 HBA       821.5680  457.9880 -204.4790 hc        1 BMB      0.131500
     46 HAA       818.7400  457.5320 -203.2990 hc        1 BMB      0.100000
     47 HAAA      820.1820  456.5220 -202.8420 hc        1 BMB      0.100000
     48 HAAB      819.6180  456.5940 -204.5590 hc        1 BMB      0.100000
     49 HAB       821.3280  460.5420 -200.3650 hx        1 BMB      0.151333
     50 HABA      820.7370  458.8560 -199.9280 hx        1 BMB      0.151333
     51 HABB      819.5850  460.2830 -199.8550 hx        1 BMB      0.151333
     52 HAH       -22.0920  248.7440  885.8350 ha        1 BMB      0.155000
     53 HAI      -140.4350 -452.8420-1184.4360 hc        1 BMB      0.217000
     54 HAJ      -139.0600 -456.2240-1186.3510 ha        1 BMB      0.192000
     55 HAK       -21.0290  248.8230  880.4610 hc        1 BMB      0.164000
     56 HAL       -20.9420  252.7220  878.8250 hc        1 BMB      0.164000
     57 HAM       -23.1780  247.7350  883.8260 ha        1 BMB      0.153000
     58 HAN       -21.0270  250.9970  885.6810 ha        1 BMB      0.153000
     59 HAO      -140.7500 -451.4720-1186.5870 ha        1 BMB      0.162000
     60 HAP      -140.1860 -455.3870-1188.4320 ha        1 BMB      0.159000
     61 HAQ       -19.6630  249.8800  881.0160 hc        1 BMB      0.164000
     62 HAR       -22.3160  251.6740  878.2550 hc        1 BMB      0.164000
     63 HAS       -23.1940  248.9710  881.6610 ha        1 BMB      0.141500
     64 HAT       -21.0430  252.2430  883.5210 ha        1 BMB      0.141500
     65 HAW       -59.8410   24.5470  -77.8030 ha        1 BMB      0.109000
     66 HAWA     -577.9110 -326.7120  -13.9230 ha        1 BMB      0.164000
     67 HAX      -575.9280 -323.1990  -12.0850 hc        1 BMB      0.119500
     68 HAXA     -575.4830 -322.8140  -10.3650 hc        1 BMB      0.119500
     69 HAY      -577.4260 -328.7230  -12.4450 hc        1 BMB      0.127667
     70 HAYA     -578.7660 -328.2290  -11.3170 hc        1 BMB      0.127667
     71 HAZ      -577.2430 -322.2480   -8.7280 hc        1 BMB      0.119500
     72 HAZA     -576.2930 -321.5620  -11.4040 hc        1 BMB      0.119500
     73 HBAA     -578.9620 -322.7590   -8.9860 hc        1 BMB      0.119500
     74 HBAB     -578.3140 -321.2660   -9.8080 hc        1 BMB      0.119500
     75 HBB       540.7560 -694.1400 -562.2700 ha        1 BMB      0.000000
     76 HBBA      541.4000 -694.3070 -562.3950 ha        1 BMB      0.000000
     77 HNBD      -60.4380   26.4250  -75.3850 ha        1 BMB      0.109000
     78 HNBE      824.0560  460.5100 -203.7440 hn        1 BMB      0.258000
     79 HBM      -579.1430 -328.7450  -13.0210 hc        1 BMB      0.127667
     80 HBO      -577.4620 -324.2310  -10.2990 hx        1 BMB      0.137000
     81 HBP      -579.5330 -323.5020  -11.2510 hn        1 BMB      0.242000
     82 HBQ       823.6830  458.8520 -203.5580 hn        1 BMB      0.258000
     83 HBR       -22.9920  253.0500  880.2800 hn        1 BMB      0.241500
     84 OAE      -578.0520 -324.0950  -13.8470 o         1 BMB     -0.199000
     85 CAV       -60.5220   25.9880  -76.3890 c2        1 BMB     -0.218000
     86 NBF       -22.9000  252.5360  881.1200 n3        1 BMB     -0.363000
     87 HAF      -138.8470 -452.3090-1185.0780 hc        1 BMB      0.217000
     88 HAV      -142.0940 -452.3780-1190.6510 hn        1 BMB      0.402000
     89 HAVA      -61.2890   26.4480  -77.0260 ha        1 BMB      0.109000
     90 HNBF      -23.4650  252.7790  881.8960 hn        1 BMB      0.241500
     91 H2        819.2630  458.9870 -201.8720 hn        1 BMB      0.265000
     92 HBD2      -58.9890   24.5250  -76.1630 ha        1 BMB      0.109000
     93 HBE2     -578.8800 -325.8140  -11.0880 ha        1 BMB      0.163000
     94 HBF2     -578.8420 -321.4200  -14.5330 h4        1 BMB      0.168000
     95 OAD      -576.9510 -321.6110  -13.7100 o         1 BMB     -0.198000
     96 HAG       -18.8380  249.5260  876.7500 ha        1 BMB      0.263000
@<TRIPOS>BOND
     1    1    3 1   
     2    1    4 1   
     3    1   30 1   
     4    2    4 1   
     5    2    7 1   
     6    2   42 1   
     7    2   91 1   
     8    4    5 1   
     9    4   43 1   
    10    5    6 1   
    11    5   44 1   
    12    5   45 1   
    13    6   46 1   
    14    6   47 1   
    15    6   48 1   
    16    7   49 1   
    17    7   50 1   
    18    7   51 1   
    19    8   11 1   
    20    8   12 1   
    21    9   13 1   
    22    9   14 1   
    23    9   96 1   
    24   10   15 1   
    25   10   16 1   
    26   10   52 1   
    27   11   17 1   
    28   11   53 1   
    29   11   87 1   
    30   12   18 1   
    31   12   54 1   
    32   13   14 1   
    33   13   19 1   
    34   14   20 1   
    35   15   21 1   
    36   15   57 1   
    37   16   22 1   
    38   16   58 1   
    39   17   33 1   
    40   17   59 1   
    41   18   33 1   
    42   18   60 1   
    43   19   34 1   
    44   19   55 1   
    45   19   61 1   
    46   20   34 1   
    47   20   56 1   
    48   20   62 1   
    49   21   35 1   
    50   21   63 1   
    51   22   35 1   
    52   22   64 1   
    53   23   65 1   
    54   23   85 1   
    55   23   92 1   
    56   24   36 1   
    57   24   69 1   
    58   24   70 1   
    59   24   79 1   
    60   25   37 1   
    61   25   67 1   
    62   25   68 1   
    63   25   72 1   
    64   26   37 1   
    65   26   71 1   
    66   26   73 1   
    67   26   74 1   
    68   27   38 1   
    69   28   29 1   
    70   28   33 1   
    71   29   88 1   
    72   30   78 1   
    73   30   82 1   
    74   31   38 1   
    75   31   94 1   
    76   31   95 1   
    77   32   39 1   
    78   32   41 1   
    79   32   84 1   
    80   34   40 1   
    81   35   40 1   
    82   36   39 1   
    83   36   66 1   
    84   37   41 1   
    85   37   80 1   
    86   38   41 1   
    87   39   93 1   
    88   40   86 1   
    89   41   81 1   
    90   75   76 1   
    91   77   85 1   
    92   83   86 1   
    93   85   89 1   
    94   86   90 1   
@<TRIPOS>SUBSTRUCTURE
     1 BMB         1 TEMP              0 ****  ****    0 ROOT
