@<TRIPOS>MOLECULE
BMC
   27    29     1     0     0
SMALL
bcc


@<TRIPOS>ATOM
      1 C1         -0.0370    0.2140   -0.0420 ca        1 BMC     -0.101000
      2 C2          1.3700    0.0410   -0.0420 ca        1 BMC     -0.058500
      3 C3          2.0700   -0.1190    1.1640 ca        1 BMC     -0.136000
      4 C4          1.4300   -0.1120    2.4140 ca        1 BMC     -0.113000
      5 C5          0.0610    0.0580    2.4010 ca        1 BMC      0.024100
      6 C6         -0.6560    0.2170    1.1900 ca        1 BMC      0.041100
      7 O7         -2.0150    0.3680    1.4790 os        1 BMC     -0.343900
      8 C8         -2.1440    0.3010    2.9140 c3        1 BMC      0.323200
      9 O9         -0.8290    0.1050    3.4760 os        1 BMC     -0.346900
     10 C10         2.1020    0.0310   -1.2930 cc        1 BMC      0.296800
     11 C11         3.5330    0.1610   -1.4440 cc        1 BMC     -0.284300
     12 C12         3.7740    0.0910   -2.8290 cd        1 BMC     -0.124900
     13 N13         2.5120   -0.0730   -3.4300 na        1 BMC      0.123400
     14 N14         1.5220   -0.1090   -2.5330 nd        1 BMC     -0.552800
     15 C15         5.1250    0.1770   -3.5170 c         1 BMC      0.938200
     16 O16         5.1820    0.1210   -4.7770 o         1 BMC     -0.814800
     17 O17         6.1230    0.3020   -2.7600 o         1 BMC     -0.814800
     18 C18         2.2670   -0.1990   -4.8470 c3        1 BMC      0.018600
     19 H1         -0.6010    0.3390   -0.9750 ha        1 BMC      0.168000
     20 H3          3.1620   -0.2570    1.1320 ha        1 BMC      0.151000
     21 H4          1.9920   -0.2360    3.3460 ha        1 BMC      0.142000
     22 H8         -2.7790   -0.5810    3.1750 h2        1 BMC      0.055700
     23 H8A        -2.5490    1.2750    3.2830 h2        1 BMC      0.055700
     24 H11         4.2840    0.2950   -0.6750 ha        1 BMC      0.166000
     25 H18         1.7830   -1.1880   -5.0660 h1        1 BMC      0.062367
     26 H18A        3.2550   -0.1280   -5.3870 h1        1 BMC      0.062367
     27 H18B        1.5830    0.6210   -5.1930 h1        1 BMC      0.062367
@<TRIPOS>BOND
     1    1    2 ar  
     2    1    6 ar  
     3    1   19 1   
     4    2    3 ar  
     5    2   10 1   
     6    3    4 ar  
     7    3   20 1   
     8    4    5 ar  
     9    4   21 1   
    10    5    6 ar  
    11    5    9 1   
    12    6    7 1   
    13    7    8 1   
    14    8    9 1   
    15    8   22 1   
    16    8   23 1   
    17   10   11 1   
    18   10   14 2   
    19   11   12 2   
    20   11   24 1   
    21   12   13 1   
    22   12   15 1   
    23   13   14 1   
    24   13   18 1   
    25   15   16 1   
    26   15   17 1   
    27   18   25 1   
    28   18   26 1   
    29   18   27 1   
@<TRIPOS>SUBSTRUCTURE
     1 BMC         1 TEMP              0 ****  ****    0 ROOT
