@<TRIPOS>MOLECULE
BMC
   27    29     1     0     0
SMALL
bcc


@<TRIPOS>ATOM
      1 C1         -0.0270    0.3040   -0.0440 ca        1 BMC     -0.101000
      2 C2          1.3640    0.0350   -0.0430 ca        1 BMC     -0.058500
      3 C3          2.0450   -0.2040    1.1610 ca        1 BMC     -0.136000
      4 C4          1.3990   -0.1860    2.4080 ca        1 BMC     -0.113000
      5 C5          0.0450    0.0770    2.3940 ca        1 BMC      0.024100
      6 C6         -0.6520    0.3170    1.1850 ca        1 BMC      0.041100
      7 O7         -1.9990    0.5530    1.4710 os        1 BMC     -0.343900
      8 C8         -2.1400    0.4570    2.9040 c3        1 BMC      0.323200
      9 O9         -0.8460    0.1570    3.4660 os        1 BMC     -0.346900
     10 C10         2.1020    0.0080   -1.2910 cc        1 BMC      0.296800
     11 C11         3.5390    0.0460   -1.4330 cc        1 BMC     -0.284300
     12 C12         3.7830   -0.0040   -2.8180 cd        1 BMC     -0.124900
     13 N13         2.5170   -0.0680   -3.4280 na        1 BMC      0.123400
     14 N14         1.5210   -0.0610   -2.5370 nd        1 BMC     -0.552800
     15 C15         5.1410    0.0090   -3.4980 c         1 BMC      0.938200
     16 O16         5.2010   -0.0180   -4.7590 o         1 BMC     -0.814800
     17 O17         6.1410    0.0460   -2.7340 o         1 BMC     -0.814800
     18 C18         2.2720   -0.1410   -4.8500 c3        1 BMC      0.018600
     19 H1         -0.5750    0.4910   -0.9760 ha        1 BMC      0.168000
     20 H3          3.1250   -0.4150    1.1300 ha        1 BMC      0.151000
     21 H4          1.9460   -0.3740    3.3390 ha        1 BMC      0.142000
     22 H8         -2.8360   -0.3860    3.1390 h2        1 BMC      0.055700
     23 H8A        -2.4810    1.4460    3.2970 h2        1 BMC      0.055700
     24 H11         4.2930    0.1090   -0.6580 ha        1 BMC      0.166000
     25 H18         1.6470    0.7310   -5.1770 h1        1 BMC      0.062367
     26 H18A        1.7240   -1.0890   -5.0960 h1        1 BMC      0.062367
     27 H18B        3.2650   -0.1220   -5.3830 h1        1 BMC      0.062367
@<TRIPOS>BOND
     1    1    2 ar  
     2    1    6 ar  
     3    1   19 1   
     4    2    3 ar  
     5    2   10 1   
     6    3    4 ar  
     7    3   20 1   
     8    4    5 ar  
     9    4   21 1   
    10    5    6 ar  
    11    5    9 1   
    12    6    7 1   
    13    7    8 1   
    14    8    9 1   
    15    8   22 1   
    16    8   23 1   
    17   10   11 1   
    18   10   14 2   
    19   11   12 2   
    20   11   24 1   
    21   12   13 1   
    22   12   15 1   
    23   13   14 1   
    24   13   18 1   
    25   15   16 1   
    26   15   17 1   
    27   18   25 1   
    28   18   26 1   
    29   18   27 1   
@<TRIPOS>SUBSTRUCTURE
     1 BMC         1 TEMP              0 ****  ****    0 ROOT
