@<TRIPOS>MOLECULE
BMC
   27    29     1     0     0
SMALL
bcc


@<TRIPOS>ATOM
      1 C1          1.7090    0.8980   -0.1790 ca        1 BMC     -0.101000
      2 C2          0.7890   -0.1670   -0.0130 ca        1 BMC     -0.058500
      3 C3          1.2440   -1.4850    0.1460 ca        1 BMC     -0.136000
      4 C4          2.6070   -1.8170    0.1460 ca        1 BMC     -0.113000
      5 C5          3.4930   -0.7720   -0.0180 ca        1 BMC      0.024100
      6 C6          3.0460    0.5620   -0.1760 ca        1 BMC      0.041100
      7 O7          4.1530    1.4020   -0.3200 os        1 BMC     -0.343900
      8 C8          5.3230    0.5610   -0.2480 c3        1 BMC      0.323200
      9 O9          4.8890   -0.8010   -0.0580 os        1 BMC     -0.346900
     10 C10        -0.6370    0.0970   -0.0090 cc        1 BMC      0.296800
     11 C11        -1.6860   -0.8870   -0.1490 cc        1 BMC     -0.284300
     12 C12        -2.8920   -0.1660   -0.0840 cd        1 BMC     -0.124900
     13 N13        -2.5230    1.1820    0.0870 na        1 BMC      0.123400
     14 N14        -1.1970    1.3450    0.1320 nd        1 BMC     -0.552800
     15 C15        -4.2950   -0.7380   -0.1790 c         1 BMC      0.938200
     16 O16        -5.2860    0.0420   -0.1270 o         1 BMC     -0.814800
     17 O17        -4.3740   -1.9880   -0.3090 o         1 BMC     -0.814800
     18 C18        -3.4370    2.2930    0.2130 c3        1 BMC      0.018600
     19 H1          1.3710    1.9350   -0.3030 ha        1 BMC      0.168000
     20 H3          0.5050   -2.2920    0.2790 ha        1 BMC      0.151000
     21 H4          2.9450   -2.8530    0.2700 ha        1 BMC      0.142000
     22 H8          5.8720    0.6290   -1.2190 h2        1 BMC      0.055700
     23 H8A         5.9320    0.8700    0.6370 h2        1 BMC      0.055700
     24 H11        -1.5940   -1.9580   -0.2870 ha        1 BMC      0.166000
     25 H18        -3.2920    2.7980    1.2050 h1        1 BMC      0.062367
     26 H18A       -3.2470    3.0400   -0.6020 h1        1 BMC      0.062367
     27 H18B       -4.4900    1.8980    0.1340 h1        1 BMC      0.062367
@<TRIPOS>BOND
     1    1    2 ar  
     2    1    6 ar  
     3    1   19 1   
     4    2    3 ar  
     5    2   10 1   
     6    3    4 ar  
     7    3   20 1   
     8    4    5 ar  
     9    4   21 1   
    10    5    6 ar  
    11    5    9 1   
    12    6    7 1   
    13    7    8 1   
    14    8    9 1   
    15    8   22 1   
    16    8   23 1   
    17   10   11 1   
    18   10   14 2   
    19   11   12 2   
    20   11   24 1   
    21   12   13 1   
    22   12   15 1   
    23   13   14 1   
    24   13   18 1   
    25   15   16 1   
    26   15   17 1   
    27   18   25 1   
    28   18   26 1   
    29   18   27 1   
@<TRIPOS>SUBSTRUCTURE
     1 BMC         1 TEMP              0 ****  ****    0 ROOT
