@<TRIPOS>MOLECULE
BMC
   27    22     1     0     0
SMALL
bcc


@<TRIPOS>ATOM
      1 C1         -1.5140   -0.0080    0.6360 c1        1 BMC     -0.107000
      2 C2         -0.1250   -0.0140    0.6400 c1        1 BMC      0.049000
      3 C3          0.5760   -0.0120    1.8610 c1        1 BMC     -0.136000
      4 C4         -0.1150   -0.0050    3.0560 c1        1 BMC     -0.107000
      5 C5         -1.5320    0.0010    3.0490 c1        1 BMC     -0.012500
      6 C6         -2.2180   -0.0000    1.8420 c1        1 BMC     -0.012500
      7 O7         -3.6310   -0.0050    2.1290 os        1 BMC     -0.228500
      8 C8         -3.7880   -0.0030    3.5170 c3        1 BMC      0.101000
      9 O9         -2.4930   -0.0120    4.1010 os        1 BMC     -0.228500
     10 C10         0.5670    0.0230   -0.5570 c1        1 BMC     -0.109500
     11 C11         1.0480   -1.0650   -1.2400 c1        1 BMC     -0.219000
     12 C12         1.6970   -0.6100   -2.3520 c1        1 BMC     -0.109500
     13 N13         1.6200    0.7420   -2.3590 n2        1 BMC     -0.105000
     14 N14         0.9170    1.1360   -1.2440 n2        1 BMC     -0.105000
     15 C15         2.3390   -1.4890   -3.4540 c1        1 BMC      0.387000
     16 O16         3.5040   -1.7570   -3.4060 o         1 BMC     -0.549500
     17 O17         1.6540   -1.9470   -4.3270 o         1 BMC     -0.549500
     18 C18         2.1910    1.6100   -3.3490 c2        1 BMC     -0.080000
     19 H1         -1.9840    0.0750   -0.1840 ha        1 BMC      0.155000
     20 H3          1.4930   -0.0170    1.8610 ha        1 BMC      0.151000
     21 H4          0.4030   -0.0050    3.9630 ha        1 BMC      0.155000
     22 H8         -4.2420    0.7890    3.7770 h2        1 BMC      0.095000
     23 H8A        -4.2890   -0.8390    3.7960 h2        1 BMC      0.095000
     24 H11         0.9430   -2.0020   -0.9780 DU        1 BMC      0.166000
     25 H18         3.2090    1.5540   -3.3030 ha        1 BMC      0.101667
     26 H18A        1.8670    1.3160   -4.2970 ha        1 BMC      0.101667
     27 H18B        1.9020    2.5450   -3.1750 ha        1 BMC      0.101667
@<TRIPOS>BOND
     1    1    6 1   
     2    1   19 1   
     3    2    3 1   
     4    3   20 1   
     5    4    5 1   
     6    4   21 1   
     7    5    9 1   
     8    6    7 1   
     9    7    8 1   
    10    8    9 1   
    11    8   22 1   
    12    8   23 1   
    13   10   11 1   
    14   10   14 1   
    15   11   12 1   
    16   12   13 1   
    17   13   14 1   
    18   15   16 1   
    19   15   17 1   
    20   18   25 1   
    21   18   26 1   
    22   18   27 1   
@<TRIPOS>SUBSTRUCTURE
     1 BMC         1 TEMP              0 ****  ****    0 ROOT
