@<TRIPOS>MOLECULE
BMD
   16    15     1     0     0
SMALL
bcc


@<TRIPOS>ATOM
      1 C3         -0.0270   -0.0020    0.0240 c3        1 BMD     -0.104100
      2 C2          1.4790    0.0050   -0.0350 c3        1 BMD     -0.080400
      3 C1          2.0590    0.0020    1.3710 c3        1 BMD     -0.151400
      4 CA          3.5550    0.0120    1.3170 c         1 BMD      0.550100
      5 OA          4.3190    0.0350    0.3720 o         1 BMD     -0.376100
      6 NA          4.2520   -0.0100    2.6780 n4        1 BMD     -0.775400
      7 H33        -0.4410   -0.0000   -1.0150 hc        1 BMD      0.058033
      8 H32        -0.4120    0.9020    0.5560 hc        1 BMD      0.058033
      9 H31        -0.4040   -0.9130    0.5500 hc        1 BMD      0.058033
     10 H22         1.8460   -0.8960   -0.5950 hc        1 BMD      0.074200
     11 H21         1.8390    0.9120   -0.5890 hc        1 BMD      0.074200
     12 H12         1.6990    0.9090    1.9310 hc        1 BMD      0.105200
     13 H11         1.7080   -0.9130    1.9240 hc        1 BMD      0.105200
     14 HN1         3.9730    0.8090    3.2260 hn        1 BMD      0.467800
     15 HN2         3.9890   -0.8550    3.1920 hn        1 BMD      0.467800
     16 HA3         5.2720    0.0020    2.5540 hn        1 BMD      0.467800
@<TRIPOS>BOND
     1    1    2 1   
     2    1    7 1   
     3    1    8 1   
     4    1    9 1   
     5    2    3 1   
     6    2   10 1   
     7    2   11 1   
     8    3    4 1   
     9    3   12 1   
    10    3   13 1   
    11    4    5 2   
    12    4    6 1   
    13    6   14 1   
    14    6   15 1   
    15    6   16 1   
@<TRIPOS>SUBSTRUCTURE
     1 BMD         1 TEMP              0 ****  ****    0 ROOT
