@<TRIPOS>MOLECULE
BMD
   15    14     1     0     0
SMALL
bcc


@<TRIPOS>ATOM
      1 C3         -0.2530    0.0000    2.7660 c3        1 BMD     -0.095100
      2 C2          0.4090    0.0000    1.4130 c3        1 BMD     -0.075400
      3 C1         -0.6170    0.0000    0.3010 c3        1 BMD     -0.149400
      4 CA          0.0520   -0.0000   -1.0590 c         1 BMD      0.655100
      5 OA          1.2910   -0.0000   -1.2050 o         1 BMD     -0.612100
      6 NA         -0.7610   -0.0000   -2.1690 n         1 BMD     -0.684000
      7 H33        -0.8940   -0.9050    2.8940 hc        1 BMD      0.033700
      8 H32         0.5210    0.0000    3.5720 hc        1 BMD      0.033700
      9 H31        -0.8940    0.9050    2.8940 hc        1 BMD      0.033700
     10 H22         1.0710    0.9000    1.3060 hc        1 BMD      0.059700
     11 H21         1.0710   -0.9000    1.3060 hc        1 BMD      0.059700
     12 H12        -1.2730   -0.9060    0.3890 hc        1 BMD      0.060700
     13 H11        -1.2730    0.9070    0.3890 hc        1 BMD      0.060700
     14 HN1        -0.3580   -0.0000   -3.0720 hn        1 BMD      0.309500
     15 HN2        -1.7420   -0.0000   -2.0830 hn        1 BMD      0.309500
@<TRIPOS>BOND
     1    1    2 1   
     2    1    7 1   
     3    1    8 1   
     4    1    9 1   
     5    2    3 1   
     6    2   10 1   
     7    2   11 1   
     8    3    4 1   
     9    3   12 1   
    10    3   13 1   
    11    4    5 2   
    12    4    6 1   
    13    6   14 1   
    14    6   15 1   
@<TRIPOS>SUBSTRUCTURE
     1 BMD         1 TEMP              0 ****  ****    0 ROOT
