@<TRIPOS>MOLECULE
BMD
   15    14     1     0     0
SMALL
bcc


@<TRIPOS>ATOM
      1 C3         -2.0380   -0.0130   -0.9160 c3        1 BMD     -0.095100
      2 C2         -0.5250   -0.0110   -0.9470 c3        1 BMD     -0.076400
      3 C1          0.0070    0.2840    0.4380 c3        1 BMD     -0.155400
      4 CA          1.5170    0.1840    0.4300 c         1 BMD      0.656100
      5 OA          2.1490    0.6170   -0.5130 o         1 BMD     -0.614100
      6 NA          2.1940   -0.4160    1.5230 n         1 BMD     -0.679000
      7 H33        -2.3580    0.8220   -0.5150 hc        1 BMD      0.037367
      8 H32        -2.3530   -0.7730   -0.3840 hc        1 BMD      0.037367
      9 H31        -2.3830   -0.0890   -1.8300 hc        1 BMD      0.037367
     10 H22        -0.2040   -0.8870   -1.2410 hc        1 BMD      0.044200
     11 H21        -0.2130    0.6760   -1.5700 hc        1 BMD      0.044200
     12 H12        -0.3590   -0.3640    1.0720 hc        1 BMD      0.072200
     13 H11        -0.2590    1.1870    0.7040 hc        1 BMD      0.072200
     14 HN1         3.1060   -0.4760    1.5180 hn        1 BMD      0.309500
     15 HN2         1.7180   -0.7420    2.2320 hn        1 BMD      0.309500
@<TRIPOS>BOND
     1    1    2 1   
     2    1    7 1   
     3    1    8 1   
     4    1    9 1   
     5    2    3 1   
     6    2   10 1   
     7    2   11 1   
     8    3    4 1   
     9    3   12 1   
    10    3   13 1   
    11    4    5 2   
    12    4    6 1   
    13    6   14 1   
    14    6   15 1   
@<TRIPOS>SUBSTRUCTURE
     1 BMD         1 TEMP              0 ****  ****    0 ROOT
