@<TRIPOS>MOLECULE
BMD
   16    15     1     0     0
SMALL
bcc


@<TRIPOS>ATOM
      1 C3         -0.0260    0.0000    0.0210 c3        1 BMD     -0.104100
      2 C2          1.4800    0.0000   -0.0360 c3        1 BMD     -0.080400
      3 C1          2.0580    0.0000    1.3700 c3        1 BMD     -0.151400
      4 CA          3.5540    0.0000    1.3190 c         1 BMD      0.550100
      5 OA          4.3200    0.0000    0.3740 o         1 BMD     -0.376100
      6 NA          4.2490    0.0000    2.6810 n4        1 BMD     -0.775400
      7 H33        -0.4070    0.9070    0.5490 hc        1 BMD      0.058033
      8 H32        -0.4070   -0.9070    0.5490 hc        1 BMD      0.058033
      9 H31        -0.4380   -0.0000   -1.0180 hc        1 BMD      0.058033
     10 H22         1.8450   -0.9040   -0.5930 hc        1 BMD      0.073700
     11 H21         1.8450    0.9040   -0.5930 hc        1 BMD      0.073700
     12 H12         1.7030    0.9110    1.9270 hc        1 BMD      0.105700
     13 H11         1.7030   -0.9110    1.9270 hc        1 BMD      0.105700
     14 HN1         3.9780   -0.8320    3.2120 hn        1 BMD      0.467800
     15 HN2         3.9780    0.8330    3.2120 hn        1 BMD      0.467800
     16 HA3         5.2700    0.0000    2.5580 hn        1 BMD      0.467800
@<TRIPOS>BOND
     1    1    2 1   
     2    1    7 1   
     3    1    8 1   
     4    1    9 1   
     5    2    3 1   
     6    2   10 1   
     7    2   11 1   
     8    3    4 1   
     9    3   12 1   
    10    3   13 1   
    11    4    5 2   
    12    4    6 1   
    13    6   14 1   
    14    6   15 1   
    15    6   16 1   
@<TRIPOS>SUBSTRUCTURE
     1 BMD         1 TEMP              0 ****  ****    0 ROOT
