@<TRIPOS>MOLECULE
BME
   10     9     1     0     0
SMALL
bcc


@<TRIPOS>ATOM
      1 C1          0.0180   -0.0000   -0.0280 c3        1 BME      0.141400
      2 C2          1.5320    0.0000   -0.0300 c3        1 BME      0.000700
      3 O1         -0.3860    0.0010    1.3350 oh        1 BME     -0.601800
      4 S2          2.0470    0.0000   -1.7240 sh        1 BME     -0.376900
      5 H11        -0.3800   -0.9160   -0.5430 h1        1 BME      0.038700
      6 H12        -0.3800    0.9150   -0.5440 h1        1 BME      0.038700
      7 H21         1.9140   -0.9020    0.5050 h1        1 BME      0.074700
      8 H22         1.9130    0.9020    0.5050 h1        1 BME      0.074700
      9 HO1        -1.3500    0.0010    1.3350 ho        1 BME      0.404000
     10 HS2         3.3550   -0.0000   -1.5340 hs        1 BME      0.207800
@<TRIPOS>BOND
     1    1    2 1   
     2    1    3 1   
     3    1    5 1   
     4    1    6 1   
     5    2    4 1   
     6    2    7 1   
     7    2    8 1   
     8    3    9 1   
     9    4   10 1   
@<TRIPOS>SUBSTRUCTURE
     1 BME         1 TEMP              0 ****  ****    0 ROOT
