@<TRIPOS>MOLECULE
BME
   10     9     1     0     0
SMALL
bcc


@<TRIPOS>ATOM
      1 C1          0.4830   -0.0000    1.0280 c3        1 BME      0.141400
      2 C2         -0.6230   -0.0000   -0.0050 c3        1 BME      0.000700
      3 O1         -0.1490   -0.0000    2.3010 oh        1 BME     -0.601800
      4 S2          0.1530    0.0000   -1.5960 sh        1 BME     -0.376900
      5 H11         1.1260    0.9160    0.9210 h1        1 BME      0.038700
      6 H12         1.1260   -0.9160    0.9210 h1        1 BME      0.038700
      7 H21        -1.2680   -0.9020    0.1270 h1        1 BME      0.074700
      8 H22        -1.2680    0.9020    0.1270 h1        1 BME      0.074700
      9 HO1         0.5570    0.0000    2.9570 ho        1 BME      0.404000
     10 HS2        -0.9350   -0.0000   -2.3470 hs        1 BME      0.207800
@<TRIPOS>BOND
     1    1    2 1   
     2    1    3 1   
     3    1    5 1   
     4    1    6 1   
     5    2    4 1   
     6    2    7 1   
     7    2    8 1   
     8    3    9 1   
     9    4   10 1   
@<TRIPOS>SUBSTRUCTURE
     1 BME         1 TEMP              0 ****  ****    0 ROOT
