@<TRIPOS>MOLECULE
BMF
   48    49     1     0     0
SMALL
bcc


@<TRIPOS>ATOM
      1 C10         0.2380   -0.7980   -0.7420 ce        1 BMF     -0.139800
      2 N12         0.6700   -0.7320   -3.1300 nd        1 BMF     -0.464800
      3 C15        -2.1740   -0.6720   -3.6300 cd        1 BMF      0.169600
      4 C17        -4.5560   -0.7010   -3.0630 c         1 BMF      0.754100
      5 C20        -8.4290   -0.1490   -1.4860 c2        1 BMF     -0.231000
      6 C22        -1.6660   -0.7160   -2.3460 cc        1 BMF     -0.296300
      7 C28         0.1340   -1.7350    1.5430 c3        1 BMF     -0.016000
      8 C01         0.9270   -0.2310    3.3110 c2        1 BMF     -0.210000
      9 C02         0.9230   -0.5550    2.0100 cf        1 BMF     -0.083200
     10 C03         1.6610    0.2010    0.9760 cf        1 BMF      0.157000
     11 N04         2.7060    1.0400    1.3970 nu        1 BMF     -0.781900
     12 S05         3.2450    2.4100    0.6940 s6        1 BMF      1.467900
     13 C06         1.9630    3.4990    0.9270 c3        1 BMF     -0.371300
     14 O07         4.3520    2.8540    1.4460 o         1 BMF     -0.647800
     15 O08         3.4340    2.2550   -0.6900 o         1 BMF     -0.647800
     16 C09         1.3170    0.0790   -0.3400 ce        1 BMF     -0.169000
     17 C11        -0.2330   -0.7430   -2.1400 cc        1 BMF      0.470100
     18 N13         0.1920   -0.6810   -4.3660 na        1 BMF      0.095300
     19 C14        -1.2040   -0.6520   -4.7130 cd        1 BMF     -0.164300
     20 O18        -5.7900   -0.6500   -3.6620 oh        1 BMF     -0.602100
     21 C19        -7.7020   -1.0630   -0.8570 c2        1 BMF     -0.231000
     22 O21        -4.5190   -0.7900   -1.8240 o         1 BMF     -0.587000
     23 N23        -1.3080   -0.6050   -6.0800 nc        1 BMF     -0.066000
     24 N24        -0.1070   -0.6030   -6.5960 nc        1 BMF     -0.355700
     25 C25         0.8590   -0.6470   -5.6180 cd        1 BMF      0.360800
     26 C27        -0.3200   -1.6570    0.1370 c2        1 BMF     -0.126200
     27 H1         -9.5010   -0.2770   -1.6890 ha        1 BMF      0.117000
     28 H2         -8.1270   -2.0100   -0.4970 ha        1 BMF      0.117000
     29 H3         -8.0090    0.8040   -1.8390 ha        1 BMF      0.117000
     30 H4         -2.3210   -0.7250   -1.4590 ha        1 BMF      0.194000
     31 H5          2.7530   -1.5980   -5.3430 hc        1 BMF      0.070700
     32 H6          2.7770    0.2170   -5.2350 hc        1 BMF      0.070700
     33 H7          2.5980   -0.5960   -6.8570 hc        1 BMF      0.070700
     34 H8         -0.7610   -1.8770    2.2110 hc        1 BMF      0.072200
     35 H9          1.4860    0.6120    3.7360 ha        1 BMF      0.120500
     36 H10         0.7740   -2.6590    1.6550 hc        1 BMF      0.072200
     37 H11         0.3460   -0.8050    4.0460 ha        1 BMF      0.120500
     38 H12         3.1350    0.7300    2.2430 hn        1 BMF      0.460800
     39 H13         1.8210    3.7900    1.9960 h1        1 BMF      0.119033
     40 H14         0.9750    3.1250    0.5620 h1        1 BMF      0.119033
     41 H15         2.1560    4.4510    0.3680 h1        1 BMF      0.119033
     42 H16         1.8510    0.6260   -1.1380 ha        1 BMF      0.181000
     43 H17        -3.7600   -0.5850   -4.9490 hn        1 BMF      0.371500
     44 H18        -6.6280   -0.9340   -0.6510 ha        1 BMF      0.117000
     45 H19        -6.4660   -0.7010   -2.9580 ho        1 BMF      0.474000
     46 H20        -1.1200   -2.3550   -0.1550 ha        1 BMF      0.144000
     47 N16        -3.5200   -0.6420   -3.9790 ns        1 BMF     -0.431100
     48 C26         2.3280   -0.6560   -5.7740 c3        1 BMF     -0.101400
@<TRIPOS>BOND
     1    1   16 1   
     2    1   17 1   
     3    1   26 2   
     4    2   17 2   
     5    2   18 1   
     6    3    6 2   
     7    3   19 1   
     8    3   47 1   
     9    4   20 1   
    10    4   22 2   
    11    4   47 1   
    12    5   21 2   
    13    5   27 1   
    14    5   29 1   
    15    6   17 1   
    16    6   30 1   
    17    7    9 1   
    18    7   26 1   
    19    7   34 1   
    20    7   36 1   
    21    8    9 2   
    22    8   35 1   
    23    8   37 1   
    24    9   10 1   
    25   10   11 1   
    26   10   16 2   
    27   11   12 1   
    28   11   38 1   
    29   12   13 1   
    30   12   14 2   
    31   12   15 2   
    32   13   39 1   
    33   13   40 1   
    34   13   41 1   
    35   16   42 1   
    36   18   19 1   
    37   18   25 1   
    38   19   23 2   
    39   20   45 1   
    40   21   28 1   
    41   21   44 1   
    42   23   24 1   
    43   24   25 2   
    44   25   48 1   
    45   26   46 1   
    46   31   48 1   
    47   32   48 1   
    48   33   48 1   
    49   43   47 1   
@<TRIPOS>SUBSTRUCTURE
     1 BMF         1 TEMP              0 ****  ****    0 ROOT
