@<TRIPOS>MOLECULE
BMF
   48    50     1     0     0
SMALL
bcc


@<TRIPOS>ATOM
      1 C10        -0.1210    1.1300   -0.3360 ca        1 BMF     -0.131500
      2 N12        -0.6770    2.3750   -2.3350 nc        1 BMF     -0.482800
      3 C15        -2.6110    0.3510   -3.0550 cc        1 BMF      0.177600
      4 C17        -3.9500   -1.6820   -2.7700 c         1 BMF      0.749100
      5 C20        -6.3340   -4.2570   -3.7130 c3        1 BMF     -0.104100
      6 C22        -1.8530    0.2520   -1.9020 cd        1 BMF     -0.294300
      7 C28         0.7100    2.0040    1.7490 ca        1 BMF     -0.116000
      8 C01         2.0730    0.6320    3.3150 c3        1 BMF     -0.057800
      9 C02         1.3310    0.7870    2.0410 ca        1 BMF     -0.090300
     10 C03         1.2300   -0.2840    1.1140 ca        1 BMF      0.149600
     11 N04         1.8570   -1.5130    1.3800 nh        1 BMF     -0.784500
     12 S05         2.5370   -2.5420    0.3150 s6        1 BMF      1.469900
     13 C06         3.9130   -1.7000   -0.2190 c3        1 BMF     -0.371300
     14 O07         2.9620   -3.6730    1.0410 o         1 BMF     -0.648300
     15 O08         1.7110   -2.7680   -0.7990 o         1 BMF     -0.648300
     16 C09         0.4820   -0.1020   -0.0680 ca        1 BMF     -0.146000
     17 C11        -0.8980    1.2890   -1.5810 cd        1 BMF      0.471800
     18 N13        -1.3970    2.4780   -3.4450 na        1 BMF      0.098300
     19 C14        -2.3770    1.5230   -3.8860 cc        1 BMF     -0.160300
     20 O18        -4.8900   -2.4170   -3.4560 os        1 BMF     -0.438900
     21 C19        -5.3350   -3.6140   -2.7820 c3        1 BMF      0.151400
     22 O21        -3.5730   -2.0650   -1.6530 o         1 BMF     -0.563000
     23 N23        -2.9080    1.9660   -5.0720 nd        1 BMF     -0.067000
     24 N24        -2.3410    3.0990   -5.3930 nd        1 BMF     -0.353700
     25 C25        -1.4110    3.4760   -4.4530 cc        1 BMF      0.349800
     26 C27        -0.0040    2.1880    0.5690 ca        1 BMF     -0.105000
     27 H1         -7.1910   -3.5690   -3.9070 hc        1 BMF      0.052367
     28 H2         -5.8570   -4.5080   -4.6900 hc        1 BMF      0.052367
     29 H3         -6.7150   -5.1940   -3.2400 hc        1 BMF      0.052367
     30 H4         -1.9580   -0.5980   -1.2060 ha        1 BMF      0.201000
     31 H5         -0.7520    5.2980   -5.3510 hc        1 BMF      0.067033
     32 H6         -0.7700    5.2940   -3.5290 hc        1 BMF      0.067033
     33 H7          0.5240    4.3850   -4.4250 hc        1 BMF      0.067033
     34 H8          0.7900    2.8350    2.4680 ha        1 BMF      0.141000
     35 H9          1.5870   -0.1440    3.9600 hc        1 BMF      0.048367
     36 H10         2.0940    1.5920    3.8880 hc        1 BMF      0.048367
     37 H11         3.1300    0.3200    3.1240 hc        1 BMF      0.048367
     38 H12         1.8950   -1.7260    2.3540 hn        1 BMF      0.459800
     39 H13         3.6970   -0.6790   -0.6180 h1        1 BMF      0.118700
     40 H14         4.6900   -1.5760    0.5750 h1        1 BMF      0.118700
     41 H15         4.4090   -2.2580   -1.0550 h1        1 BMF      0.118700
     42 H16         0.3640   -0.9290   -0.7930 ha        1 BMF      0.180000
     43 H17        -4.0050   -0.4010   -4.3730 hn        1 BMF      0.367500
     44 H18        -5.7950   -3.3220   -1.8020 h1        1 BMF      0.058200
     45 H19        -4.4460   -4.2710   -2.5940 h1        1 BMF      0.058200
     46 H20        -0.4740    3.1600    0.3560 ha        1 BMF      0.150000
     47 N16        -3.5650   -0.5590   -3.4900 n         1 BMF     -0.434100
     48 C26        -0.5550    4.6800   -4.4400 c3        1 BMF     -0.096400
@<TRIPOS>BOND
     1    1   16 ar  
     2    1   17 1   
     3    1   26 ar  
     4    2   17 2   
     5    2   18 1   
     6    3    6 2   
     7    3   19 1   
     8    3   47 1   
     9    4   20 1   
    10    4   22 2   
    11    4   47 1   
    12    5   21 1   
    13    5   27 1   
    14    5   28 1   
    15    5   29 1   
    16    6   17 1   
    17    6   30 1   
    18    7    9 ar  
    19    7   26 ar  
    20    7   34 1   
    21    8    9 1   
    22    8   35 1   
    23    8   36 1   
    24    8   37 1   
    25    9   10 ar  
    26   10   11 1   
    27   10   16 ar  
    28   11   12 1   
    29   11   38 1   
    30   12   13 1   
    31   12   14 2   
    32   12   15 2   
    33   13   39 1   
    34   13   40 1   
    35   13   41 1   
    36   16   42 1   
    37   18   19 1   
    38   18   25 1   
    39   19   23 2   
    40   20   21 1   
    41   21   44 1   
    42   21   45 1   
    43   23   24 1   
    44   24   25 2   
    45   25   48 1   
    46   26   46 1   
    47   31   48 1   
    48   32   48 1   
    49   33   48 1   
    50   43   47 1   
@<TRIPOS>SUBSTRUCTURE
     1 BMF         1 TEMP              0 ****  ****    0 ROOT
