@<TRIPOS>MOLECULE
BMG
   44    46     1     0     0
SMALL
bcc


@<TRIPOS>ATOM
      1 C1         -1.1820   -1.8210    0.2130 c3        1 BMG      0.009500
      2 C3         -0.7330    0.4770    0.5420 ce        1 BMG      0.160800
      3 C5         -2.4560   -1.0810    0.7670 c3        1 BMG      0.205500
      4 C6         -3.6950   -1.1630   -0.1320 c3        1 BMG     -0.200700
      5 C7         -3.5590   -0.3740   -1.4150 c         1 BMG      0.584900
      6 C8         -4.9810   -0.6870    0.5650 c3        1 BMG      0.147100
      7 C11        -0.0870    1.8640    0.6140 c         1 BMG      0.918800
      8 C17         2.4450   -0.2660    0.4310 c3        1 BMG     -0.099600
      9 C18         3.6070   -1.2360    0.7370 c3        1 BMG      0.043300
     10 C20         6.2070   -0.5610    0.5560 cc        1 BMG      0.516900
     11 C22         5.7470    1.4210   -0.2650 cd        1 BMG      0.516900
     12 C9         -5.2780   -1.4480    1.8440 c3        1 BMG     -0.135100
     13 O14        -3.8960   -0.8500   -2.5010 o         1 BMG     -0.542100
     14 O15        -4.8480    0.7100    0.8080 oh        1 BMG     -0.607800
     15 C10        -1.3790   -2.6320   -1.0380 c3        1 BMG     -0.095100
     16 N4         -1.9950    0.2760    1.0780 nh        1 BMG     -0.716000
     17 O13         0.9700    1.9720    1.3040 o         1 BMG     -0.804800
     18 O12        -0.6440    2.7900   -0.0180 o         1 BMG     -0.804800
     19 C2         -0.1850   -0.6960    0.0480 c2        1 BMG     -0.308600
     20 S16         1.2760   -0.9540   -0.6840 ss        1 BMG     -0.113700
     21 C24         3.0920    0.9930   -0.2040 c3        1 BMG      0.043300
     22 N23         4.5490    0.7750   -0.0750 na        1 BMG     -0.171700
     23 N19         4.8340   -0.4700    0.4400 na        1 BMG     -0.171700
     24 N21         6.7930    0.6010    0.1170 nd        1 BMG     -0.670000
     25 H1         -0.8270   -2.5110    1.0290 hc        1 BMG      0.042700
     26 H5         -2.7350   -1.5640    1.7500 h1        1 BMG      0.055700
     27 H6         -3.8520   -2.2510   -0.3830 hc        1 BMG      0.083700
     28 H7         -3.1710    0.6620   -1.3160 h4        1 BMG      0.038200
     29 H8         -5.8360   -0.8370   -0.1600 h1        1 BMG      0.042700
     30 H17         1.9290    0.0590    1.3810 h1        1 BMG      0.176700
     31 H18A        3.5830   -2.1430    0.0720 h1        1 BMG      0.124450
     32 H20         6.7370   -1.4460    0.9400 h5        1 BMG      0.114600
     33 H22         5.8430    2.4420   -0.6670 h5        1 BMG      0.114600
     34 H9         -6.3360   -1.2710    2.1530 hc        1 BMG      0.048367
     35 H9A        -5.1300   -2.5420    1.6860 hc        1 BMG      0.048367
     36 H9B        -4.6100   -1.1060    2.6710 hc        1 BMG      0.048367
     37 HO15       -5.5740    0.9700    1.3860 ho        1 BMG      0.410000
     38 H10        -1.8010   -2.0150   -1.8690 hc        1 BMG      0.039700
     39 H10A       -0.3910   -3.0360   -1.3760 hc        1 BMG      0.039700
     40 H10B       -2.0660   -3.4930   -0.8490 hc        1 BMG      0.039700
     41 HN4        -2.6550    1.0230    1.0720 hn        1 BMG      0.456800
     42 H24         2.8380    1.0830   -1.2970 h1        1 BMG      0.124450
     43 H24A        2.7850    1.9320    0.3540 h1        1 BMG      0.124450
     44 H18         3.6260   -1.5400    1.8170 h1        1 BMG      0.124450
@<TRIPOS>BOND
     1    1    3 1   
     2    1   15 1   
     3    1   19 1   
     4    1   25 1   
     5    2    7 1   
     6    2   16 1   
     7    2   19 2   
     8    3    4 1   
     9    3   16 1   
    10    3   26 1   
    11    4    5 1   
    12    4    6 1   
    13    4   27 1   
    14    5   13 2   
    15    5   28 1   
    16    6   12 1   
    17    6   14 1   
    18    6   29 1   
    19    7   17 1   
    20    7   18 1   
    21    8    9 1   
    22    8   20 1   
    23    8   21 1   
    24    8   30 1   
    25    9   23 1   
    26    9   31 1   
    27    9   44 1   
    28   10   23 1   
    29   10   24 2   
    30   10   32 1   
    31   11   22 2   
    32   11   24 1   
    33   11   33 1   
    34   12   34 1   
    35   12   35 1   
    36   12   36 1   
    37   14   37 1   
    38   15   38 1   
    39   15   39 1   
    40   15   40 1   
    41   16   41 1   
    42   19   20 1   
    43   21   22 1   
    44   21   42 1   
    45   21   43 1   
    46   22   23 1   
@<TRIPOS>SUBSTRUCTURE
     1 BMG         1 TEMP              0 ****  ****    0 ROOT
