@<TRIPOS>MOLECULE
BMG
   44    46     1     0     0
SMALL
bcc


@<TRIPOS>ATOM
      1 C1          0.2920   -0.4960   -0.9530 c3        1 BMG      0.009500
      2 C3          0.2140    0.3700    1.2450 ce        1 BMG      0.160800
      3 C5          1.7450   -0.2330   -0.4090 c3        1 BMG      0.205500
      4 C6          2.6540   -1.4670   -0.3640 c3        1 BMG     -0.200700
      5 C7          2.2390   -2.4800    0.6800 c         1 BMG      0.584900
      6 C8          4.1300   -1.1220   -0.1090 c3        1 BMG      0.147100
      7 C11        -0.2260    0.8900    2.6180 c         1 BMG      0.918800
      8 C17        -2.9210    1.1040    0.7020 c3        1 BMG     -0.099600
      9 C18        -4.0440    1.5680   -0.2510 c3        1 BMG      0.043300
     10 C20        -6.4930    2.3200    0.5760 cc        1 BMG      0.516900
     11 C22        -6.0750    1.7760    2.6600 cd        1 BMG      0.516900
     12 C9          4.6990   -0.1590   -1.1330 c3        1 BMG     -0.135100
     13 O14         2.1920   -3.6840    0.4250 o         1 BMG     -0.542100
     14 O15         4.2290   -0.5990    1.2110 oh        1 BMG     -0.607800
     15 C10         0.0260   -1.8750   -1.4940 c3        1 BMG     -0.095100
     16 N4          1.5480    0.4470    0.8750 nh        1 BMG     -0.716000
     17 O13        -1.0180    1.8790    2.6320 o         1 BMG     -0.804800
     18 O12         0.2240    0.3000    3.6260 o         1 BMG     -0.804800
     19 C2         -0.5800   -0.1390    0.2310 c2        1 BMG     -0.308600
     20 S16        -2.2090   -0.4220    0.2040 ss        1 BMG     -0.113700
     21 C24        -3.5810    0.9410    2.0970 c3        1 BMG      0.043300
     22 N23        -4.9530    1.4680    1.9300 na        1 BMG     -0.171700
     23 N19        -5.2120    1.8070    0.6210 na        1 BMG     -0.171700
     24 N21        -7.0490    2.3030    1.8320 nd        1 BMG     -0.670000
     25 H1          0.1140    0.2480   -1.7790 hc        1 BMG      0.042700
     26 H5          2.2410    0.5110   -1.1000 h1        1 BMG      0.055700
     27 H6          2.6090   -1.9500   -1.3830 hc        1 BMG      0.083700
     28 H7          2.0140   -2.0780    1.6920 h4        1 BMG      0.038200
     29 H8          4.7160   -2.0890   -0.1470 h1        1 BMG      0.042700
     30 H17        -2.1180    1.8930    0.7960 h1        1 BMG      0.176700
     31 H18A       -4.3140    0.7730   -1.0000 h1        1 BMG      0.124450
     32 H20        -6.9830    2.6780   -0.3420 h5        1 BMG      0.114600
     33 H22        -6.1700    1.6170    3.7460 h5        1 BMG      0.114600
     34 H9          5.8150   -0.1620   -1.0780 hc        1 BMG      0.048367
     35 H9A         4.3920   -0.4630   -2.1620 hc        1 BMG      0.048367
     36 H9B         4.3420    0.8810   -0.9390 hc        1 BMG      0.048367
     37 HO15        5.1160   -0.2340    1.3080 ho        1 BMG      0.410000
     38 H10        -1.0550   -1.9610   -1.7690 hc        1 BMG      0.039700
     39 H10A        0.6390   -2.0660   -2.4090 hc        1 BMG      0.039700
     40 H10B        0.2550   -2.6660   -0.7390 hc        1 BMG      0.039700
     41 HN4         2.2560    0.3770    1.5720 hn        1 BMG      0.456800
     42 H24        -3.0230    1.5400    2.8820 h1        1 BMG      0.124450
     43 H24A       -3.6470   -0.1420    2.4000 h1        1 BMG      0.124450
     44 H18        -3.7820    2.5270   -0.7720 h1        1 BMG      0.124450
@<TRIPOS>BOND
     1    1    3 1   
     2    1   15 1   
     3    1   19 1   
     4    1   25 1   
     5    2    7 1   
     6    2   16 1   
     7    2   19 2   
     8    3    4 1   
     9    3   16 1   
    10    3   26 1   
    11    4    5 1   
    12    4    6 1   
    13    4   27 1   
    14    5   13 2   
    15    5   28 1   
    16    6   12 1   
    17    6   14 1   
    18    6   29 1   
    19    7   17 1   
    20    7   18 1   
    21    8    9 1   
    22    8   20 1   
    23    8   21 1   
    24    8   30 1   
    25    9   23 1   
    26    9   31 1   
    27    9   44 1   
    28   10   23 1   
    29   10   24 2   
    30   10   32 1   
    31   11   22 2   
    32   11   24 1   
    33   11   33 1   
    34   12   34 1   
    35   12   35 1   
    36   12   36 1   
    37   14   37 1   
    38   15   38 1   
    39   15   39 1   
    40   15   40 1   
    41   16   41 1   
    42   19   20 1   
    43   21   22 1   
    44   21   42 1   
    45   21   43 1   
    46   22   23 1   
@<TRIPOS>SUBSTRUCTURE
     1 BMG         1 TEMP              0 ****  ****    0 ROOT
