@<TRIPOS>MOLECULE
BMG
   44    43     1     0     0
SMALL
bcc


@<TRIPOS>ATOM
      1 C1          0.6970    0.3760   -1.2130 c3        1 BMG     -0.036000
      2 C3          1.4880    0.3720    0.9610 c1        1 BMG      0.137000
      3 C5          2.2220    0.0310   -1.1050 c3        1 BMG      0.009000
      4 C6          2.4340   -1.3280   -1.3590 c3        1 BMG     -0.173000
      5 C7          2.7720   -2.0930    0.0210 c2        1 BMG      0.204000
      6 C8          3.5960   -1.4830   -2.3330 c3        1 BMG      0.033000
      7 C11         1.4140    0.8140    2.3840 c2        1 BMG      0.376000
      8 C17        -2.3650    0.6800    1.3560 c3        1 BMG     -0.319000
      9 C18        -2.6540    1.1610    2.6700 c3        1 BMG     -0.008000
     10 C20        -4.9300    2.3090    3.4180 c1        1 BMG      0.028500
     11 C22        -5.6860    2.2170    1.3170 c1        1 BMG      0.028500
     12 C9          3.4760   -2.8440   -3.0620 c3        1 BMG     -0.256000
     13 O14         1.8700   -2.4640    0.7470 o         1 BMG     -0.302000
     14 O15         3.5590   -0.4600   -3.2560 oh        1 BMG     -0.328000
     15 C10        -0.0320   -0.7420   -1.8850 c3        1 BMG     -0.209000
     16 N4          2.5980    0.3840    0.3460 n2        1 BMG     -0.299000
     17 O13         1.7840    1.9500    2.6980 o         1 BMG     -0.535000
     18 O12         0.9890    0.0490    3.2420 o         1 BMG     -0.535000
     19 C2          0.3970    0.5430    0.1280 c2        1 BMG     -0.564000
     20 S16        -0.9530    1.6730    0.6170 ss        1 BMG      0.318000
     21 C24        -3.5600    0.8520    0.5490 c3        1 BMG     -0.008000
     22 N23        -4.5210    1.5700    1.3510 n3        1 BMG     -0.105500
     23 N19        -4.0350    1.6220    2.6730 n3        1 BMG     -0.105500
     24 N21        -5.9570    2.6870    2.6030 n2        1 BMG     -0.145000
     25 H1          0.4190    1.1570   -1.7580 hc        1 BMG      0.090000
     26 H5          2.7340    0.5740   -1.7260 h1        1 BMG      0.113000
     27 H6          1.6430   -1.7070   -1.7460 hc        1 BMG      0.134000
     28 H7          3.7090   -2.2630    0.2740 h4        1 BMG      0.107000
     29 H8          4.4340   -1.4480   -1.8490 h1        1 BMG      0.077000
     30 H17        -2.1180   -0.2830    1.3950 h1        1 BMG      0.156000
     31 H18        -2.5730    0.4160    3.3020 h1        1 BMG      0.168250
     32 H18A       -2.0840    1.9080    2.8570 h1        1 BMG      0.168250
     33 H20        -4.8560    2.4960    4.3470 DU        1 BMG      0.252500
     34 H22        -6.2290    2.3370    0.5610 DU        1 BMG      0.252500
     35 H9          2.5280   -2.9840   -3.3530 hc        1 BMG      0.088000
     36 H9A         4.0730   -2.8480   -3.8610 hc        1 BMG      0.088000
     37 H9B         3.7420   -3.5710   -2.4490 hc        1 BMG      0.088000
     38 HO15        4.3840   -0.3640   -3.6390 ho        1 BMG      0.204000
     39 H10        -0.9530   -0.4680   -2.0630 hc        1 BMG      0.075333
     40 H10A       -0.0310   -1.5390   -1.2950 hc        1 BMG      0.075333
     41 H10B        0.3930   -0.9500   -2.6930 hc        1 BMG      0.075333
     42 HN4         3.4390    0.2940    0.7320 hn        1 BMG      0.247000
     43 H24        -3.3300    1.4080   -0.2430 h1        1 BMG      0.168250
     44 H24A       -3.9290   -0.0410    0.3390 h1        1 BMG      0.168250
@<TRIPOS>BOND
     1    1    3 1   
     2    1   15 1   
     3    1   19 1   
     4    1   25 1   
     5    2    7 1   
     6    2   19 1   
     7    3    4 1   
     8    3   16 1   
     9    3   26 1   
    10    4    5 1   
    11    4    6 1   
    12    4   27 1   
    13    5   13 1   
    14    5   28 1   
    15    6   12 1   
    16    6   14 1   
    17    6   29 1   
    18    7   17 1   
    19    7   18 1   
    20    8    9 1   
    21    8   20 1   
    22    8   21 1   
    23    8   30 1   
    24    9   23 1   
    25    9   31 1   
    26    9   32 1   
    27   10   23 1   
    28   10   24 1   
    29   11   22 1   
    30   11   24 1   
    31   12   35 1   
    32   12   36 1   
    33   12   37 1   
    34   14   38 1   
    35   15   39 1   
    36   15   40 1   
    37   15   41 1   
    38   16   42 1   
    39   19   20 1   
    40   21   22 1   
    41   21   43 1   
    42   21   44 1   
    43   22   23 1   
@<TRIPOS>SUBSTRUCTURE
     1 BMG         1 TEMP              0 ****  ****    0 ROOT
