@<TRIPOS>MOLECULE
BMG
   44    46     1     0     0
SMALL
bcc


@<TRIPOS>ATOM
      1 C1          0.2880   -0.4890   -0.9570 c3        1 BMG      0.009500
      2 C3          0.2200    0.3420    1.2550 ce        1 BMG      0.160800
      3 C5          1.7440   -0.2750   -0.4000 c3        1 BMG      0.205500
      4 C6          2.6180   -1.5350   -0.3720 c3        1 BMG     -0.200700
      5 C7          2.1690   -2.5540    0.6530 c         1 BMG      0.584900
      6 C8          4.1020   -1.2350   -0.1020 c3        1 BMG      0.147100
      7 C11        -0.2140    0.8500    2.6340 c         1 BMG      0.918800
      8 C17        -2.8900    1.1710    0.7060 c3        1 BMG     -0.099600
      9 C18        -3.9940    1.6820   -0.2460 c3        1 BMG      0.043300
     10 C20        -6.4270    2.4890    0.5800 cc        1 BMG      0.516900
     11 C22        -6.0370    1.8970    2.6560 cd        1 BMG      0.516900
     12 C9          4.7030   -0.2710   -1.1060 c3        1 BMG     -0.135100
     13 O14         2.0900   -3.7520    0.3760 o         1 BMG     -0.542100
     14 O15         4.2060   -0.7380    1.2280 oh        1 BMG     -0.607800
     15 C10        -0.0120   -1.8500   -1.5240 c3        1 BMG     -0.095100
     16 N4          1.5570    0.3880    0.8940 nu        1 BMG     -0.716000
     17 O13        -0.9790    1.8590    2.6610 o         1 BMG     -0.804800
     18 O12         0.2120    0.2300    3.6340 o         1 BMG     -0.804800
     19 C2         -0.5810   -0.1280    0.2270 c2        1 BMG     -0.308600
     20 S16        -2.2180   -0.3660    0.1860 ss        1 BMG     -0.113700
     21 C24        -3.5640    1.0020    2.0940 c3        1 BMG      0.043300
     22 N23        -4.9190    1.5700    1.9280 na        1 BMG     -0.171700
     23 N19        -5.1600    1.9390    0.6230 na        1 BMG     -0.171700
     24 N21        -6.9900    2.4650    1.8310 nd        1 BMG     -0.670000
     25 H1          0.1360    0.2740   -1.7720 hc        1 BMG      0.042700
     26 H5          2.2650    0.4660   -1.0750 h1        1 BMG      0.055700
     27 H6          2.5670   -1.9980   -1.3990 hc        1 BMG      0.083700
     28 H7          1.9490   -2.1630    1.6690 h4        1 BMG      0.038200
     29 H8          4.6620   -2.2170   -0.1530 h1        1 BMG      0.042700
     30 H17        -2.0670    1.9360    0.8180 h1        1 BMG      0.176700
     31 H18A       -4.2820    0.9080   -1.0100 h1        1 BMG      0.124450
     32 H20        -6.9000    2.8760   -0.3350 h5        1 BMG      0.114600
     33 H22        -6.1440    1.7230    3.7390 h5        1 BMG      0.114600
     34 H9          4.3950   -0.5480   -2.1410 hc        1 BMG      0.048367
     35 H9A         5.8180   -0.3050   -1.0440 hc        1 BMG      0.048367
     36 H9B         4.3740    0.7760   -0.8950 hc        1 BMG      0.048367
     37 HO15        5.1020   -0.3990    1.3370 ho        1 BMG      0.410000
     38 H10         0.1890   -2.6600   -0.7810 hc        1 BMG      0.039700
     39 H10A        0.6000   -2.0420   -2.4380 hc        1 BMG      0.039700
     40 H10B       -1.0940   -1.9020   -1.8070 hc        1 BMG      0.039700
     41 HN4         2.2590    0.2860    1.5940 hn        1 BMG      0.456800
     42 H24        -2.9950    1.5730    2.8930 h1        1 BMG      0.124450
     43 H24A       -3.6610   -0.0830    2.3770 h1        1 BMG      0.124450
     44 H18        -3.7030    2.6430   -0.7490 h1        1 BMG      0.124450
@<TRIPOS>BOND
     1    1    3 1   
     2    1   15 1   
     3    1   19 1   
     4    1   25 1   
     5    2    7 1   
     6    2   16 1   
     7    2   19 2   
     8    3    4 1   
     9    3   16 1   
    10    3   26 1   
    11    4    5 1   
    12    4    6 1   
    13    4   27 1   
    14    5   13 2   
    15    5   28 1   
    16    6   12 1   
    17    6   14 1   
    18    6   29 1   
    19    7   17 1   
    20    7   18 1   
    21    8    9 1   
    22    8   20 1   
    23    8   21 1   
    24    8   30 1   
    25    9   23 1   
    26    9   31 1   
    27    9   44 1   
    28   10   23 1   
    29   10   24 2   
    30   10   32 1   
    31   11   22 2   
    32   11   24 1   
    33   11   33 1   
    34   12   34 1   
    35   12   35 1   
    36   12   36 1   
    37   14   37 1   
    38   15   38 1   
    39   15   39 1   
    40   15   40 1   
    41   16   41 1   
    42   19   20 1   
    43   21   22 1   
    44   21   42 1   
    45   21   43 1   
    46   22   23 1   
@<TRIPOS>SUBSTRUCTURE
     1 BMG         1 TEMP              0 ****  ****    0 ROOT
