@<TRIPOS>MOLECULE
BMG
   44    46     1     0     0
SMALL
bcc


@<TRIPOS>ATOM
      1 C1          0.2920   -0.5090   -0.9460 c3        1 BMG      0.009500
      2 C3          0.2150    0.3420    1.2580 ce        1 BMG      0.160800
      3 C5          1.7460   -0.3040   -0.3800 c3        1 BMG      0.205500
      4 C6          2.6080   -1.5710   -0.3340 c3        1 BMG     -0.200700
      5 C7          2.1420   -2.5760    0.6970 c         1 BMG      0.584900
      6 C8          4.0920   -1.2830   -0.0550 c3        1 BMG      0.147100
      7 C11        -0.2240    0.8670    2.6290 c         1 BMG      0.918800
      8 C17        -2.8830    1.1950    0.6770 c3        1 BMG     -0.099600
      9 C18        -3.9750    1.7070   -0.2870 c3        1 BMG      0.043300
     10 C20        -6.4060    2.5440    0.5110 cc        1 BMG      0.516900
     11 C22        -6.0380    1.9690    2.5960 cd        1 BMG      0.516900
     12 C9          4.7100   -0.3330   -1.0640 c3        1 BMG     -0.135100
     13 O14         2.0540   -3.7760    0.4320 o         1 BMG     -0.542100
     14 O15         4.1920   -0.7730    1.2700 oh        1 BMG     -0.607800
     15 C10        -0.0170   -1.8730   -1.5020 c3        1 BMG     -0.095100
     16 N4          1.5550    0.3730    0.9060 nh        1 BMG     -0.716000
     17 O13        -0.9810    1.8840    2.6400 o         1 BMG     -0.804800
     18 O12         0.1900    0.2540    3.6380 o         1 BMG     -0.804800
     19 C2         -0.5830   -0.1290    0.2290 c2        1 BMG     -0.308600
     20 S16        -2.2210   -0.3530    0.1770 ss        1 BMG     -0.113700
     21 C24        -3.5690    1.0460    2.0620 c3        1 BMG      0.043300
     22 N23        -4.9180    1.6240    1.8800 na        1 BMG     -0.171700
     23 N19        -5.1450    1.9830    0.5700 na        1 BMG     -0.171700
     24 N21        -6.9790    2.5380    1.7580 nd        1 BMG     -0.670000
     25 H1          0.1520    0.2470   -1.7680 hc        1 BMG      0.042700
     26 H5          2.2790    0.4260   -1.0580 h1        1 BMG      0.055700
     27 H6          2.5600   -2.0440   -1.3560 hc        1 BMG      0.083700
     28 H7          1.9190   -2.1740    1.7090 h4        1 BMG      0.038200
     29 H8          4.6440   -2.2700   -0.0930 h1        1 BMG      0.042700
     30 H17        -2.0530    1.9530    0.7890 h1        1 BMG      0.176700
     31 H18A       -4.2630    0.9280   -1.0460 h1        1 BMG      0.124450
     32 H20        -6.8690    2.9260   -0.4110 h5        1 BMG      0.114600
     33 H22        -6.1540    1.8060    3.6800 h5        1 BMG      0.114600
     34 H9          4.4060   -0.6170   -2.0990 hc        1 BMG      0.048367
     35 H9A         4.3880    0.7180   -0.8660 hc        1 BMG      0.048367
     36 H9B         5.8240   -0.3770   -0.9940 hc        1 BMG      0.048367
     37 HO15        5.0900   -0.4410    1.3830 ho        1 BMG      0.410000
     38 H10         0.1720   -2.6780   -0.7510 hc        1 BMG      0.039700
     39 H10A       -1.0970   -1.9180   -1.7920 hc        1 BMG      0.039700
     40 H10B        0.6010   -2.0800   -2.4090 hc        1 BMG      0.039700
     41 HN4         2.2510    0.2710    1.6130 hn        1 BMG      0.456800
     42 H24        -3.0010    1.6180    2.8600 h1        1 BMG      0.124450
     43 H24A       -3.6790   -0.0360    2.3540 h1        1 BMG      0.124450
     44 H18        -3.6700    2.6590   -0.7980 h1        1 BMG      0.124450
@<TRIPOS>BOND
     1    1    3 1   
     2    1   15 1   
     3    1   19 1   
     4    1   25 1   
     5    2    7 1   
     6    2   16 1   
     7    2   19 2   
     8    3    4 1   
     9    3   16 1   
    10    3   26 1   
    11    4    5 1   
    12    4    6 1   
    13    4   27 1   
    14    5   13 2   
    15    5   28 1   
    16    6   12 1   
    17    6   14 1   
    18    6   29 1   
    19    7   17 1   
    20    7   18 1   
    21    8    9 1   
    22    8   20 1   
    23    8   21 1   
    24    8   30 1   
    25    9   23 1   
    26    9   31 1   
    27    9   44 1   
    28   10   23 1   
    29   10   24 2   
    30   10   32 1   
    31   11   22 2   
    32   11   24 1   
    33   11   33 1   
    34   12   34 1   
    35   12   35 1   
    36   12   36 1   
    37   14   37 1   
    38   15   38 1   
    39   15   39 1   
    40   15   40 1   
    41   16   41 1   
    42   19   20 1   
    43   21   22 1   
    44   21   42 1   
    45   21   43 1   
    46   22   23 1   
@<TRIPOS>SUBSTRUCTURE
     1 BMG         1 TEMP              0 ****  ****    0 ROOT
