@<TRIPOS>MOLECULE
BMH
   46    45     1     0     0
SMALL
bcc


@<TRIPOS>ATOM
      1 O71         2.0610   -3.2130    2.0630 o         1 BMH     -0.565500
      2 C7          1.0980   -3.2310    1.2530 c2        1 BMH      0.337000
      3 O72        -0.0790   -3.3890    1.6770 o         1 BMH     -0.565500
      4 C6          1.3540   -2.9890   -0.2660 c3        1 BMH     -0.199000
      5 C61         2.6810   -3.7030   -0.6880 c3        1 BMH      0.045000
      6 O62         3.1350   -3.1670   -1.8640 oh        1 BMH     -0.366000
      7 C62         2.4220   -5.1830   -0.8750 c3        1 BMH     -0.241000
      8 C5          1.4650   -1.6330   -0.5010 c3        1 BMH      0.005000
      9 N4          1.0810   -1.3170   -1.8670 n3        1 BMH     -0.261000
     10 C3          0.0360   -0.6670   -1.7530 c2        1 BMH      0.019000
     11 C31        -0.5720    0.0190   -2.9750 c3        1 BMH      0.200000
     12 O31        -1.9370    0.2350   -2.7580 o         1 BMH     -0.371000
     13 O32         0.0680    1.2500   -3.1890 oh        1 BMH     -0.320000
     14 C1          0.3550   -0.7490    0.5030 c3        1 BMH     -0.054000
     15 C11         1.0980    0.0970    1.5340 c3        1 BMH     -0.210000
     16 C2         -0.1900   -0.1140   -0.4190 c2        1 BMH     -0.460000
     17 S21        -1.6690    0.8600   -0.0880 ss        1 BMH      0.229000
     18 C22        -1.1820    2.5480    0.5080 c3        1 BMH     -0.207000
     19 C23        -1.4170    2.6490    1.9490 c3        1 BMH     -0.050000
     20 N24        -2.3600    3.7550    2.1630 n3        1 BMH     -0.159000
     21 C25        -3.0570    4.4100    3.1030 c1        1 BMH     -0.167000
     22 N28        -2.8300    4.1780    0.9010 n2        1 BMH      0.121000
     23 C27        -1.9920    3.5410   -0.1400 c2        1 BMH     -0.292000
     24 C29        -3.8050    5.0830    1.1030 c1        1 BMH     -0.295000
     25 N26        -3.9630    5.2430    2.4630 n2        1 BMH     -0.077000
     26 H6          0.6090   -3.3520   -0.7850 hc        1 BMH      0.103000
     27 H61         3.3570   -3.5770    0.0100 h1        1 BMH      0.078000
     28 H62         3.9660   -3.4610   -2.0250 ho        1 BMH      0.183000
     29 H621        3.0670   -5.5500   -1.5280 hc        1 BMH      0.082000
     30 H622        1.5100   -5.3160   -1.2070 hc        1 BMH      0.082000
     31 H623        2.5280   -5.6460   -0.0130 hc        1 BMH      0.082000
     32 H5          2.3800   -1.3360   -0.3320 h1        1 BMH      0.124000
     33 HN4         1.6310   -1.3230   -2.5910 hn        1 BMH      0.230000
     34 H31        -0.4540   -0.5500   -3.7590 h2        1 BMH      0.123000
     35 H32         0.0280    1.4600   -4.0530 ho        1 BMH      0.220000
     36 H1         -0.2840   -1.2440    1.0570 hc        1 BMH      0.135000
     37 H111        0.4690    0.4050    2.2190 hc        1 BMH      0.077667
     38 H112        1.7980   -0.4410    1.9530 hc        1 BMH      0.077667
     39 H113        1.5030    0.8720    1.0900 hc        1 BMH      0.077667
     40 H22        -0.2370    2.7100    0.3130 h1        1 BMH      0.148000
     41 H231       -0.5730    2.8700    2.3890 h1        1 BMH      0.122000
     42 H232       -1.8330    1.8230    2.2550 h1        1 BMH      0.122000
     43 H25        -2.9460    4.3180    4.0690 DU        1 BMH      0.208000
     44 H271       -1.4010    4.2240   -0.5270 ha        1 BMH      0.212500
     45 H272       -2.5780    3.0940   -0.7820 ha        1 BMH      0.212500
     46 H29        -4.3440    5.5080    0.4110 DU        1 BMH      0.208000
@<TRIPOS>BOND
     1    1    2 1   
     2    2    3 1   
     3    2    4 1   
     4    4    5 1   
     5    4    8 1   
     6    4   26 1   
     7    5    6 1   
     8    5    7 1   
     9    5   27 1   
    10    6   28 1   
    11    7   29 1   
    12    7   30 1   
    13    7   31 1   
    14    8    9 1   
    15    8   14 1   
    16    8   32 1   
    17    9   10 1   
    18    9   33 1   
    19   10   11 1   
    20   10   16 1   
    21   11   12 1   
    22   11   13 1   
    23   11   34 1   
    24   13   35 1   
    25   14   15 1   
    26   14   16 1   
    27   14   36 1   
    28   15   37 1   
    29   15   38 1   
    30   15   39 1   
    31   16   17 1   
    32   17   18 1   
    33   18   19 1   
    34   18   23 1   
    35   18   40 1   
    36   19   20 1   
    37   19   41 1   
    38   19   42 1   
    39   20   21 1   
    40   20   22 1   
    41   21   25 1   
    42   22   24 1   
    43   23   44 1   
    44   23   45 1   
    45   24   25 1   
@<TRIPOS>SUBSTRUCTURE
     1 BMH         1 TEMP              0 ****  ****    0 ROOT
