@<TRIPOS>MOLECULE
BMI
   49    53     1     0     0
SMALL
bcc


@<TRIPOS>ATOM
      1 C           2.6430   -3.4040    6.8080 c         1 BMI      0.723700
      2 O           2.5890   -4.3890    6.0370 o         1 BMI     -0.683500
      3 N           2.9860    0.3220    7.1110 nh        1 BMI     -0.745000
      4 N1          2.6240   -3.7140    8.1860 n         1 BMI     -0.444100
      5 C1          2.8310   -0.9990    7.4130 cc        1 BMI      0.339000
      6 C2          2.8210   -1.4130    8.8060 cc        1 BMI     -0.305000
      7 C3          2.7090   -2.7360    9.1340 cd        1 BMI      0.056600
      8 C4          3.0130    1.3490    8.1230 c3        1 BMI      0.160500
      9 C5          4.1270    4.3550    6.0800 ca        1 BMI     -0.090000
     10 C6          4.0830    3.0650    6.6150 ca        1 BMI     -0.230300
     11 C7          3.1550    5.2780    6.4630 ca        1 BMI     -0.235300
     12 C8          3.0530    2.7410    7.5210 ca        1 BMI      0.376600
     13 N2          2.1010    3.6290    7.9000 nb        1 BMI     -0.653000
     14 C9          2.1670    4.8660    7.3780 ca        1 BMI      0.398200
     15 C10         2.7260   -2.0030    6.4260 cd        1 BMI     -0.395800
     16 C11         2.5680    0.6600   -1.6150 cc        1 BMI     -0.249600
     17 C12         2.2340   -0.2370    0.7090 ca        1 BMI     -0.007200
     18 C13         2.0370    0.2050    2.0270 ca        1 BMI     -0.104000
     19 N3          1.9330    0.6240   -0.3660 na        1 BMI     -0.133000
     20 C14         0.9360    1.6190   -0.3950 cc        1 BMI      0.396400
     21 N4          0.9210    2.2620   -1.5790 nd        1 BMI     -0.669000
     22 C15         1.9300    1.6770   -2.3470 cd        1 BMI      0.288200
     23 C16         2.3360   -0.6790    3.0690 ca        1 BMI      0.099400
     24 N5          3.0940   -2.6080    4.0090 na        1 BMI     -0.253300
     25 C17         2.6640   -1.6930    5.0020 cd        1 BMI      0.536100
     26 N6          2.2280   -0.5220    4.4600 nc        1 BMI     -0.636100
     27 C18         2.8530   -2.0020    2.7740 ca        1 BMI     -0.088200
     28 C19         3.0490   -2.4330    1.4540 ca        1 BMI     -0.050300
     29 C20         2.7300   -1.5420    0.4380 ca        1 BMI     -0.139000
     30 C21         3.5710   -3.7870    1.1680 c3        1 BMI     -0.054800
     31 HN          2.8970    0.6250    6.1630 hn        1 BMI      0.480800
     32 HN1         2.5420   -4.6720    8.4480 hn        1 BMI      0.339500
     33 H2          2.8960   -0.6690    9.6090 ha        1 BMI      0.157000
     34 H3          2.6860   -3.0680   10.1900 h4        1 BMI      0.157000
     35 H41         3.9450    1.2250    8.7510 h1        1 BMI      0.064700
     36 H42         2.1170    1.2420    8.8040 h1        1 BMI      0.064700
     37 H5          4.9160    4.6330    5.3670 ha        1 BMI      0.145000
     38 H6          4.8370    2.3160    6.3370 ha        1 BMI      0.151000
     39 H7          3.1510    6.3010    6.0650 ha        1 BMI      0.149000
     40 H9          1.3770    5.5640    7.7100 h4        1 BMI      0.027100
     41 H13         1.6590    1.2130    2.2510 ha        1 BMI      0.153000
     42 H14         0.2700    1.8080    0.4520 h5        1 BMI      0.064100
     43 H15         2.1380    2.0110   -3.3620 h4        1 BMI      0.041100
     44 HN5         3.2350   -3.5780    4.1600 hn        1 BMI      0.331700
     45 H20         2.8620   -1.8630   -0.6080 ha        1 BMI      0.142000
     46 H211        4.6160   -3.8890    1.5560 hc        1 BMI      0.048700
     47 H212        2.9360   -4.5620    1.6670 hc        1 BMI      0.048700
     48 H213        3.5810   -3.9940    0.0690 hc        1 BMI      0.048700
     49 H11         3.3930   -0.0000   -1.8690 h4        1 BMI      0.178000
@<TRIPOS>BOND
     1    1    2 2   
     2    1    4 1   
     3    1   15 1   
     4    3    5 1   
     5    3    8 1   
     6    3   31 1   
     7    4    7 1   
     8    4   32 1   
     9    5    6 1   
    10    5   15 2   
    11    6    7 2   
    12    6   33 1   
    13    7   34 1   
    14    8   12 1   
    15    8   35 1   
    16    8   36 1   
    17    9   10 ar  
    18    9   11 ar  
    19    9   37 1   
    20   10   12 ar  
    21   10   38 1   
    22   11   14 ar  
    23   11   39 1   
    24   12   13 ar  
    25   13   14 ar  
    26   14   40 1   
    27   15   25 1   
    28   16   19 1   
    29   16   22 2   
    30   16   49 1   
    31   17   18 ar  
    32   17   19 1   
    33   17   29 ar  
    34   18   23 ar  
    35   18   41 1   
    36   19   20 1   
    37   20   21 2   
    38   20   42 1   
    39   21   22 1   
    40   22   43 1   
    41   23   26 1   
    42   23   27 ar  
    43   24   25 1   
    44   24   27 1   
    45   24   44 1   
    46   25   26 2   
    47   27   28 ar  
    48   28   29 ar  
    49   28   30 1   
    50   29   45 1   
    51   30   46 1   
    52   30   47 1   
    53   30   48 1   
@<TRIPOS>SUBSTRUCTURE
     1 BMI         1 TEMP              0 ****  ****    0 ROOT
