@<TRIPOS>MOLECULE
BMI
   50    54     1     0     0
SMALL
bcc


@<TRIPOS>ATOM
      1 C           0.2760    1.2210    0.2660 c         1 BMI      0.697700
      2 O          -0.2450    1.6960   -0.7580 o         1 BMI     -0.602500
      3 N          -0.3520   -0.2800    3.7450 n4        1 BMI     -0.653800
      4 N1          1.6830    1.1570    0.2960 n         1 BMI     -0.412100
      5 C1          0.2720    0.2400    2.5240 cc        1 BMI      0.101000
      6 C2          1.7060    0.2090    2.4920 cc        1 BMI     -0.289000
      7 C3          2.3610    0.6660    1.3710 cd        1 BMI      0.079600
      8 C4         -0.2700    0.7120    4.8660 c3        1 BMI      0.084500
      9 C5         -1.8240    0.5240    8.3080 ca        1 BMI     -0.077000
     10 C6         -1.4190    1.0220    7.0630 ca        1 BMI     -0.202300
     11 C7         -1.5730   -0.8100    8.6180 ca        1 BMI     -0.205300
     12 C8         -0.7640    0.1510    6.1770 ca        1 BMI      0.328600
     13 N2         -0.5150   -1.1540    6.4650 nb        1 BMI     -0.701000
     14 C9         -0.9180   -1.6130    7.6590 ca        1 BMI      0.420200
     15 C10        -0.4580    0.7210    1.4510 cd        1 BMI     -0.175800
     16 C11        -8.8830    0.8240    2.4070 cc        1 BMI     -0.243600
     17 C12        -6.4280    0.4560    2.0050 ca        1 BMI      0.041800
     18 C13        -5.2360    0.1370    2.6640 ca        1 BMI     -0.122000
     19 N3         -7.6600    0.1550    2.6030 na        1 BMI     -0.160000
     20 C14        -7.9170   -0.8740    3.5400 cc        1 BMI      0.403400
     21 N4         -9.2040   -0.8740    3.9220 nd        1 BMI     -0.646000
     22 C15        -9.8160    0.1770    3.2290 cd        1 BMI      0.312200
     23 C16        -4.0240    0.4470    2.0250 ca        1 BMI      0.108400
     24 N5         -2.6920    1.2680    0.3720 na        1 BMI     -0.206300
     25 C17        -1.9180    0.7460    1.4210 cd        1 BMI      0.432100
     26 N6         -2.7040    0.2520    2.4270 nc        1 BMI     -0.656100
     27 C18        -4.0270    1.0890    0.7250 ca        1 BMI     -0.078200
     28 C19        -5.2340    1.4110    0.0680 ca        1 BMI     -0.035300
     29 C20        -6.4100    1.0860    0.7180 ca        1 BMI     -0.119000
     30 C21        -5.2200    2.0610   -1.2600 c3        1 BMI     -0.065800
     31 HN         -1.3630   -0.5040    3.5730 hn        1 BMI      0.491800
     32 HN1         2.1770    1.4850   -0.5130 hn        1 BMI      0.369500
     33 H2          2.2880   -0.1780    3.3400 ha        1 BMI      0.179000
     34 H3          3.4690    0.6520    1.3010 h4        1 BMI      0.193000
     35 H41        -0.8900    1.6080    4.5750 hx        1 BMI      0.110700
     36 H42         0.8090    1.0260    4.9770 hx        1 BMI      0.110700
     37 H5         -2.3370    1.1830    9.0270 ha        1 BMI      0.166000
     38 H6         -1.6100    2.0710    6.7920 ha        1 BMI      0.158000
     39 H7         -1.8750   -1.2400    9.5850 ha        1 BMI      0.171000
     40 H9         -0.7030   -2.6790    7.8610 h4        1 BMI      0.046100
     41 H13        -5.2280   -0.3400    3.6550 ha        1 BMI      0.159000
     42 H14        -7.1450   -1.5760    3.8700 h5        1 BMI      0.063100
     43 H15       -10.8760    0.3990    3.3590 h4        1 BMI      0.056100
     44 HN5        -2.3480    1.6600   -0.4740 hn        1 BMI      0.348700
     45 H20        -7.3690    1.3130    0.2210 ha        1 BMI      0.162000
     46 H211       -4.6790    1.4200   -2.0010 hc        1 BMI      0.060367
     47 H212       -6.2580    2.2320   -1.6380 hc        1 BMI      0.060367
     48 H213       -4.7000    3.0510   -1.2030 hc        1 BMI      0.060367
     49 HN3         0.1340   -1.1470    4.0130 hn        1 BMI      0.491800
     50 H11        -8.9830    1.6790    1.7410 h4        1 BMI      0.183000
@<TRIPOS>BOND
     1    1    2 2   
     2    1    4 1   
     3    1   15 1   
     4    3    5 1   
     5    3    8 1   
     6    3   31 1   
     7    3   49 1   
     8    4    7 1   
     9    4   32 1   
    10    5    6 1   
    11    5   15 2   
    12    6    7 2   
    13    6   33 1   
    14    7   34 1   
    15    8   12 1   
    16    8   35 1   
    17    8   36 1   
    18    9   10 ar  
    19    9   11 ar  
    20    9   37 1   
    21   10   12 ar  
    22   10   38 1   
    23   11   14 ar  
    24   11   39 1   
    25   12   13 ar  
    26   13   14 ar  
    27   14   40 1   
    28   15   25 1   
    29   16   19 1   
    30   16   22 2   
    31   16   50 1   
    32   17   18 ar  
    33   17   19 1   
    34   17   29 ar  
    35   18   23 ar  
    36   18   41 1   
    37   19   20 1   
    38   20   21 2   
    39   20   42 1   
    40   21   22 1   
    41   22   43 1   
    42   23   26 1   
    43   23   27 ar  
    44   24   25 1   
    45   24   27 1   
    46   24   44 1   
    47   25   26 2   
    48   27   28 ar  
    49   28   29 ar  
    50   28   30 1   
    51   29   45 1   
    52   30   46 1   
    53   30   47 1   
    54   30   48 1   
@<TRIPOS>SUBSTRUCTURE
     1 BMI         1 TEMP              0 ****  ****    0 ROOT
