@<TRIPOS>MOLECULE
BMI
   49    38     1     0     0
SMALL
bcc


@<TRIPOS>ATOM
      1 C           3.1230    0.5080   -2.0620 c1        1 BMI      0.360000
      2 O           2.5400    0.5140   -3.1360 o         1 BMI     -0.406000
      3 N           2.3040    0.3330    1.5930 n3        1 BMI     -0.271000
      4 N1          4.4900    0.4940   -2.0270 n2        1 BMI     -0.288000
      5 C1          3.0580    0.4090    0.3440 c2        1 BMI      0.250000
      6 C2          4.4130    0.3950    0.3730 c2        1 BMI     -0.297000
      7 C3          5.1450    0.4380   -0.8300 c1        1 BMI      0.049000
      8 C4          2.9980    0.0070    2.8440 c3        1 BMI      0.016000
      9 C5          2.5010   -3.5950    3.8930 c1        1 BMI     -0.126500
     10 C6          3.0210   -2.4690    3.3170 c1        1 BMI     -0.126500
     11 C7          1.3520   -3.5240    4.6040 c1        1 BMI     -0.126500
     12 C8          2.3800   -1.2650    3.4580 c1        1 BMI     -0.060000
     13 N2          1.2140   -1.1880    4.1790 n1        1 BMI     -0.131000
     14 C9          0.6980   -2.3010    4.7490 c1        1 BMI     -0.126500
     15 C10         2.3940    0.4660   -0.8700 c1        1 BMI     -0.277000
     16 C11        -5.3120    2.6340   -0.8810 c1        1 BMI     -0.168500
     17 C12        -3.3990    1.5520   -1.8590 c1        1 BMI     -0.004500
     18 C13        -2.1690    2.1380   -1.6370 c1        1 BMI     -0.118500
     19 N3         -4.5380    2.2890   -1.9220 n2        1 BMI     -0.128000
     20 C14        -5.0580    2.8610   -3.0430 c1        1 BMI     -0.094000
     21 N4         -6.1680    3.5670   -2.6810 n2        1 BMI     -0.128000
     22 C15        -6.3310    3.4340   -1.3580 c1        1 BMI     -0.168500
     23 C16        -1.0030    1.3250   -1.4960 c1        1 BMI     -0.004500
     24 N5          0.1450   -0.5660   -1.4100 n2        1 BMI     -0.209000
     25 C17         1.0140    0.4730   -1.2200 c1        1 BMI      0.114000
     26 N6          0.3020    1.6380   -1.2740 n1        1 BMI     -0.189000
     27 C18        -1.1040   -0.0430   -1.5820 c1        1 BMI     -0.041000
     28 C19        -2.3640   -0.6440   -1.8090 c1        1 BMI     -0.045000
     29 C20        -3.5060    0.1580   -1.9470 c1        1 BMI     -0.118500
     30 C21        -2.7270   -2.0960   -2.1070 c3        1 BMI     -0.179000
     31 HN          1.4470    0.5420    1.6050 hn        1 BMI      0.266000
     32 HN1         4.9760    0.5220   -2.8210 hn        1 BMI      0.253000
     33 H2          4.8800    0.3540    1.2240 ha        1 BMI      0.154000
     34 H3          6.1030    0.4280   -0.8080 ha        1 BMI      0.155000
     35 H41         2.9060    0.7670    3.4870 h1        1 BMI      0.111500
     36 H42         3.9600   -0.1490    2.6570 h1        1 BMI      0.111500
     37 H5          2.9530   -4.4380    3.7910 ha        1 BMI      0.149250
     38 H6          3.8750   -2.5250    2.7880 ha        1 BMI      0.149250
     39 H7          0.9800   -4.3290    5.0160 ha        1 BMI      0.149250
     40 H9         -0.1220   -2.2490    5.2560 ha        1 BMI      0.149250
     41 H11        -5.1750    2.3650    0.0610 DU        1 BMI      0.208750
     42 H13        -2.0960    3.0990   -1.5780 ha        1 BMI      0.147500
     43 H14        -4.6890    2.7780   -3.9690 DU        1 BMI      0.208750
     44 H15        -7.0510    3.8360   -0.8220 DU        1 BMI      0.208750
     45 HN5         0.3730   -1.4730   -1.4560 DU        1 BMI      0.208750
     46 H20        -4.3330   -0.2350   -2.0960 ha        1 BMI      0.147500
     47 H211       -1.9050   -2.6710   -2.0270 hc        1 BMI      0.087667
     48 H212       -3.0930   -2.1650   -3.0390 hc        1 BMI      0.087667
     49 H213       -3.3980   -2.3990   -1.4710 hc        1 BMI      0.087667
@<TRIPOS>BOND
     1    1    2 1   
     2    1    4 1   
     3    3    5 1   
     4    3    8 1   
     5    3   31 1   
     6    4   32 1   
     7    5    6 1   
     8    5   15 1   
     9    6    7 1   
    10    6   33 1   
    11    7   34 1   
    12    8   12 1   
    13    8   35 1   
    14    8   36 1   
    15    9   10 1   
    16    9   37 1   
    17   10   38 1   
    18   11   14 1   
    19   11   39 1   
    20   12   13 1   
    21   14   40 1   
    22   16   19 1   
    23   16   22 1   
    24   17   29 1   
    25   18   23 1   
    26   18   42 1   
    27   19   20 1   
    28   20   21 1   
    29   21   22 1   
    30   24   25 1   
    31   24   27 1   
    32   25   26 1   
    33   27   28 1   
    34   28   30 1   
    35   29   46 1   
    36   30   47 1   
    37   30   48 1   
    38   30   49 1   
@<TRIPOS>SUBSTRUCTURE
     1 BMI         1 TEMP              0 ****  ****    0 ROOT
