@<TRIPOS>MOLECULE
BMI
   49    53     1     0     0
SMALL
bcc


@<TRIPOS>ATOM
      1 C           0.1410    0.9230    0.1880 c         1 BMI      0.723700
      2 O          -0.4180    1.1210   -0.9150 o         1 BMI     -0.683500
      3 N          -0.3040    0.4840    3.8900 nu        1 BMI     -0.745000
      4 N1          1.5520    0.8740    0.1510 ns        1 BMI     -0.444100
      5 C1          0.2540    0.5790    2.6490 cc        1 BMI      0.339000
      6 C2          1.7000    0.5590    2.5170 cc        1 BMI     -0.305000
      7 C3          2.2850    0.6950    1.2880 cd        1 BMI      0.056600
      8 C4          0.4810    0.2340    5.0740 c3        1 BMI      0.160500
      9 C5         -2.0960    0.8510    7.7990 ca        1 BMI     -0.090000
     10 C6         -1.3140    1.0340    6.6560 ca        1 BMI     -0.230300
     11 C7         -1.9320   -0.3110    8.5520 ca        1 BMI     -0.235300
     12 C8         -0.3880    0.0320    6.3010 ca        1 BMI      0.376600
     13 N2         -0.2200   -1.1030    7.0230 nb        1 BMI     -0.653000
     14 C9         -0.9780   -1.2540    8.1220 ca        1 BMI      0.398200
     15 C10        -0.5130    0.7460    1.4760 cd        1 BMI     -0.395800
     16 C11        -8.9280    0.5980    2.4560 cc        1 BMI     -0.249600
     17 C12        -6.4800    0.2950    1.9700 ca        1 BMI     -0.007200
     18 C13        -5.2840   -0.0750    2.6040 ca        1 BMI     -0.104000
     19 N3         -7.7140   -0.1000    2.5260 na        1 BMI     -0.133000
     20 C14        -7.9680   -1.2720    3.2650 cc        1 BMI      0.396400
     21 N4         -9.2580   -1.3360    3.6510 nd        1 BMI     -0.669000
     22 C15        -9.8650   -0.1810    3.1560 cd        1 BMI      0.288200
     23 C16        -4.0780    0.3250    2.0200 ca        1 BMI      0.099400
     24 N5         -2.7490    1.3910    0.5110 na        1 BMI     -0.253300
     25 C17        -1.9720    0.7190    1.4870 cd        1 BMI      0.536100
     26 N6         -2.7500    0.0940    2.4130 nc        1 BMI     -0.636100
     27 C18        -4.0860    1.1160    0.8040 ca        1 BMI     -0.088200
     28 C19        -5.2870    1.4840    0.1790 ca        1 BMI     -0.050300
     29 C20        -6.4700    1.0620    0.7720 ca        1 BMI     -0.139000
     30 C21        -5.2810    2.2870   -1.0630 c3        1 BMI     -0.054800
     31 HN         -1.2960    0.4000    3.9800 hn        1 BMI      0.480800
     32 HN1         1.9990    0.9690   -0.7350 hn        1 BMI      0.339500
     33 H2          2.3400    0.4280    3.4000 ha        1 BMI      0.157000
     34 H3          3.3850    0.6680    1.1660 h4        1 BMI      0.157000
     35 H41         1.1470   -0.6650    4.9110 h1        1 BMI      0.064700
     36 H42         1.1450    1.1280    5.2720 h1        1 BMI      0.064700
     37 H5         -2.8300    1.6140    8.0970 ha        1 BMI      0.145000
     38 H6         -1.4160    1.9410    6.0450 ha        1 BMI      0.151000
     39 H7         -2.5270   -0.4950    9.4550 ha        1 BMI      0.149000
     40 H9         -0.8140   -2.1900    8.6870 h4        1 BMI      0.027100
     41 H13        -5.2770   -0.6630    3.5340 ha        1 BMI      0.153000
     42 H14        -7.1940   -2.0190    3.4670 h5        1 BMI      0.064100
     43 H15       -10.9210    0.0240    3.3260 h4        1 BMI      0.041100
     44 HN5        -2.4010    1.7140   -0.3600 hn        1 BMI      0.331700
     45 H20        -7.4260    1.3260    0.2920 ha        1 BMI      0.142000
     46 H211       -4.6540    1.7890   -1.8450 hc        1 BMI      0.048700
     47 H212       -6.3140    2.4130   -1.4690 hc        1 BMI      0.048700
     48 H213       -4.8530    3.3020   -0.8650 hc        1 BMI      0.048700
     49 H11        -9.0220    1.5550    1.9480 h4        1 BMI      0.178000
@<TRIPOS>BOND
     1    1    2 2   
     2    1    4 1   
     3    1   15 1   
     4    3    5 1   
     5    3    8 1   
     6    3   31 1   
     7    4    7 1   
     8    4   32 1   
     9    5    6 1   
    10    5   15 2   
    11    6    7 2   
    12    6   33 1   
    13    7   34 1   
    14    8   12 1   
    15    8   35 1   
    16    8   36 1   
    17    9   10 ar  
    18    9   11 ar  
    19    9   37 1   
    20   10   12 ar  
    21   10   38 1   
    22   11   14 ar  
    23   11   39 1   
    24   12   13 ar  
    25   13   14 ar  
    26   14   40 1   
    27   15   25 1   
    28   16   19 1   
    29   16   22 2   
    30   16   49 1   
    31   17   18 ar  
    32   17   19 1   
    33   17   29 ar  
    34   18   23 ar  
    35   18   41 1   
    36   19   20 1   
    37   20   21 2   
    38   20   42 1   
    39   21   22 1   
    40   22   43 1   
    41   23   26 1   
    42   23   27 ar  
    43   24   25 1   
    44   24   27 1   
    45   24   44 1   
    46   25   26 2   
    47   27   28 ar  
    48   28   29 ar  
    49   28   30 1   
    50   29   45 1   
    51   30   46 1   
    52   30   47 1   
    53   30   48 1   
@<TRIPOS>SUBSTRUCTURE
     1 BMI         1 TEMP              0 ****  ****    0 ROOT
