@<TRIPOS>MOLECULE
BML
   13    13     1     0     0
SMALL
bcc


@<TRIPOS>ATOM
      1 O1          0.0020   -0.2230   -0.2300 oh        1 BML     -0.493100
      2 C1          1.3670   -0.1400   -0.1040 ca        1 BML      0.138100
      3 C2          2.0180   -0.1720    1.1380 ca        1 BML     -0.187000
      4 C3          3.4060   -0.0820    1.1840 ca        1 BML     -0.066000
      5 C4          4.1440    0.0400    0.0040 ca        1 BML     -0.064900
      6 C5          3.4870    0.0720   -1.2320 ca        1 BML     -0.066000
      7 C6          2.1010   -0.0170   -1.2960 ca        1 BML     -0.187000
      8 BR4         6.0100    0.1600    0.0740 br        1 BML     -0.088100
      9 HO1        -0.3780   -0.3030    0.6570 ho        1 BML      0.422000
     10 H2          1.4380   -0.2690    2.0670 ha        1 BML      0.147500
     11 H3          3.9160   -0.1080    2.1610 ha        1 BML      0.148500
     12 H5          4.0630    0.1680   -2.1660 ha        1 BML      0.148500
     13 H6          1.5730    0.0070   -2.2600 ha        1 BML      0.147500
@<TRIPOS>BOND
     1    1    2 1   
     2    1    9 1   
     3    2    3 ar  
     4    2    7 ar  
     5    3    4 ar  
     6    3   10 1   
     7    4    5 ar  
     8    4   11 1   
     9    5    6 ar  
    10    5    8 1   
    11    6    7 ar  
    12    6   12 1   
    13    7   13 1   
@<TRIPOS>SUBSTRUCTURE
     1 BML         1 TEMP              0 ****  ****    0 ROOT
