@<TRIPOS>MOLECULE
BML
   13    11     1     0     0
SMALL
bcc


@<TRIPOS>ATOM
      1 O1         -2.5940    0.0660   -0.0000 oh        1 BML     -0.247000
      2 C1         -1.1870    0.0660   -0.0000 c2        1 BML      0.093000
      3 C2         -0.4940    0.0660    1.2000 c2        1 BML     -0.158000
      4 C3          0.8920    0.0660    1.2000 c1        1 BML     -0.069000
      5 C4          1.5850    0.0660    0.0000 c1        1 BML     -0.205000
      6 C5          0.8920    0.0660   -1.2000 c1        1 BML     -0.063000
      7 C6         -0.4940    0.0660   -1.2000 c1        1 BML     -0.216000
      8 BR4         3.4960    0.0420    0.0000 br        1 BML      0.052000
      9 HO1        -2.8900   -0.7710   -0.0000 ho        1 BML      0.221000
     10 H2         -0.9820    0.0660    2.0460 ha        1 BML      0.156000
     11 H3          1.3800    0.0660    2.0460 ha        1 BML      0.149000
     12 H5          1.3800    0.0660   -2.0460 ha        1 BML      0.148000
     13 H6         -0.9820    0.0660   -2.0460 ha        1 BML      0.139000
@<TRIPOS>BOND
     1    1    2 1   
     2    1    9 1   
     3    2    3 1   
     4    2    7 1   
     5    3    4 1   
     6    3   10 1   
     7    4   11 1   
     8    5    6 1   
     9    5    8 1   
    10    6   12 1   
    11    7   13 1   
@<TRIPOS>SUBSTRUCTURE
     1 BML         1 TEMP              0 ****  ****    0 ROOT
