@<TRIPOS>MOLECULE
BML
   13    13     1     0     0
SMALL
bcc


@<TRIPOS>ATOM
      1 O1         -0.2230    0.2120    3.9810 oh        1 BML     -0.493100
      2 C1         -0.1000    0.1300    2.6150 ca        1 BML      0.138100
      3 C2         -1.2960    0.0360    1.8820 ca        1 BML     -0.187000
      4 C3         -1.2360   -0.0510    0.4960 ca        1 BML     -0.066000
      5 C4         -0.0010   -0.0430   -0.1630 ca        1 BML     -0.064900
      6 C5          1.1830    0.0510    0.5740 ca        1 BML     -0.066000
      7 C6          1.1410    0.1380    1.9630 ca        1 BML     -0.187000
      8 BR4         0.0640   -0.1600   -2.0290 br        1 BML     -0.088100
      9 HO1         0.6670    0.2720    4.3590 ho        1 BML      0.422000
     10 H2         -2.2590    0.0310    2.4120 ha        1 BML      0.147500
     11 H3         -2.1720   -0.1250   -0.0790 ha        1 BML      0.148500
     12 H5          2.1600    0.0580    0.0630 ha        1 BML      0.148500
     13 H6          2.0730    0.2120    2.5410 ha        1 BML      0.147500
@<TRIPOS>BOND
     1    1    2 1   
     2    1    9 1   
     3    2    3 ar  
     4    2    7 ar  
     5    3    4 ar  
     6    3   10 1   
     7    4    5 ar  
     8    4   11 1   
     9    5    6 ar  
    10    5    8 1   
    11    6    7 ar  
    12    6   12 1   
    13    7   13 1   
@<TRIPOS>SUBSTRUCTURE
     1 BML         1 TEMP              0 ****  ****    0 ROOT
