@<TRIPOS>MOLECULE
BML
   13    13     1     0     0
SMALL
bcc


@<TRIPOS>ATOM
      1 O1         -0.0030   -0.1810   -0.2060 oh        1 BML     -0.493100
      2 C1          1.3650   -0.1200   -0.0930 ca        1 BML      0.138100
      3 C2          2.0280   -0.1860    1.1410 ca        1 BML     -0.187000
      4 C3          3.4180   -0.1170    1.1750 ca        1 BML     -0.066000
      5 C4          4.1450    0.0160   -0.0110 ca        1 BML     -0.064900
      6 C5          3.4760    0.0810   -1.2390 ca        1 BML     -0.066000
      7 C6          2.0890    0.0140   -1.2900 ca        1 BML     -0.187000
      8 Br4         6.0140    0.1080    0.0420 br        1 BML     -0.088100
      9 HO1        -0.3740   -0.2720    0.6830 ho        1 BML      0.422000
     10 H2          1.4560   -0.2910    2.0740 ha        1 BML      0.147500
     11 H3          3.9370   -0.1690    2.1450 ha        1 BML      0.148500
     12 H5          4.0450    0.1860   -2.1770 ha        1 BML      0.148500
     13 H6          1.5510    0.0640   -2.2480 ha        1 BML      0.147500
@<TRIPOS>BOND
     1    1    2 1   
     2    1    9 1   
     3    2    3 ar  
     4    2    7 ar  
     5    3    4 ar  
     6    3   10 1   
     7    4    5 ar  
     8    4   11 1   
     9    5    6 ar  
    10    5    8 1   
    11    6    7 ar  
    12    6   12 1   
    13    7   13 1   
@<TRIPOS>SUBSTRUCTURE
     1 BML         1 TEMP              0 ****  ****    0 ROOT
