@<TRIPOS>MOLECULE
BMM
    5     4     1     0     0
SMALL
bcc


@<TRIPOS>ATOM
      1 C1         -0.1870    0.0000    0.0000 c3        1 BMM     -0.039700
      2 BR          1.7250    0.0000    0.0000 br        1 BMM     -0.166400
      3 H11        -0.5130    0.0000    0.9200 h1        1 BMM      0.068700
      4 H12        -0.5130   -0.7970   -0.4600 h1        1 BMM      0.068700
      5 H13        -0.5130    0.7970   -0.4600 h1        1 BMM      0.068700
@<TRIPOS>BOND
     1    1    2 1   
     2    1    3 1   
     3    1    4 1   
     4    1    5 1   
@<TRIPOS>SUBSTRUCTURE
     1 BMM         1 TEMP              0 ****  ****    0 ROOT
