@<TRIPOS>MOLECULE
BMM
    5     4     1     0     0
SMALL
bcc


@<TRIPOS>ATOM
      1 C1         -0.5250    0.5280   -0.8050 c3        1 BMM     -0.039700
      2 BR         -1.9330    1.5640   -0.0480 br        1 BMM     -0.166400
      3 H11         0.1740    1.2090   -1.3340 h1        1 BMM      0.068700
      4 H12         0.0040   -0.0050    0.0120 h1        1 BMM      0.068700
      5 H13        -0.9620   -0.2010   -1.5180 h1        1 BMM      0.068700
@<TRIPOS>BOND
     1    1    2 1   
     2    1    3 1   
     3    1    4 1   
     4    1    5 1   
@<TRIPOS>SUBSTRUCTURE
     1 BMM         1 TEMP              0 ****  ****    0 ROOT
