@<TRIPOS>MOLECULE
BMN
   41    43     1     0     0
SMALL
bcc


@<TRIPOS>ATOM
      1 C1          1.7760    0.9780    0.3340 ca        1 BMN     -0.096300
      2 P          -4.1040   -0.5960   -0.9560 p5        1 BMN      1.329900
      3 C2          1.4280   -0.3260    0.0630 ca        1 BMN     -0.059000
      4 C3          2.4110   -1.3220   -0.1830 ca        1 BMN     -0.061000
      5 C4          3.7840   -0.9720   -0.1330 ca        1 BMN     -0.011000
      6 C5          4.1480    0.3700    0.1540 ca        1 BMN     -0.244000
      7 C6          3.1670    1.3160    0.3790 ca        1 BMN      0.137100
      8 C1'         0.7190    2.0210    0.5790 c3        1 BMN      0.193400
      9 C2'         0.1280    2.5500   -0.7330 c3        1 BMN     -0.113400
     10 C20         4.7610   -1.9750   -0.3750 ca        1 BMN     -0.149000
     11 O3'        -2.1940    2.8960   -1.2280 oh        1 BMN     -0.672800
     12 C21         4.3800   -3.2650   -0.6570 ca        1 BMN     -0.132000
     13 C22         3.0100   -3.6120   -0.7130 ca        1 BMN     -0.170000
     14 C23         2.0430   -2.6620   -0.4820 ca        1 BMN     -0.074000
     15 C3'        -1.2670    1.9120   -0.8290 c3        1 BMN      0.156100
     16 O37         3.4350    2.6450    0.6650 os        1 BMN     -0.319900
     17 C38         4.8050    3.0060    0.7320 c3        1 BMN      0.118700
     18 C4'        -1.5680    1.3920    0.5910 c3        1 BMN      0.058100
     19 O4'        -0.3400    1.4680    1.3590 os        1 BMN     -0.444600
     20 C5'        -2.0950   -0.0620    0.6250 c3        1 BMN      0.224400
     21 O5'        -3.4620   -0.0930    0.5840 os        1 BMN     -0.559200
     22 H2          0.3530   -0.6020    0.0400 ha        1 BMN      0.203000
     23 H5          5.2150    0.6220    0.1890 ha        1 BMN      0.116000
     24 H1'         1.1590    2.8520    1.1990 h1        1 BMN      0.044700
     25 H2'         0.0430    3.6630   -0.6980 hc        1 BMN      0.039200
     26 H2'A        0.7570    2.2720   -1.6100 hc        1 BMN      0.039200
     27 H20         5.8240   -1.6980   -0.3330 ha        1 BMN      0.108000
     28 HO3'       -2.9990    2.3940   -1.4970 ho        1 BMN      0.498000
     29 H21         5.1350   -4.0410   -0.8450 ha        1 BMN      0.106000
     30 H22         2.7280   -4.6480   -0.9480 ha        1 BMN      0.121000
     31 H23         0.9690   -2.9120   -0.5300 ha        1 BMN      0.170000
     32 H3'        -1.2760    1.0660   -1.5700 h1        1 BMN      0.092700
     33 H38         4.7800    4.0980    0.9760 h1        1 BMN      0.030700
     34 H38A        5.3290    2.4370    1.5400 h1        1 BMN      0.030700
     35 H38B        5.3110    2.8360   -0.2500 h1        1 BMN      0.030700
     36 H4'        -2.2980    2.0690    1.1090 h1        1 BMN      0.064700
     37 H5'        -1.6550   -0.6480   -0.2330 h1        1 BMN     -0.004300
     38 H5'A       -1.7320   -0.5160    1.5960 h1        1 BMN     -0.004300
     39 OP1        -3.6530    0.5940   -1.7800 o         1 BMN     -0.932167
     40 OP3        -3.3200   -1.8530   -1.2130 o         1 BMN     -0.932167
     41 OP2        -5.5740   -0.7270   -0.7000 o         1 BMN     -0.932167
@<TRIPOS>BOND
     1    1    3 ar  
     2    1    7 ar  
     3    1    8 1   
     4    2   21 1   
     5    2   39 1   
     6    2   40 1   
     7    2   41 1   
     8    3    4 ar  
     9    3   22 1   
    10    4    5 ar  
    11    4   14 ar  
    12    5    6 ar  
    13    5   10 ar  
    14    6    7 ar  
    15    6   23 1   
    16    7   16 1   
    17    8    9 1   
    18    8   19 1   
    19    8   24 1   
    20    9   15 1   
    21    9   25 1   
    22    9   26 1   
    23   10   12 ar  
    24   10   27 1   
    25   11   15 1   
    26   11   28 1   
    27   12   13 ar  
    28   12   29 1   
    29   13   14 ar  
    30   13   30 1   
    31   14   31 1   
    32   15   18 1   
    33   15   32 1   
    34   16   17 1   
    35   17   33 1   
    36   17   34 1   
    37   17   35 1   
    38   18   19 1   
    39   18   20 1   
    40   18   36 1   
    41   20   21 1   
    42   20   37 1   
    43   20   38 1   
@<TRIPOS>SUBSTRUCTURE
     1 BMN         1 TEMP              0 ****  ****    0 ROOT
