@<TRIPOS>MOLECULE
BMN
   41    37     1     0     0
SMALL
bcc


@<TRIPOS>ATOM
      1 C1          0.1090    0.8250   -0.0710 c1        1 BMN     -0.054000
      2 P          -2.6840   -4.1260   -1.4090 p3        1 BMN      2.520000
      3 C2          1.5040    0.7710   -0.0810 c1        1 BMN     -0.131500
      4 C3          2.2190    0.7280    1.1400 c1        1 BMN     -0.038000
      5 C4          1.5370    0.7400    2.3400 c1        1 BMN     -0.038000
      6 C5          0.1240    0.7950    2.3500 c1        1 BMN     -0.131500
      7 C6         -0.5810    0.8380    1.1460 c1        1 BMN      0.118000
      8 C1'        -0.7470    1.2300   -1.2840 c3        1 BMN      0.057000
      9 C2'        -0.0300    0.7710   -2.6430 c3        1 BMN     -0.192000
     10 C20         2.2520    0.7160    3.5580 c1        1 BMN     -0.131500
     11 O3'        -0.4690   -0.7930   -4.2580 oh        1 BMN     -0.418000
     12 C21         3.6450    0.6800    3.5480 c1        1 BMN     -0.152000
     13 C22         4.3350    0.6680    2.3340 c1        1 BMN     -0.152000
     14 C23         3.6300    0.6910    1.1310 c1        1 BMN     -0.131500
     15 C3'        -0.3190   -0.4710   -2.7970 c3        1 BMN      0.047000
     16 O37        -1.0590    1.6050    2.2460 os        1 BMN     -0.219000
     17 C38        -2.1830    2.4180    1.9370 c3        1 BMN     -0.077000
     18 C4'        -1.6620   -0.6570   -2.0680 c3        1 BMN     -0.053000
     19 O4'        -1.8740    0.6240   -1.2490 os        1 BMN     -0.293000
     20 C5'        -1.6070   -1.7770   -1.2190 c3        1 BMN      0.075000
     21 O5'        -1.7620   -2.9620   -1.9860 o         1 BMN     -0.727000
     22 H2          1.9890    0.8060   -0.9330 ha        1 BMN      0.131000
     23 H5         -0.3620    0.8030    3.2050 ha        1 BMN      0.131000
     24 H1'        -0.8880    2.2050   -1.2890 h1        1 BMN      0.064000
     25 H2'        -0.3740    1.2960   -3.4020 hc        1 BMN      0.077500
     26 H2'A        0.9440    0.8850   -2.5670 hc        1 BMN      0.077500
     27 H20         1.7680    0.7290    4.4120 ha        1 BMN      0.131000
     28 HO3'        0.3110   -1.0750   -4.5820 ho        1 BMN      0.310000
     29 H21         4.1420    0.6630    4.3940 ha        1 BMN      0.112500
     30 H22         5.3160    0.6430    2.3270 ha        1 BMN      0.112500
     31 H23         4.1160    0.7140    0.2780 ha        1 BMN      0.131000
     32 H3'         0.3730   -1.0360   -2.3900 h1        1 BMN      0.126000
     33 H38        -2.0860    3.2930    2.3770 h1        1 BMN      0.089000
     34 H38A       -3.0040    1.9800    2.2570 h1        1 BMN      0.089000
     35 H38B       -2.2380    2.5450    0.9670 h1        1 BMN      0.089000
     36 H4'        -2.3900   -0.7640   -2.7230 h1        1 BMN      0.098000
     37 H5'        -2.3290   -1.7200   -0.5540 h1        1 BMN      0.047000
     38 H5'A       -0.7400   -1.7970   -0.7590 h1        1 BMN      0.047000
     39 OP1        -4.1350   -3.7070   -1.4900 o         1 BMN     -1.247000
     40 OP3        -2.3150   -4.3920    0.0330 o         1 BMN     -1.247000
     41 OP2        -2.4760   -5.3840   -2.2230 o         1 BMN     -1.247000
@<TRIPOS>BOND
     1    1    7 1   
     2    1    8 1   
     3    2   39 1   
     4    2   40 1   
     5    2   41 1   
     6    3    4 1   
     7    3   22 1   
     8    4   14 1   
     9    5    6 1   
    10    5   10 1   
    11    6   23 1   
    12    7   16 1   
    13    8    9 1   
    14    8   19 1   
    15    8   24 1   
    16    9   15 1   
    17    9   25 1   
    18    9   26 1   
    19   10   27 1   
    20   11   15 1   
    21   11   28 1   
    22   12   13 1   
    23   12   29 1   
    24   13   30 1   
    25   14   31 1   
    26   15   18 1   
    27   15   32 1   
    28   16   17 1   
    29   17   33 1   
    30   17   34 1   
    31   17   35 1   
    32   18   19 1   
    33   18   20 1   
    34   18   36 1   
    35   20   21 1   
    36   20   37 1   
    37   20   38 1   
@<TRIPOS>SUBSTRUCTURE
     1 BMN         1 TEMP              0 ****  ****    0 ROOT
