@<TRIPOS>MOLECULE
BMO
   69    74     1     0     0
SMALL
bcc


@<TRIPOS>ATOM
      1 N17         0.6300    1.0740   -0.1350 ny        1 BMO     -0.762000
      2 C19         2.0600    0.8890    0.2560 c3        1 BMO      0.110300
      3 C36         2.3900    1.5330    1.5940 c3        1 BMO     -0.113400
      4 C22         3.8700    1.3100    1.9350 c3        1 BMO      0.170300
      5 N20         4.7670    2.0640    1.0830 nu        1 BMO     -0.758100
      6 C21         5.3950    1.3290    0.0320 ca        1 BMO      0.111600
      7 C27         6.2710    0.2420    0.2780 ca        1 BMO     -0.156300
      8 C26         6.6630   -0.1640    1.5920 ca        1 BMO     -0.149000
      9 C25         7.5020   -1.2230    1.7840 ca        1 BMO     -0.106750
     10 C24         8.0080   -1.9560    0.6710 ca        1 BMO     -0.120500
     11 C23         7.6780   -1.6030   -0.6020 ca        1 BMO     -0.159550
     12 C28         6.8040   -0.4760   -0.8530 ca        1 BMO      0.415350
     13 N29         6.5250   -0.1390   -2.1320 nb        1 BMO     -0.637000
     14 C31         5.7390    0.9360   -2.3650 ca        1 BMO      0.415350
     15 C30         5.1460    1.7170   -1.3090 ca        1 BMO     -0.156300
     16 C34         4.3570    2.8590   -1.6610 ca        1 BMO     -0.149000
     17 C35         4.1520    3.1990   -2.9670 ca        1 BMO     -0.106750
     18 C32         4.7160    2.4180   -4.0160 ca        1 BMO     -0.120500
     19 C33         5.4810    1.3270   -3.7360 ca        1 BMO     -0.159550
     20 C1          0.3360    0.4840   -1.4750 c3        1 BMO      0.110300
     21 C2         -1.1140    0.0600   -1.6460 c3        1 BMO     -0.113400
     22 C3         -2.1600    1.0620   -1.1460 c3        1 BMO      0.170300
     23 N1         -1.8070    2.4330   -1.4470 nu        1 BMO     -0.758100
     24 C4         -1.9050    3.3770   -0.3830 ca        1 BMO      0.111600
     25 C5         -3.0350    3.4960    0.4610 ca        1 BMO     -0.156300
     26 C6         -4.2610    2.7920    0.2440 ca        1 BMO     -0.149000
     27 C7         -5.3140    2.9210    1.1030 ca        1 BMO     -0.106750
     28 C8         -5.2180    3.7650    2.2470 ca        1 BMO     -0.120500
     29 C9         -4.0860    4.4830    2.4850 ca        1 BMO     -0.159550
     30 C10        -2.9530    4.3960    1.5870 ca        1 BMO      0.415350
     31 N2         -1.8690    5.1640    1.8340 nb        1 BMO     -0.637000
     32 C11        -0.8270    5.1160    0.9740 ca        1 BMO      0.415350
     33 C12         0.3070    5.9870    1.2040 ca        1 BMO     -0.159550
     34 C13         1.3700    5.9850    0.3530 ca        1 BMO     -0.120500
     35 C14         1.3860    5.1300   -0.7860 ca        1 BMO     -0.106750
     36 C15         0.3430    4.2850   -1.0340 ca        1 BMO     -0.149000
     37 C16        -0.7930    4.2350   -0.1650 ca        1 BMO     -0.156300
     38 H171        0.4130    2.0850   -0.1530 hn        1 BMO      0.456800
     39 H191        2.7010    1.3460   -0.5590 hx        1 BMO      0.108200
     40 H192        2.2690   -0.2180    0.2980 hx        1 BMO      0.108200
     41 H361        1.7780    1.0710    2.4130 hc        1 BMO      0.076700
     42 H362        2.1670    2.6330    1.5680 hc        1 BMO      0.076700
     43 H221        4.0750    0.2010    1.8970 h1        1 BMO      0.058950
     44 H222        4.0080    1.6460    3.0040 h1        1 BMO      0.058950
     45 HN20        5.4550    2.5610    1.6190 hn        1 BMO      0.409800
     46 H26         6.2990    0.4030    2.4620 ha        1 BMO      0.134500
     47 H25         7.8090   -1.5250    2.7970 ha        1 BMO      0.144500
     48 H24         8.6780   -2.8090    0.8630 ha        1 BMO      0.153000
     49 H23         8.0770   -2.1560   -1.4690 ha        1 BMO      0.166000
     50 H34         3.9430    3.4880   -0.8560 ha        1 BMO      0.134500
     51 H35         3.5660    4.0920   -3.2320 ha        1 BMO      0.144500
     52 H32         4.5340    2.7240   -5.0580 ha        1 BMO      0.153000
     53 H33         5.9360    0.7270   -4.5420 ha        1 BMO      0.166000
     54 H11         1.0030   -0.4140   -1.6230 hx        1 BMO      0.108200
     55 H12A        0.6080    1.2610   -2.2470 hx        1 BMO      0.108200
     56 H21        -1.2620   -0.1210   -2.7460 hc        1 BMO      0.076700
     57 H22        -1.2980   -0.9140   -1.1190 hc        1 BMO      0.076700
     58 H31        -3.1390    0.7680   -1.6290 h1        1 BMO      0.058950
     59 H32A       -2.2940    0.9270   -0.0340 h1        1 BMO      0.058950
     60 HN1        -2.2510    2.7730   -2.2790 hn        1 BMO      0.409800
     61 H6         -4.3710    2.1640   -0.6530 ha        1 BMO      0.134500
     62 H7         -6.2600    2.3860    0.9200 ha        1 BMO      0.144500
     63 H8         -6.0830    3.8340    2.9260 ha        1 BMO      0.153000
     64 H9         -4.0090    5.1550    3.3570 ha        1 BMO      0.166000
     65 H12         0.2760    6.6610    2.0780 ha        1 BMO      0.166000
     66 H13         2.2270    6.6570    0.5210 ha        1 BMO      0.153000
     67 H14         2.2510    5.1750   -1.4680 ha        1 BMO      0.144500
     68 H15         0.3460    3.6710   -1.9490 ha        1 BMO      0.134500
     69 H172        0.0260    0.6400    0.5700 hn        1 BMO      0.456800
@<TRIPOS>BOND
     1    1    2 1   
     2    1   20 1   
     3    1   38 1   
     4    1   69 1   
     5    2    3 1   
     6    2   39 1   
     7    2   40 1   
     8    3    4 1   
     9    3   41 1   
    10    3   42 1   
    11    4    5 1   
    12    4   43 1   
    13    4   44 1   
    14    5    6 1   
    15    5   45 1   
    16    6    7 ar  
    17    6   15 ar  
    18    7    8 ar  
    19    7   12 ar  
    20    8    9 ar  
    21    8   46 1   
    22    9   10 ar  
    23    9   47 1   
    24   10   11 ar  
    25   10   48 1   
    26   11   12 ar  
    27   11   49 1   
    28   12   13 ar  
    29   13   14 ar  
    30   14   15 ar  
    31   14   19 ar  
    32   15   16 ar  
    33   16   17 ar  
    34   16   50 1   
    35   17   18 ar  
    36   17   51 1   
    37   18   19 ar  
    38   18   52 1   
    39   19   53 1   
    40   20   21 1   
    41   20   54 1   
    42   20   55 1   
    43   21   22 1   
    44   21   56 1   
    45   21   57 1   
    46   22   23 1   
    47   22   58 1   
    48   22   59 1   
    49   23   24 1   
    50   23   60 1   
    51   24   25 ar  
    52   24   37 ar  
    53   25   26 ar  
    54   25   30 ar  
    55   26   27 ar  
    56   26   61 1   
    57   27   28 ar  
    58   27   62 1   
    59   28   29 ar  
    60   28   63 1   
    61   29   30 ar  
    62   29   64 1   
    63   30   31 ar  
    64   31   32 ar  
    65   32   33 ar  
    66   32   37 ar  
    67   33   34 ar  
    68   33   65 1   
    69   34   35 ar  
    70   34   66 1   
    71   35   36 ar  
    72   35   67 1   
    73   36   37 ar  
    74   36   68 1   
@<TRIPOS>SUBSTRUCTURE
     1 BMO         1 TEMP              0 ****  ****    0 ROOT
