@<TRIPOS>MOLECULE
BMO
   71    76     1     0     0
SMALL
bcc


@<TRIPOS>ATOM
      1 N17         0.9240    1.5050    0.5470 n4        1 BMO     -0.763000
      2 C19         2.4200    1.5950    0.5270 c3        1 BMO      0.108800
      3 C36         3.0930    0.2740    0.1540 c3        1 BMO     -0.135900
      4 C22         4.6080    0.4840    0.1830 c3        1 BMO      0.103800
      5 N20         5.3880   -0.7420   -0.1620 n4        1 BMO     -0.613900
      6 C21         6.8340   -0.4870   -0.1120 ca        1 BMO     -0.097400
      7 C27         7.5020   -0.0670   -1.2880 ca        1 BMO     -0.073800
      8 C26         6.8660    0.2110   -2.5300 ca        1 BMO     -0.229250
      9 C25         7.5980    0.5750   -3.6310 ca        1 BMO     -0.013250
     10 C24         9.0120    0.7010   -3.5580 ca        1 BMO     -0.129000
     11 C23         9.6700    0.4640   -2.3860 ca        1 BMO     -0.105550
     12 C28         8.9400    0.0700   -1.1990 ca        1 BMO      0.394600
     13 N29         9.6280   -0.1650   -0.0620 nb        1 BMO     -0.546500
     14 C31         8.9700   -0.5430    1.0550 ca        1 BMO      0.394600
     15 C30         7.5340   -0.7150    1.0970 ca        1 BMO     -0.073800
     16 C34         6.9300   -1.1090    2.3240 ca        1 BMO     -0.229250
     17 C35         7.6920   -1.3460    3.4400 ca        1 BMO     -0.013250
     18 C32         9.1040   -1.1910    3.4060 ca        1 BMO     -0.129000
     19 C33         9.7320   -0.7980    2.2590 ca        1 BMO     -0.105550
     20 C1          0.2990    2.8110    0.9330 c3        1 BMO      0.108800
     21 C2         -1.2260    2.7410    1.0030 c3        1 BMO     -0.135900
     22 C3         -1.7510    4.1090    1.4450 c3        1 BMO      0.103800
     23 N1         -3.2400    4.2300    1.3990 n4        1 BMO     -0.613900
     24 C4         -3.7800    4.2930    0.0360 ca        1 BMO     -0.097400
     25 C5         -3.7810    5.5360   -0.6410 ca        1 BMO     -0.073800
     26 C6         -3.2240    6.7410   -0.1260 ca        1 BMO     -0.229250
     27 C7         -3.3040    7.9130   -0.8320 ca        1 BMO     -0.013250
     28 C8         -3.9280    7.9550   -2.1100 ca        1 BMO     -0.129000
     29 C9         -4.4650    6.8270   -2.6560 ca        1 BMO     -0.105550
     30 C10        -4.4190    5.5680   -1.9410 ca        1 BMO      0.394600
     31 N2         -4.9920    4.4820   -2.4980 nb        1 BMO     -0.546500
     32 C11        -4.9850    3.3040   -1.8350 ca        1 BMO      0.394600
     33 C12        -5.6490    2.1670   -2.4360 ca        1 BMO     -0.105550
     34 C13        -5.6910    0.9670   -1.7880 ca        1 BMO     -0.129000
     35 C14        -5.0680    0.8090   -0.5200 ca        1 BMO     -0.013250
     36 C15        -4.4120    1.8550    0.0760 ca        1 BMO     -0.229250
     37 C16        -4.3670    3.1390   -0.5380 ca        1 BMO     -0.073800
     38 H171        0.6350    0.7780    1.2150 hn        1 BMO      0.462800
     39 H191        2.7060    2.3970   -0.2170 hx        1 BMO      0.123700
     40 H192        2.7590    1.9220    1.5540 hx        1 BMO      0.123700
     41 H361        2.7680   -0.0530   -0.8710 hc        1 BMO      0.093700
     42 H362        2.8010   -0.5310    0.8820 hc        1 BMO      0.093700
     43 H221        4.9070    1.2870   -0.5540 hx        1 BMO      0.120950
     44 H222        4.9400    0.8090    1.2140 hx        1 BMO      0.120950
     45 HN20        5.1670   -1.5000    0.4990 hn        1 BMO      0.468300
     46 H26         5.7740    0.1370   -2.6310 ha        1 BMO      0.103750
     47 H25         7.1000    0.7770   -4.5950 ha        1 BMO      0.166750
     48 H24         9.5680    0.9920   -4.4660 ha        1 BMO      0.184500
     49 H23        10.7700    0.5610   -2.3170 ha        1 BMO      0.194250
     50 H34         5.8410   -1.2310    2.4010 ha        1 BMO      0.103750
     51 H35         7.2190   -1.6640    4.3860 ha        1 BMO      0.166750
     52 H32         9.6850   -1.3960    4.3230 ha        1 BMO      0.184500
     53 H33        10.8300   -0.6720    2.2220 ha        1 BMO      0.194250
     54 H11         0.7180    3.1090    1.9390 hx        1 BMO      0.123700
     55 H12A        0.6150    3.5820    0.1690 hx        1 BMO      0.123700
     56 H21        -1.6620    2.4750   -0.0010 hc        1 BMO      0.093700
     57 H22        -1.5520    1.9540    1.7370 hc        1 BMO      0.093700
     58 H31        -1.3330    4.9170    0.7730 hx        1 BMO      0.120950
     59 H32A       -1.4290    4.3130    2.5080 hx        1 BMO      0.120950
     60 HN1        -3.6770    3.4440    1.9000 hn        1 BMO      0.468300
     61 H6         -2.7340    6.7600    0.8590 ha        1 BMO      0.103750
     62 H7         -2.8880    8.8490   -0.4160 ha        1 BMO      0.166750
     63 H8         -3.9760    8.9190   -2.6470 ha        1 BMO      0.184500
     64 H9         -4.9570    6.8480   -3.6470 ha        1 BMO      0.194250
     65 H12        -6.1330    2.3030   -3.4220 ha        1 BMO      0.194250
     66 H13        -6.2190    0.1050   -2.2340 ha        1 BMO      0.184500
     67 H14        -5.1310   -0.1730   -0.0210 ha        1 BMO      0.166750
     68 H15        -3.9440    1.6820    1.0560 ha        1 BMO      0.103750
     69 H172        0.5850    1.2280   -0.3850 hn        1 BMO      0.462800
     70 H202        5.1450   -1.0600   -1.1110 hn        1 BMO      0.468300
     71 H121       -3.5050    5.1050    1.8830 hn        1 BMO      0.468300
@<TRIPOS>BOND
     1    1    2 1   
     2    1   20 1   
     3    1   38 1   
     4    1   69 1   
     5    2    3 1   
     6    2   39 1   
     7    2   40 1   
     8    3    4 1   
     9    3   41 1   
    10    3   42 1   
    11    4    5 1   
    12    4   43 1   
    13    4   44 1   
    14    5    6 1   
    15    5   45 1   
    16    5   70 1   
    17    6    7 ar  
    18    6   15 ar  
    19    7    8 ar  
    20    7   12 ar  
    21    8    9 ar  
    22    8   46 1   
    23    9   10 ar  
    24    9   47 1   
    25   10   11 ar  
    26   10   48 1   
    27   11   12 ar  
    28   11   49 1   
    29   12   13 ar  
    30   13   14 ar  
    31   14   15 ar  
    32   14   19 ar  
    33   15   16 ar  
    34   16   17 ar  
    35   16   50 1   
    36   17   18 ar  
    37   17   51 1   
    38   18   19 ar  
    39   18   52 1   
    40   19   53 1   
    41   20   21 1   
    42   20   54 1   
    43   20   55 1   
    44   21   22 1   
    45   21   56 1   
    46   21   57 1   
    47   22   23 1   
    48   22   58 1   
    49   22   59 1   
    50   23   24 1   
    51   23   60 1   
    52   23   71 1   
    53   24   25 ar  
    54   24   37 ar  
    55   25   26 ar  
    56   25   30 ar  
    57   26   27 ar  
    58   26   61 1   
    59   27   28 ar  
    60   27   62 1   
    61   28   29 ar  
    62   28   63 1   
    63   29   30 ar  
    64   29   64 1   
    65   30   31 ar  
    66   31   32 ar  
    67   32   33 ar  
    68   32   37 ar  
    69   33   34 ar  
    70   33   65 1   
    71   34   35 ar  
    72   34   66 1   
    73   35   36 ar  
    74   35   67 1   
    75   36   37 ar  
    76   36   68 1   
@<TRIPOS>SUBSTRUCTURE
     1 BMO         1 TEMP              0 ****  ****    0 ROOT
