@<TRIPOS>MOLECULE
BMO
   68    73     1     0     0
SMALL
bcc


@<TRIPOS>ATOM
      1 N17        -5.6000    0.3200   -4.5150 n3        1 BMO     -0.825200
      2 C19        -4.2550    0.5810   -4.9880 c3        1 BMO      0.159800
      3 C36        -4.1700    0.6160   -6.5120 c3        1 BMO     -0.112900
      4 C22        -2.7640    0.9740   -6.9900 c3        1 BMO      0.184300
      5 N20        -1.7390   -0.0130   -6.7210 nh        1 BMO     -0.731600
      6 C21        -0.7290    0.2920   -5.7940 ca        1 BMO      0.209100
      7 C27         0.1280    1.4100   -6.0110 ca        1 BMO     -0.191550
      8 C26         0.0410    2.2530   -7.1630 ca        1 BMO     -0.101250
      9 C25         0.8620    3.3330   -7.3170 ca        1 BMO     -0.146750
     10 C24         1.8360    3.6450   -6.3280 ca        1 BMO     -0.115750
     11 C23         1.9880    2.8520   -5.2310 ca        1 BMO     -0.180050
     12 C28         1.1550    1.6830   -5.0400 ca        1 BMO      0.442600
     13 N29         1.3850    0.8960   -3.9650 nb        1 BMO     -0.689500
     14 C31         0.6110   -0.1990   -3.7890 ca        1 BMO      0.442600
     15 C30        -0.4790   -0.5420   -4.6640 ca        1 BMO     -0.191550
     16 C34        -1.2640   -1.6950   -4.3480 ca        1 BMO     -0.101250
     17 C35        -0.9840   -2.4710   -3.2590 ca        1 BMO     -0.146750
     18 C32         0.1090   -2.1510   -2.4080 ca        1 BMO     -0.115750
     19 C33         0.8820   -1.0570   -2.6550 ca        1 BMO     -0.180050
     20 C1         -5.6840    0.2030   -3.0730 c3        1 BMO      0.159800
     21 C2         -7.1120    0.2260   -2.5360 c3        1 BMO     -0.112900
     22 C3         -7.9790   -0.9320   -3.0290 c3        1 BMO      0.184300
     23 N1         -7.6160   -2.2400   -2.5270 nh        1 BMO     -0.731600
     24 C4         -7.1120   -3.2030   -3.4150 ca        1 BMO      0.209100
     25 C5         -7.8840   -3.6190   -4.5390 ca        1 BMO     -0.191550
     26 C6         -9.1960   -3.1240   -4.8170 ca        1 BMO     -0.101250
     27 C7         -9.8860   -3.5220   -5.9260 ca        1 BMO     -0.146750
     28 C8         -9.3120   -4.4530   -6.8360 ca        1 BMO     -0.115750
     29 C9         -8.0830   -4.9880   -6.5960 ca        1 BMO     -0.180050
     30 C10        -7.3280   -4.6120   -5.4190 ca        1 BMO      0.442600
     31 N2         -6.1410   -5.2210   -5.1940 nb        1 BMO     -0.689500
     32 C11        -5.4390   -4.8770   -4.0910 ca        1 BMO      0.442600
     33 C12        -4.1880   -5.5600   -3.8320 ca        1 BMO     -0.180050
     34 C13        -3.4230   -5.2300   -2.7560 ca        1 BMO     -0.115750
     35 C14        -3.8360   -4.2010   -1.8650 ca        1 BMO     -0.146750
     36 C15        -5.0120   -3.5390   -2.0690 ca        1 BMO     -0.101250
     37 C16        -5.8660   -3.8550   -3.1720 ca        1 BMO     -0.191550
     38 H171       -6.2340    1.0180   -4.8550 hn        1 BMO      0.355800
     39 H191       -3.8440    1.5540   -4.5820 h1        1 BMO      0.034700
     40 H192       -3.5910   -0.2450   -4.6000 h1        1 BMO      0.034700
     41 H361       -4.4870   -0.3740   -6.9340 hc        1 BMO      0.054950
     42 H362       -4.8710    1.3920   -6.9200 hc        1 BMO      0.054950
     43 H221       -2.8060    1.0900   -8.1130 h1        1 BMO      0.059700
     44 H222       -2.4700    1.9690   -6.5500 h1        1 BMO      0.059700
     45 HN20       -2.1170   -0.9330   -6.6130 hn        1 BMO      0.399300
     46 H26        -0.6800    2.0080   -7.9580 ha        1 BMO      0.131750
     47 H25         0.7910    3.9720   -8.2100 ha        1 BMO      0.135000
     48 H24         2.4700    4.5330   -6.4720 ha        1 BMO      0.134250
     49 H23         2.7510    3.0750   -4.4690 ha        1 BMO      0.150750
     50 H34        -2.1190   -1.9780   -4.9810 ha        1 BMO      0.131750
     51 H35        -1.6050   -3.3510   -3.0210 ha        1 BMO      0.135000
     52 H32         0.3180   -2.8040   -1.5470 ha        1 BMO      0.134250
     53 H33         1.7300   -0.7990   -2.0000 ha        1 BMO      0.150750
     54 H11        -5.1970   -0.7750   -2.7910 h1        1 BMO      0.034700
     55 H12A       -5.1080    1.0230   -2.5480 h1        1 BMO      0.034700
     56 H21        -7.0560    0.2190   -1.4160 hc        1 BMO      0.054950
     57 H22        -7.6200    1.1800   -2.8370 hc        1 BMO      0.054950
     58 H31        -9.0350   -0.7400   -2.6750 h1        1 BMO      0.059700
     59 H32A       -7.9840   -0.9340   -4.1560 h1        1 BMO      0.059700
     60 HN1        -7.1090   -2.1880   -1.6670 hn        1 BMO      0.399300
     61 H6         -9.6740   -2.4310   -4.1080 ha        1 BMO      0.131750
     62 H7        -10.8970   -3.1390   -6.1290 ha        1 BMO      0.135000
     63 H8         -9.8850   -4.7390   -7.7310 ha        1 BMO      0.134250
     64 H9         -7.6380   -5.7230   -7.2850 ha        1 BMO      0.150750
     65 H12        -3.8770   -6.3540   -4.5300 ha        1 BMO      0.150750
     66 H13        -2.4750   -5.7530   -2.5570 ha        1 BMO      0.134250
     67 H14        -3.1890   -3.9500   -1.0110 ha        1 BMO      0.135000
     68 H15        -5.2900   -2.7420   -1.3620 ha        1 BMO      0.131750
@<TRIPOS>BOND
     1    1    2 1   
     2    1   20 1   
     3    1   38 1   
     4    2    3 1   
     5    2   39 1   
     6    2   40 1   
     7    3    4 1   
     8    3   41 1   
     9    3   42 1   
    10    4    5 1   
    11    4   43 1   
    12    4   44 1   
    13    5    6 1   
    14    5   45 1   
    15    6    7 ar  
    16    6   15 ar  
    17    7    8 ar  
    18    7   12 ar  
    19    8    9 ar  
    20    8   46 1   
    21    9   10 ar  
    22    9   47 1   
    23   10   11 ar  
    24   10   48 1   
    25   11   12 ar  
    26   11   49 1   
    27   12   13 ar  
    28   13   14 ar  
    29   14   15 ar  
    30   14   19 ar  
    31   15   16 ar  
    32   16   17 ar  
    33   16   50 1   
    34   17   18 ar  
    35   17   51 1   
    36   18   19 ar  
    37   18   52 1   
    38   19   53 1   
    39   20   21 1   
    40   20   54 1   
    41   20   55 1   
    42   21   22 1   
    43   21   56 1   
    44   21   57 1   
    45   22   23 1   
    46   22   58 1   
    47   22   59 1   
    48   23   24 1   
    49   23   60 1   
    50   24   25 ar  
    51   24   37 ar  
    52   25   26 ar  
    53   25   30 ar  
    54   26   27 ar  
    55   26   61 1   
    56   27   28 ar  
    57   27   62 1   
    58   28   29 ar  
    59   28   63 1   
    60   29   30 ar  
    61   29   64 1   
    62   30   31 ar  
    63   31   32 ar  
    64   32   33 ar  
    65   32   37 ar  
    66   33   34 ar  
    67   33   65 1   
    68   34   35 ar  
    69   34   66 1   
    70   35   36 ar  
    71   35   67 1   
    72   36   37 ar  
    73   36   68 1   
@<TRIPOS>SUBSTRUCTURE
     1 BMO         1 TEMP              0 ****  ****    0 ROOT
