@<TRIPOS>MOLECULE
BMO
   69    74     1     0     0
SMALL
bcc


@<TRIPOS>ATOM
      1 N17         0.6100    1.0900   -0.1280 n4        1 BMO     -0.762000
      2 C19         2.0400    0.8770    0.2440 c3        1 BMO      0.110300
      3 C36         2.3990    1.5100    1.5800 c3        1 BMO     -0.113400
      4 C22         3.8790    1.2600    1.9020 c3        1 BMO      0.170300
      5 N20         4.7780    2.0020    1.0400 nh        1 BMO     -0.758100
      6 C21         5.3820    1.2590   -0.0200 ca        1 BMO      0.111600
      7 C27         6.2430    0.1580    0.2140 ca        1 BMO     -0.156300
      8 C26         6.6440   -0.2580    1.5230 ca        1 BMO     -0.149250
      9 C25         7.4680   -1.3300    1.7030 ca        1 BMO     -0.106750
     10 C24         7.9500   -2.0680    0.5830 ca        1 BMO     -0.120500
     11 C23         7.6110   -1.7070   -0.6860 ca        1 BMO     -0.159550
     12 C28         6.7520   -0.5660   -0.9240 ca        1 BMO      0.415350
     13 N29         6.4630   -0.2230   -2.1990 nb        1 BMO     -0.637000
     14 C31         5.6910    0.8650   -2.4210 ca        1 BMO      0.415350
     15 C30         5.1230    1.6540   -1.3570 ca        1 BMO     -0.156300
     16 C34         4.3480    2.8080   -1.6970 ca        1 BMO     -0.149250
     17 C35         4.1330    3.1540   -3.0000 ca        1 BMO     -0.106750
     18 C32         4.6720    2.3660   -4.0570 ca        1 BMO     -0.120500
     19 C33         5.4230    1.2620   -3.7880 ca        1 BMO     -0.159550
     20 C1          0.2870    0.5090   -1.4660 c3        1 BMO      0.110300
     21 C2         -1.1720    0.1140   -1.6210 c3        1 BMO     -0.113400
     22 C3         -2.1930    1.1340   -1.1050 c3        1 BMO      0.170300
     23 N1         -1.8170    2.4990   -1.4060 nh        1 BMO     -0.758100
     24 C4         -1.8830    3.4410   -0.3390 ca        1 BMO      0.111600
     25 C5         -3.0000    3.5800    0.5210 ca        1 BMO     -0.156300
     26 C6         -4.2420    2.8990    0.3180 ca        1 BMO     -0.149250
     27 C7         -5.2810    3.0460    1.1900 ca        1 BMO     -0.106750
     28 C8         -5.1540    3.8840    2.3360 ca        1 BMO     -0.120500
     29 C9         -4.0050    4.5800    2.5610 ca        1 BMO     -0.159550
     30 C10        -2.8860    4.4740    1.6480 ca        1 BMO      0.415350
     31 N2         -1.7850    5.2210    1.8830 nb        1 BMO     -0.637000
     32 C11        -0.7550    5.1560    1.0090 ca        1 BMO      0.415350
     33 C12         0.3980    6.0050    1.2280 ca        1 BMO     -0.159550
     34 C13         1.4500    5.9850    0.3620 ca        1 BMO     -0.120500
     35 C14         1.4350    5.1330   -0.7790 ca        1 BMO     -0.106750
     36 C15         0.3730    4.3090   -1.0160 ca        1 BMO     -0.149250
     37 C16        -0.7520    4.2780   -0.1320 ca        1 BMO     -0.156300
     38 H171        0.0060    0.6650    0.5830 hn        1 BMO      0.456800
     39 H191        2.2290   -0.2340    0.2810 hx        1 BMO      0.108200
     40 H192        2.6790    1.3240   -0.5770 hx        1 BMO      0.108200
     41 H361        1.7900    1.0560    2.4050 hc        1 BMO      0.076700
     42 H362        2.1950    2.6140    1.5610 hc        1 BMO      0.076700
     43 H221        4.0640    0.1470    1.8570 h1        1 BMO      0.058950
     44 H222        4.0360    1.5890    2.9700 h1        1 BMO      0.058950
     45 HN20        5.4800    2.4860    1.5690 hn        1 BMO      0.409800
     46 H26         6.2990    0.3140    2.3990 ha        1 BMO      0.134500
     47 H25         7.7830   -1.6390    2.7120 ha        1 BMO      0.144500
     48 H24         8.6090   -2.9320    0.7650 ha        1 BMO      0.153000
     49 H23         7.9910   -2.2650   -1.5580 ha        1 BMO      0.166000
     50 H34         3.9540    3.4420   -0.8870 ha        1 BMO      0.134500
     51 H35         3.5580    4.0570   -3.2570 ha        1 BMO      0.144500
     52 H32         4.4820    2.6770   -5.0970 ha        1 BMO      0.153000
     53 H33         5.8580    0.6560   -4.6010 ha        1 BMO      0.166000
     54 H11         0.9350   -0.4010   -1.6250 hx        1 BMO      0.108200
     55 H12A        0.5650    1.2840   -2.2390 hx        1 BMO      0.108200
     56 H21        -1.3680   -0.8580   -1.0940 hc        1 BMO      0.076700
     57 H22        -1.3370   -0.0600   -2.7190 hc        1 BMO      0.076700
     58 H31        -3.1830    0.8600   -1.5750 h1        1 BMO      0.058950
     59 H32A       -2.3150    0.9990    0.0090 h1        1 BMO      0.058950
     60 HN1        -2.2650    2.8500   -2.2310 hn        1 BMO      0.409800
     61 H6         -4.3760    2.2770   -0.5790 ha        1 BMO      0.134500
     62 H7         -6.2390    2.5290    1.0190 ha        1 BMO      0.144500
     63 H8         -6.0080    3.9680    3.0260 ha        1 BMO      0.153000
     64 H9         -3.9050    5.2480    3.4340 ha        1 BMO      0.166000
     65 H12         0.3920    6.6770    2.1030 ha        1 BMO      0.166000
     66 H13         2.3220    6.6400    0.5210 ha        1 BMO      0.153000
     67 H14         2.2920    5.1640   -1.4720 ha        1 BMO      0.144500
     68 H15         0.3520    3.6970   -1.9320 ha        1 BMO      0.134500
     69 H172        0.4120    2.1050   -0.1410 hn        1 BMO      0.456800
@<TRIPOS>BOND
     1    1    2 1   
     2    1   20 1   
     3    1   38 1   
     4    1   69 1   
     5    2    3 1   
     6    2   39 1   
     7    2   40 1   
     8    3    4 1   
     9    3   41 1   
    10    3   42 1   
    11    4    5 1   
    12    4   43 1   
    13    4   44 1   
    14    5    6 1   
    15    5   45 1   
    16    6    7 ar  
    17    6   15 ar  
    18    7    8 ar  
    19    7   12 ar  
    20    8    9 ar  
    21    8   46 1   
    22    9   10 ar  
    23    9   47 1   
    24   10   11 ar  
    25   10   48 1   
    26   11   12 ar  
    27   11   49 1   
    28   12   13 ar  
    29   13   14 ar  
    30   14   15 ar  
    31   14   19 ar  
    32   15   16 ar  
    33   16   17 ar  
    34   16   50 1   
    35   17   18 ar  
    36   17   51 1   
    37   18   19 ar  
    38   18   52 1   
    39   19   53 1   
    40   20   21 1   
    41   20   54 1   
    42   20   55 1   
    43   21   22 1   
    44   21   56 1   
    45   21   57 1   
    46   22   23 1   
    47   22   58 1   
    48   22   59 1   
    49   23   24 1   
    50   23   60 1   
    51   24   25 ar  
    52   24   37 ar  
    53   25   26 ar  
    54   25   30 ar  
    55   26   27 ar  
    56   26   61 1   
    57   27   28 ar  
    58   27   62 1   
    59   28   29 ar  
    60   28   63 1   
    61   29   30 ar  
    62   29   64 1   
    63   30   31 ar  
    64   31   32 ar  
    65   32   33 ar  
    66   32   37 ar  
    67   33   34 ar  
    68   33   65 1   
    69   34   35 ar  
    70   34   66 1   
    71   35   36 ar  
    72   35   67 1   
    73   36   37 ar  
    74   36   68 1   
@<TRIPOS>SUBSTRUCTURE
     1 BMO         1 TEMP              0 ****  ****    0 ROOT
