@<TRIPOS>MOLECULE
BMO
   68    62     1     0     0
SMALL
bcc


@<TRIPOS>ATOM
      1 N17         0.0450    0.9680    3.7870 n3        1 BMO     -0.300000
      2 C19         1.5730    1.0270    3.7450 c3        1 BMO     -0.071000
      3 C36         2.1390   -0.4110    3.5400 c3        1 BMO     -0.235000
      4 C22         3.2870   -0.3800    2.4770 c3        1 BMO     -0.060000
      5 N20         3.2610   -1.6640    1.6540 n3        1 BMO     -0.276000
      6 C21         3.9620   -1.7220    0.3890 c2        1 BMO      0.101000
      7 C27         5.2810   -2.1630    0.3100 c2        1 BMO     -0.099000
      8 C26         5.9210   -2.6490    1.4530 c1        1 BMO     -0.098000
      9 C25         7.2160   -3.1430    1.3670 c1        1 BMO     -0.122500
     10 C24         7.8780   -3.1550    0.1400 c1        1 BMO     -0.122500
     11 C23         7.2420   -2.6730   -0.9940 c1        1 BMO     -0.116000
     12 C28         5.9290   -2.1730   -0.9000 c1        1 BMO      0.041000
     13 N29         5.2680   -1.7430   -2.0410 n1        1 BMO     -0.152000
     14 C31         3.9460   -1.3000   -1.9630 c1        1 BMO      0.042000
     15 C30         3.3020   -1.2900   -0.7620 c1        1 BMO     -0.133000
     16 C34         1.9500   -0.8350   -0.6840 c1        1 BMO     -0.113000
     17 C35         1.3120   -0.4150   -1.7980 c1        1 BMO     -0.122500
     18 C32         1.9800   -0.4270   -3.0350 c1        1 BMO     -0.122500
     19 C33         3.2890   -0.8680   -3.1120 c1        1 BMO     -0.105000
     20 C1         -0.4940    1.6070    2.5890 c3        1 BMO     -0.070000
     21 C2         -1.5080    0.7340    1.9700 c3        1 BMO     -0.238000
     22 C3         -2.1470    1.4740    0.7390 c3        1 BMO     -0.060000
     23 N1         -2.8900    0.5450   -0.0440 n3        1 BMO     -0.276000
     24 C4         -3.9720    1.0240   -0.9140 c2        1 BMO      0.100000
     25 C5         -4.3690    2.3380   -1.1730 c2        1 BMO     -0.098000
     26 C6         -3.6050    3.4360   -0.6520 c2        1 BMO     -0.097000
     27 C7         -3.9740    4.7010   -0.9180 c1        1 BMO     -0.144000
     28 C8         -5.1120    4.9550   -1.7090 c1        1 BMO     -0.122500
     29 C9         -5.8740    3.8780   -2.2280 c1        1 BMO     -0.122500
     30 C10        -5.5020    2.5860   -1.9600 c1        1 BMO      0.040000
     31 N2         -6.2340    1.5250   -2.4840 n2        1 BMO     -0.153000
     32 C11        -5.8300    0.1740   -2.2200 c1        1 BMO      0.043000
     33 C12        -6.5300   -0.9040   -2.7900 c1        1 BMO     -0.122500
     34 C13        -6.0900   -2.2260   -2.5690 c1        1 BMO     -0.122500
     35 C14        -4.9640   -2.4650   -1.7870 c1        1 BMO     -0.122500
     36 C15        -4.2810   -1.4140   -1.2300 c1        1 BMO     -0.122500
     37 C16        -4.7230   -0.0680   -1.4510 c1        1 BMO     -0.130000
     38 H171       -0.2410    0.0320    3.8180 hn        1 BMO      0.160000
     39 H191        1.8300    1.5440    3.0760 h1        1 BMO      0.091500
     40 H192        1.9120    1.3940    4.5920 h1        1 BMO      0.091500
     41 H361        1.3570   -1.0540    3.2000 hc        1 BMO      0.085500
     42 H362        2.4780   -0.7300    4.3540 hc        1 BMO      0.085500
     43 H221        3.1560    0.3900    1.8790 h1        1 BMO      0.101500
     44 H222        4.2020   -0.2950    2.9600 h1        1 BMO      0.101500
     45 HN20        2.8240   -2.4160    1.9770 hn        1 BMO      0.185000
     46 H26         5.4120   -2.6320    2.4000 ha        1 BMO      0.144000
     47 H25         7.6340   -3.4560    2.1120 ha        1 BMO      0.138000
     48 H24         8.8440   -3.5250    0.0770 ha        1 BMO      0.138000
     49 H23         7.7730   -2.6750   -1.9780 ha        1 BMO      0.152000
     50 H34         1.4690   -0.8220    0.2150 ha        1 BMO      0.124000
     51 H35         0.4300   -0.1170   -1.7480 ha        1 BMO      0.138000
     52 H32         1.5290   -0.1250   -3.8270 ha        1 BMO      0.138000
     53 H33         3.7650   -0.8770   -3.9990 ha        1 BMO      0.154000
     54 H11         0.3040    1.7760    1.8880 h1        1 BMO      0.093500
     55 H12A       -0.8920    2.4390    2.8230 h1        1 BMO      0.093500
     56 H21        -2.2060    0.5280    2.6240 hc        1 BMO      0.086500
     57 H22        -1.0860   -0.0890    1.6720 hc        1 BMO      0.086500
     58 H31        -2.7130    2.1470    1.0450 h1        1 BMO      0.100500
     59 H32A       -1.4160    1.8800    0.1750 h1        1 BMO      0.100500
     60 HN1        -2.6420   -0.2770   -0.0830 hn        1 BMO      0.185000
     61 H6         -2.8160    3.2650   -0.1030 ha        1 BMO      0.143000
     62 H7         -3.4010    5.5200   -0.5300 ha        1 BMO      0.134000
     63 H8         -5.3790    5.8880   -1.9020 ha        1 BMO      0.138000
     64 H9         -6.6820    4.0620   -2.7890 ha        1 BMO      0.138000
     65 H12        -7.3770   -0.7270   -3.3760 ha        1 BMO      0.138000
     66 H13        -6.5800   -2.9830   -2.9700 ha        1 BMO      0.138000
     67 H14        -4.6630   -3.3710   -1.6350 ha        1 BMO      0.138000
     68 H15        -3.5060   -1.5810   -0.6890 ha        1 BMO      0.138000
@<TRIPOS>BOND
     1    1    2 1   
     2    1   20 1   
     3    1   38 1   
     4    2    3 1   
     5    2   39 1   
     6    2   40 1   
     7    3    4 1   
     8    3   41 1   
     9    3   42 1   
    10    4    5 1   
    11    4   43 1   
    12    4   44 1   
    13    5    6 1   
    14    5   45 1   
    15    6    7 1   
    16    6   15 1   
    17    7    8 1   
    18    7   12 1   
    19    8   46 1   
    20    9   10 1   
    21    9   47 1   
    22   10   48 1   
    23   11   12 1   
    24   11   49 1   
    25   13   14 1   
    26   14   19 1   
    27   15   16 1   
    28   16   50 1   
    29   17   18 1   
    30   17   51 1   
    31   18   52 1   
    32   19   53 1   
    33   20   21 1   
    34   20   54 1   
    35   20   55 1   
    36   21   22 1   
    37   21   56 1   
    38   21   57 1   
    39   22   23 1   
    40   22   58 1   
    41   22   59 1   
    42   23   24 1   
    43   23   60 1   
    44   24   25 1   
    45   24   37 1   
    46   25   26 1   
    47   25   30 1   
    48   26   27 1   
    49   26   61 1   
    50   27   62 1   
    51   28   29 1   
    52   28   63 1   
    53   29   64 1   
    54   30   31 1   
    55   31   32 1   
    56   32   37 1   
    57   33   34 1   
    58   33   65 1   
    59   34   66 1   
    60   35   36 1   
    61   35   67 1   
    62   36   68 1   
@<TRIPOS>SUBSTRUCTURE
     1 BMO         1 TEMP              0 ****  ****    0 ROOT
