@<TRIPOS>MOLECULE
BMP
   33    33     1     0     0
SMALL
bcc


@<TRIPOS>ATOM
      1 P          -1.1300    2.8060    3.9070 p4        1 BMP      1.699200
      2 OP1         0.1290    2.2500    4.5260 o         1 BMP     -0.913500
      3 OP2        -2.1410    3.1030    4.9980 os        1 BMP     -1.273000
      4 OP3        -0.8040    4.0860    3.1570 o         1 BMP     -0.962300
      5 O5'        -1.7480    1.7230    2.8810 os        1 BMP     -0.568200
      6 C5'        -0.8960    1.1950    1.8350 c3        1 BMP      0.204400
      7 C4'        -1.7850    0.6180    0.6790 c3        1 BMP      0.070100
      8 O4'        -1.1060    0.8670   -0.7060 os        1 BMP     -0.399600
      9 C3'        -1.8780   -0.6390    0.7790 c3        1 BMP      0.103100
     10 O3'        -3.1730   -1.0890    0.2690 oh        1 BMP     -0.689800
     11 C2'        -0.6560   -1.2660   -0.1420 c3        1 BMP      0.088100
     12 O2'        -0.9800   -2.6390   -0.5380 oh        1 BMP     -0.654800
     13 C1'        -0.5720   -0.5290   -1.1650 c3        1 BMP      0.283500
     14 N1          0.8120   -0.4220   -1.5970 n         1 BMP     -0.415000
     15 C2          1.5180    0.8470   -1.4710 c         1 BMP      0.825500
     16 O2          0.8990    1.8620   -1.2290 o         1 BMP     -0.581500
     17 N3          2.9530    0.9150   -1.7470 n         1 BMP     -0.599500
     18 C4          3.6190   -0.2000   -2.3290 c         1 BMP      0.736700
     19 O4          4.7670   -0.0860   -2.7220 o         1 BMP     -0.679500
     20 C5          2.8860   -1.4520   -2.5560 cc        1 BMP     -0.406200
     21 C6          1.4620   -1.5430   -2.1860 cd        1 BMP      0.312700
     22 O1          0.7190   -2.7110   -2.5000 oh        1 BMP     -0.513100
     23 H5'        -0.3340    0.4820    2.2000 h1        1 BMP      0.023200
     24 H5''       -0.3290    1.9100    1.4840 h1        1 BMP      0.023200
     25 H4'        -2.6740    1.0250    0.6990 h1        1 BMP      0.055700
     26 H3'        -1.7700   -0.9120    1.7130 h1        1 BMP      0.180700
     27 HO3'       -3.6990   -1.3160    0.9510 ho        1 BMP      0.507000
     28 H2'         0.1800   -1.2480    0.3520 h1        1 BMP      0.072700
     29 HO2'       -0.8900   -3.1830    0.1690 ho        1 BMP      0.447000
     30 H1'        -1.1270   -0.8840   -1.8850 h2        1 BMP      0.047700
     31 HN3         3.4270    1.6710   -1.5300 hn        1 BMP      0.341500
     32 H51         3.3220   -2.1990   -3.0170 ha        1 BMP      0.168000
     33 HO1         0.9990   -3.0410   -3.2800 ho        1 BMP      0.466000
@<TRIPOS>BOND
     1    1    2 1   
     2    1    4 2   
     3    1    5 1   
     4    5    6 1   
     5    6    7 1   
     6    6   23 1   
     7    6   24 1   
     8    7    8 1   
     9    7    9 1   
    10    7   25 1   
    11    8   13 1   
    12    9   10 1   
    13    9   11 1   
    14    9   26 1   
    15   10   27 1   
    16   11   12 1   
    17   11   13 1   
    18   11   28 1   
    19   12   29 1   
    20   13   14 1   
    21   13   30 1   
    22   14   15 1   
    23   14   21 1   
    24   15   16 2   
    25   15   17 1   
    26   17   18 1   
    27   17   31 1   
    28   18   19 2   
    29   18   20 1   
    30   20   21 2   
    31   20   32 1   
    32   21   22 1   
    33   22   33 1   
@<TRIPOS>SUBSTRUCTURE
     1 BMP         1 TEMP              0 ****  ****    0 ROOT
