@<TRIPOS>MOLECULE
BMP
   33    34     1     0     0
SMALL
bcc


@<TRIPOS>ATOM
      1 P           0.2570    1.2010   -3.9610 p5        1 BMP      1.333900
      2 OP1        -1.2340    1.2540   -3.8030 o         1 BMP     -0.926500
      3 OP2         0.8930    1.9280   -5.1010 o         1 BMP     -0.926500
      4 OP3         0.8650   -0.1340   -3.5690 o         1 BMP     -0.926500
      5 O5'         0.7770    2.1000   -2.5510 os        1 BMP     -0.548200
      6 C5'         0.2670    1.6230   -1.3800 c3        1 BMP      0.234400
      7 C4'         1.3440    0.8080   -0.6140 c3        1 BMP      0.046100
      8 O4'         1.1230    0.9820    0.8100 os        1 BMP     -0.459600
      9 C3'         1.3180   -0.7010   -0.9200 c3        1 BMP      0.123100
     10 O3'         2.4730   -1.0840   -1.6260 oh        1 BMP     -0.682800
     11 C2'         1.3110   -1.4110    0.4530 c3        1 BMP      0.094100
     12 O2'         2.3980   -2.2690    0.7020 oh        1 BMP     -0.608800
     13 C1'         1.3330   -0.2470    1.5010 c3        1 BMP      0.249500
     14 N1          0.3110   -0.3700    2.5500 n         1 BMP     -0.394000
     15 C2          0.7400   -0.5190    3.8940 c         1 BMP      0.821500
     16 O2          1.9520   -0.5520    4.2080 o         1 BMP     -0.661500
     17 N3         -0.2240   -0.6540    4.9050 n         1 BMP     -0.599500
     18 C4         -1.6110   -0.5860    4.6620 c         1 BMP      0.736700
     19 O4         -2.3800   -0.7190    5.6370 o         1 BMP     -0.680500
     20 C5         -2.0060   -0.3550    3.2920 cc        1 BMP     -0.423200
     21 C6         -1.0570   -0.2420    2.2920 cd        1 BMP      0.345700
     22 O1         -1.5400   -0.0530    1.0320 oh        1 BMP     -0.482100
     23 H5'        -0.6390    0.9750   -1.5620 h1        1 BMP      0.000200
     24 H5''       -0.0250    2.4820   -0.7070 h1        1 BMP      0.000200
     25 H4'         2.3590    1.2330   -0.8360 h1        1 BMP      0.078700
     26 H3'         0.4020   -0.9760   -1.5160 h1        1 BMP      0.123700
     27 HO3'        2.2870   -0.8620   -2.5730 ho        1 BMP      0.519000
     28 H2'         0.3920   -2.0470    0.5630 h1        1 BMP      0.063700
     29 HO2'        3.1110   -2.0380    0.0890 ho        1 BMP      0.433000
     30 H1'         2.3410   -0.2030    2.0110 h2        1 BMP      0.105700
     31 HN3         0.1120   -0.7840    5.8320 hn        1 BMP      0.333500
     32 H51        -3.0730   -0.2640    3.0650 ha        1 BMP      0.180000
     33 HO1        -0.8540    0.2620    0.4040 ho        1 BMP      0.497000
@<TRIPOS>BOND
     1    1    2 1   
     2    1    3 1   
     3    1    4 1   
     4    1    5 1   
     5    5    6 1   
     6    6    7 1   
     7    6   23 1   
     8    6   24 1   
     9    7    8 1   
    10    7    9 1   
    11    7   25 1   
    12    8   13 1   
    13    9   10 1   
    14    9   11 1   
    15    9   26 1   
    16   10   27 1   
    17   11   12 1   
    18   11   13 1   
    19   11   28 1   
    20   12   29 1   
    21   13   14 1   
    22   13   30 1   
    23   14   15 1   
    24   14   21 1   
    25   15   16 2   
    26   15   17 1   
    27   17   18 1   
    28   17   31 1   
    29   18   19 2   
    30   18   20 1   
    31   20   21 2   
    32   20   32 1   
    33   21   22 1   
    34   22   33 1   
@<TRIPOS>SUBSTRUCTURE
     1 BMP         1 TEMP              0 ****  ****    0 ROOT
