@<TRIPOS>MOLECULE
BMQ
   33    33     1     0     0
SMALL
bcc


@<TRIPOS>ATOM
      1 P          -0.0950   -2.1030    3.4670 p4        1 BMQ      1.672200
      2 O1P         1.2110   -2.7380    3.0550 o         1 BMQ     -0.926000
      3 O2P         0.0130   -1.6060    4.8890 os        1 BMQ     -1.229000
      4 O3P        -1.2030   -3.1250    3.3740 o         1 BMQ     -0.974800
      5 O5'        -0.4160   -0.8910    2.5080 os        1 BMQ     -0.560200
      6 C5'        -0.4120   -1.1150    1.1210 c3        1 BMQ      0.228400
      7 C4'        -1.7020   -0.5910    0.5200 c3        1 BMQ      0.043100
      8 O4'        -1.5650    0.9750    0.2020 os        1 BMQ     -0.392600
      9 C3'        -1.9340   -1.1730   -0.6110 c3        1 BMQ      0.117100
     10 O3'        -3.4030   -1.2800   -0.8440 oh        1 BMQ     -0.594800
     11 C2'        -1.2880   -0.2530   -1.6740 c3        1 BMQ      0.068100
     12 O2'        -2.1580   -0.0140   -2.6750 oh        1 BMQ     -0.591800
     13 C1'        -0.9490    1.0590   -0.9350 c3        1 BMQ      0.275500
     14 N1          0.4780    1.1620   -0.7250 n         1 BMQ     -0.522400
     15 C2          1.3780    0.7200   -1.7320 c         1 BMQ      0.831500
     16 O2          0.9930   -0.0400   -2.5980 o         1 BMQ     -0.705500
     17 N3          2.7020    1.2180   -1.7660 n         1 BMQ     -0.610500
     18 C4          3.1290    2.1560   -0.7990 c         1 BMQ      0.733500
     19 O4          4.1090    2.8420   -1.0100 o         1 BMQ     -0.637500
     20 C5          2.4100    2.2550    0.5260 c3        1 BMQ     -0.278400
     21 C6          0.9810    1.7480    0.4720 c         1 BMQ      0.758500
     22 O1          0.2470    1.8970    1.4290 o         1 BMQ     -0.575500
     23 H5'1       -0.3370   -2.0760    0.9450 h1        1 BMQ     -0.008300
     24 H5'2        0.3490   -0.6490    0.7170 h1        1 BMQ     -0.008300
     25 H4'        -2.4470   -0.7440    1.1350 h1        1 BMQ      0.146700
     26 H3'        -1.5190   -2.0580   -0.6290 h1        1 BMQ      0.092700
     27 HO3'       -3.6060   -2.1150   -1.0710 ho        1 BMQ      0.400000
     28 H2'        -0.4750   -0.6620   -2.0250 h1        1 BMQ      0.077700
     29 HO2'       -1.8390   -0.3540   -3.4330 ho        1 BMQ      0.402000
     30 H1'        -1.2750    1.8280   -1.4420 h2        1 BMQ      0.071700
     31 HN3         3.2750    0.9460   -2.4220 hn        1 BMQ      0.329500
     32 H51         2.4680    3.1490    0.9190 hc        1 BMQ      0.182200
     33 H52         2.8810    1.6330    1.1150 hc        1 BMQ      0.182200
@<TRIPOS>BOND
     1    1    2 1   
     2    1    4 2   
     3    1    5 1   
     4    5    6 1   
     5    6    7 1   
     6    6   23 1   
     7    6   24 1   
     8    7    8 1   
     9    7    9 1   
    10    7   25 1   
    11    8   13 1   
    12    9   10 1   
    13    9   11 1   
    14    9   26 1   
    15   10   27 1   
    16   11   12 1   
    17   11   13 1   
    18   11   28 1   
    19   12   29 1   
    20   13   14 1   
    21   13   30 1   
    22   14   15 1   
    23   14   21 1   
    24   15   16 2   
    25   15   17 1   
    26   17   18 1   
    27   17   31 1   
    28   18   19 2   
    29   18   20 1   
    30   20   21 1   
    31   20   32 1   
    32   20   33 1   
    33   21   22 2   
@<TRIPOS>SUBSTRUCTURE
     1 BMQ         1 TEMP              0 ****  ****    0 ROOT
