@<TRIPOS>MOLECULE
BMQ
   33    34     1     0     0
SMALL
bcc


@<TRIPOS>ATOM
      1 P           2.4670   -0.9010   -0.2320 p5        1 BMQ      1.357900
      2 O1P         1.1390   -1.5870    0.0210 o         1 BMQ     -0.926833
      3 O2P         2.7880    0.1170    0.8380 o         1 BMQ     -0.926833
      4 O3P         3.5630   -1.7360   -0.8030 o         1 BMQ     -0.926833
      5 O5'         2.0720    0.2190   -1.4930 os        1 BMQ     -0.568200
      6 C5'         0.7530    0.4940   -1.7140 c3        1 BMQ      0.221400
      7 C4'         0.2830    1.7950   -1.0230 c3        1 BMQ      0.057100
      8 O4'        -1.1490    1.9380   -1.2240 os        1 BMQ     -0.422600
      9 C3'         0.5310    1.8120    0.4990 c3        1 BMQ      0.085100
     10 O3'         1.5740    2.6930    0.8390 oh        1 BMQ     -0.659800
     11 C2'        -0.7990    2.2920    1.1080 c3        1 BMQ      0.099100
     12 O2'        -0.8930    3.6930    1.2730 oh        1 BMQ     -0.611800
     13 C1'        -1.8390    1.8570    0.0180 c3        1 BMQ      0.295500
     14 N1         -2.3830    0.5050    0.2340 n         1 BMQ     -0.525400
     15 C2         -2.8070    0.1480    1.5250 c         1 BMQ      0.826500
     16 O2         -3.1710    0.9890    2.3830 o         1 BMQ     -0.681500
     17 N3         -2.9400   -1.2180    1.8590 n         1 BMQ     -0.612500
     18 C4         -2.5010   -2.2600    1.0320 c         1 BMQ      0.741500
     19 O4         -2.6920   -3.4300    1.4120 o         1 BMQ     -0.657500
     20 C5         -1.8540   -1.8850   -0.2600 c3        1 BMQ     -0.317400
     21 C6         -2.2520   -0.5190   -0.7500 c         1 BMQ      0.747500
     22 O1         -2.4960   -0.2850   -1.9400 o         1 BMQ     -0.586500
     23 H5'1        0.5870    0.6440   -2.8210 h1        1 BMQ      0.000700
     24 H5'2        0.0910   -0.3500   -1.3670 h1        1 BMQ      0.000700
     25 H4'         0.7410    2.6920   -1.5130 h1        1 BMQ      0.048700
     26 H3'         0.7910    0.7580    0.8440 h1        1 BMQ      0.155700
     27 HO3'        2.3660    2.1190    0.9320 ho        1 BMQ      0.491000
     28 H2'        -1.0020    1.8510    2.1170 h1        1 BMQ      0.089700
     29 HO2'       -0.1830    4.0870    0.7480 ho        1 BMQ      0.416000
     30 H1'        -2.7060    2.5730   -0.0510 h2        1 BMQ      0.073700
     31 HN3        -3.2480   -1.4210    2.7830 hn        1 BMQ      0.326500
     32 H51        -0.6870   -1.8790   -0.1050 hc        1 BMQ      0.195200
     33 H52        -2.0620   -2.6570   -1.0410 hc        1 BMQ      0.195200
@<TRIPOS>BOND
     1    1    2 1   
     2    1    3 1   
     3    1    4 1   
     4    1    5 1   
     5    5    6 1   
     6    6    7 1   
     7    6   23 1   
     8    6   24 1   
     9    7    8 1   
    10    7    9 1   
    11    7   25 1   
    12    8   13 1   
    13    9   10 1   
    14    9   11 1   
    15    9   26 1   
    16   10   27 1   
    17   11   12 1   
    18   11   13 1   
    19   11   28 1   
    20   12   29 1   
    21   13   14 1   
    22   13   30 1   
    23   14   15 1   
    24   14   21 1   
    25   15   16 2   
    26   15   17 1   
    27   17   18 1   
    28   17   31 1   
    29   18   19 2   
    30   18   20 1   
    31   20   21 1   
    32   20   32 1   
    33   20   33 1   
    34   21   22 2   
@<TRIPOS>SUBSTRUCTURE
     1 BMQ         1 TEMP              0 ****  ****    0 ROOT
