@<TRIPOS>MOLECULE
BMR
   49    51     1     0     0
SMALL
bcc


@<TRIPOS>ATOM
      1 C1          0.0000    0.0000    0.0000 ca        1 BMR     -0.152300
      2 C2          1.3590    0.0000    0.0000 ca        1 BMR     -0.146000
      3 C3          2.0560    0.0000    1.2210 ca        1 BMR      0.001000
      4 C4          1.3300    0.0000    2.4380 ca        1 BMR      0.068000
      5 C5         -0.0740   -0.0000    2.4030 ca        1 BMR     -0.373000
      6 C6         -0.7190    0.0000    1.1990 ca        1 BMR      0.113100
      7 PA          2.5630   -0.7750   -6.0430 p5        1 BMR      0.950800
      8 PB          3.8810   -2.9820   -7.5180 p5        1 BMR      1.009800
      9 PC          5.3700   -5.5450   -7.5290 p5        1 BMR      0.847900
     10 C1'        -0.7430    0.0060   -1.3110 c3        1 BMR      0.245400
     11 O1A         3.8170   -0.0050   -5.3910 o         1 BMR     -0.701500
     12 O1B         5.1330   -2.2120   -7.6900 o         1 BMR     -0.684500
     13 O1C         5.5790   -5.4600   -8.9920 o         1 BMR     -0.620167
     14 C2'        -1.1220    1.4540   -1.7170 c3        1 BMR     -0.088400
     15 C20         2.0290   -0.0000    3.6570 ca        1 BMR     -0.268000
     16 C21         3.3900   -0.0020    3.6540 ca        1 BMR     -0.176000
     17 C22         4.1040   -0.0010    2.4560 ca        1 BMR     -0.139000
     18 C23         3.4620   -0.0010    1.2570 ca        1 BMR     -0.200000
     19 O2A         2.1580   -0.0900   -7.2910 o         1 BMR     -0.701500
     20 O2B         3.0660   -2.9970   -8.9070 o         1 BMR     -0.684500
     21 O2C         6.7460   -5.2010   -6.7690 o         1 BMR     -0.620167
     22 C3'        -1.2570    1.3350   -3.2540 c3        1 BMR      0.141100
     23 O3'        -2.6270    1.1750   -3.6250 oh        1 BMR     -0.593800
     24 O37        -2.0780    0.0000    1.1670 os        1 BMR     -0.317900
     25 C38        -2.7570   -0.0000    2.4250 c3        1 BMR      0.244700
     26 O3A         2.9800   -2.2950   -6.3750 os        1 BMR     -0.488800
     27 O3B         4.2350   -4.4930   -7.0880 os        1 BMR     -0.486800
     28 O3C         4.9000   -7.0350   -7.1400 o         1 BMR     -0.620167
     29 C4'        -0.4510    0.0710   -3.6080 c3        1 BMR      0.135100
     30 O4'         0.1170   -0.4300   -2.3850 os        1 BMR     -0.351600
     31 C5'         0.6650    0.4230   -4.5940 c3        1 BMR      0.307400
     32 O5'         1.3320   -0.7710   -5.0050 os        1 BMR     -0.489200
     33 H2          1.9010   -0.1020   -0.9330 ha        1 BMR      0.152000
     34 H5         -0.6380   -0.1150    3.3200 ha        1 BMR      0.093000
     35 H2'        -0.3320    2.1470   -1.4520 hc        1 BMR      0.018200
     36 H5'         1.3740    1.0870   -4.1150 h1        1 BMR     -0.027800
     37 H1'        -1.6280   -0.6170   -1.2590 h1        1 BMR      0.004700
     38 H2'A       -2.0660    1.7440   -1.2700 hc        1 BMR      0.018200
     39 H20         1.4870   -0.0010    4.5950 ha        1 BMR      0.068000
     40 H21         3.9260   -0.0020    4.5950 ha        1 BMR      0.051000
     41 H22         5.1870   -0.0000    2.4810 ha        1 BMR      0.063000
     42 H23         4.0300    0.0000    0.3350 ha        1 BMR      0.114000
     43 H3'        -0.8260    2.2040   -3.7380 h1        1 BMR      0.004700
     44 HO3'       -2.9290    1.9560   -4.0580 ho        1 BMR      0.359000
     45 H38        -3.8260    0.0430    2.2580 h1        1 BMR     -0.025300
     46 H4'        -1.1090   -0.6740   -4.0380 h1        1 BMR      0.024700
     47 H5'A        0.2390    0.9150   -5.4610 h1        1 BMR     -0.027800
     48 H38A       -2.4460    0.8610    3.0030 h1        1 BMR     -0.025300
     49 H38B       -2.5120   -0.9060    2.9670 h1        1 BMR     -0.025300
@<TRIPOS>BOND
     1    1    2 ar  
     2    1    6 ar  
     3    1   10 1   
     4    2    3 ar  
     5    2   33 1   
     6    3    4 ar  
     7    3   18 ar  
     8    4    5 ar  
     9    4   15 ar  
    10    5    6 ar  
    11    5   34 1   
    12    6   24 1   
    13    7   11 1   
    14    7   19 1   
    15    7   26 1   
    16    7   32 1   
    17    8   12 1   
    18    8   20 1   
    19    8   26 1   
    20    8   27 1   
    21    9   13 1   
    22    9   21 1   
    23    9   27 1   
    24    9   28 1   
    25   10   14 1   
    26   10   30 1   
    27   10   37 1   
    28   14   22 1   
    29   14   35 1   
    30   14   38 1   
    31   15   16 ar  
    32   15   39 1   
    33   16   17 ar  
    34   16   40 1   
    35   17   18 ar  
    36   17   41 1   
    37   18   42 1   
    38   22   23 1   
    39   22   29 1   
    40   22   43 1   
    41   23   44 1   
    42   24   25 1   
    43   25   45 1   
    44   25   48 1   
    45   25   49 1   
    46   29   30 1   
    47   29   31 1   
    48   29   46 1   
    49   31   32 1   
    50   31   36 1   
    51   31   47 1   
@<TRIPOS>SUBSTRUCTURE
     1 BMR         1 TEMP              0 ****  ****    0 ROOT
