@<TRIPOS>MOLECULE
BMS
   59    63     1     0     0
SMALL
bcc


@<TRIPOS>ATOM
      1 C5          0.0940    0.0550    0.1020 ca        1 BMS      0.014600
      2 C6          1.4310   -0.2290    0.4380 ca        1 BMS     -0.186000
      3 C7          1.8390   -0.1710    1.7700 ca        1 BMS     -0.090500
      4 C2          0.9460    0.1630    2.7890 ca        1 BMS     -0.135600
      5 C3         -0.3820    0.4460    2.4540 ca        1 BMS     -0.090500
      6 C4         -0.8130    0.3980    1.1340 ca        1 BMS     -0.186000
      7 C1          1.3990    0.2190    4.2390 c         1 BMS      0.909200
      8 O1          0.5400    0.5300    5.1140 o         1 BMS     -0.831300
      9 O2          2.6070   -0.0470    4.4940 o         1 BMS     -0.831300
     10 N1         -0.4020   -0.0050   -1.2200 n         1 BMS     -0.453100
     11 C8          0.3200   -0.0760   -2.3920 c         1 BMS      0.666700
     12 C9         -0.4950   -0.0350   -3.6510 ca        1 BMS     -0.133600
     13 C10        -0.0540    0.7650   -4.7050 ca        1 BMS     -0.079000
     14 C11        -0.7830    0.8520   -5.8990 ca        1 BMS     -0.083300
     15 C12        -1.9800    0.1310   -6.0330 ca        1 BMS     -0.052300
     16 C13        -2.3900   -0.7040   -4.9820 ca        1 BMS     -0.140000
     17 C14        -1.6630   -0.7880   -3.7990 ca        1 BMS     -0.108000
     18 O3          1.5620   -0.1660   -2.4540 o         1 BMS     -0.593100
     19 C15        -0.2770    1.7680   -6.9720 c3        1 BMS      0.033900
     20 C16        -0.9440    1.5000   -8.3160 c3        1 BMS     -0.072400
     21 C17        -2.4390    1.3870   -8.1550 c3        1 BMS     -0.070400
     22 C18        -2.8400    0.2060   -7.2670 c3        1 BMS     -0.006700
     23 C19        -4.3060    0.4020   -6.8810 c3        1 BMS     -0.084600
     24 C20        -2.7110   -1.0980   -8.0490 c3        1 BMS     -0.084600
     25 C21         1.2090    1.7100   -7.1260 ca        1 BMS     -0.192600
     26 C22         1.8470    0.4970   -7.5650 ca        1 BMS      0.427200
     27 N2          3.1430    0.3670   -7.7720 nb        1 BMS     -0.656000
     28 C23         3.9530    1.4650   -7.5390 ca        1 BMS      0.395600
     29 C24         3.4150    2.7090   -7.0880 ca        1 BMS     -0.143300
     30 C25         2.0070    2.8040   -6.8880 ca        1 BMS     -0.081000
     31 C26         5.3660    1.3670   -7.7420 ca        1 BMS     -0.163300
     32 C27         6.1750    2.4500   -7.5030 ca        1 BMS     -0.126000
     33 C28         5.6350    3.6770   -7.0530 ca        1 BMS     -0.129000
     34 C29         4.2820    3.8040   -6.8490 ca        1 BMS     -0.109000
     35 H6          2.1600   -0.4920   -0.3430 ha        1 BMS      0.125000
     36 H7          2.8840   -0.3910    2.0440 ha        1 BMS      0.154000
     37 H3         -1.0790    0.7100    3.2670 ha        1 BMS      0.154000
     38 H4         -1.8630    0.6260    0.9010 ha        1 BMS      0.125000
     39 H          -1.3850    0.1320   -1.3050 hn        1 BMS      0.305500
     40 H10         0.8900    1.3260   -4.5930 ha        1 BMS      0.159000
     41 H13        -3.3050   -1.3060   -5.0910 ha        1 BMS      0.131000
     42 H14        -2.0050   -1.4560   -2.9940 ha        1 BMS      0.142000
     43 H15        -0.5600    2.8170   -6.6520 hc        1 BMS      0.061700
     44 H161       -0.5340    0.5580   -8.7670 hc        1 BMS      0.046700
     45 H162       -0.7010    2.3400   -9.0190 hc        1 BMS      0.046700
     46 H171       -2.8370    2.3350   -7.7040 hc        1 BMS      0.042700
     47 H172       -2.9190    1.2650   -9.1610 hc        1 BMS      0.042700
     48 H191       -4.4070    1.2390   -6.1500 hc        1 BMS      0.036700
     49 H192       -4.7250   -0.5250   -6.4230 hc        1 BMS      0.036700
     50 H193       -4.9070    0.6450   -7.7900 hc        1 BMS      0.036700
     51 H201       -3.0040   -1.9620   -7.4050 hc        1 BMS      0.036700
     52 H202       -3.3770   -1.0750   -8.9440 hc        1 BMS      0.036700
     53 H203       -1.6580   -1.2500   -8.3870 hc        1 BMS      0.036700
     54 H22         1.2300   -0.4050   -7.7370 h4        1 BMS      0.027100
     55 H25         1.5840    3.7590   -6.5400 ha        1 BMS      0.138000
     56 H26         5.7900    0.4100   -8.0840 ha        1 BMS      0.148000
     57 H27         7.2630    2.3720   -7.6530 ha        1 BMS      0.131000
     58 H28         6.3120    4.5220   -6.8620 ha        1 BMS      0.132000
     59 H29         3.8510    4.7520   -6.4910 ha        1 BMS      0.133000
@<TRIPOS>BOND
     1    1    2 ar  
     2    1    6 ar  
     3    1   10 1   
     4    2    3 ar  
     5    2   35 1   
     6    3    4 ar  
     7    3   36 1   
     8    4    5 ar  
     9    4    7 1   
    10    5    6 ar  
    11    5   37 1   
    12    6   38 1   
    13    7    8 1   
    14    7    9 1   
    15   10   11 1   
    16   10   39 1   
    17   11   12 1   
    18   11   18 2   
    19   12   13 ar  
    20   12   17 ar  
    21   13   14 ar  
    22   13   40 1   
    23   14   15 ar  
    24   14   19 1   
    25   15   16 ar  
    26   15   22 1   
    27   16   17 ar  
    28   16   41 1   
    29   17   42 1   
    30   19   20 1   
    31   19   25 1   
    32   19   43 1   
    33   20   21 1   
    34   20   44 1   
    35   20   45 1   
    36   21   22 1   
    37   21   46 1   
    38   21   47 1   
    39   22   23 1   
    40   22   24 1   
    41   23   48 1   
    42   23   49 1   
    43   23   50 1   
    44   24   51 1   
    45   24   52 1   
    46   24   53 1   
    47   25   26 ar  
    48   25   30 ar  
    49   26   27 ar  
    50   26   54 1   
    51   27   28 ar  
    52   28   29 ar  
    53   28   31 ar  
    54   29   30 ar  
    55   29   34 ar  
    56   30   55 1   
    57   31   32 ar  
    58   31   56 1   
    59   32   33 ar  
    60   32   57 1   
    61   33   34 ar  
    62   33   58 1   
    63   34   59 1   
@<TRIPOS>SUBSTRUCTURE
     1 BMS         1 TEMP              0 ****  ****    0 ROOT
