@<TRIPOS>MOLECULE
BMS
   59    63     1     0     0
SMALL
bcc


@<TRIPOS>ATOM
      1 C5          0.9440    0.0210    3.8790 ca        1 BMS      0.014600
      2 C6         -0.2510    0.6000    4.3450 ca        1 BMS     -0.186000
      3 C7         -0.6110    0.4650    5.6860 ca        1 BMS     -0.090500
      4 C2          0.1930   -0.2350    6.5860 ca        1 BMS     -0.135600
      5 C3          1.3800   -0.8120    6.1210 ca        1 BMS     -0.090500
      6 C4          1.7590   -0.6940    4.7900 ca        1 BMS     -0.186000
      7 C1         -0.2050   -0.3740    8.0470 c         1 BMS      0.909200
      8 O1          0.5670   -1.0220    8.8100 o         1 BMS     -0.831300
      9 O2         -1.2840    0.1660    8.4210 o         1 BMS     -0.831300
     10 N1          1.3890    0.1340    2.5430 n         1 BMS     -0.453100
     11 C8          0.6690    0.5520    1.4450 c         1 BMS      0.666700
     12 C9          1.3960    0.4740    0.1340 ca        1 BMS     -0.133600
     13 C10         0.7180   -0.0300   -0.9750 ca        1 BMS     -0.079000
     14 C11         1.3520   -0.1370   -2.2210 ca        1 BMS     -0.083300
     15 C12         2.6930    0.2600   -2.3520 ca        1 BMS     -0.052300
     16 C13         3.3500    0.8050   -1.2380 ca        1 BMS     -0.140000
     17 C14         2.7160    0.9110   -0.0050 ca        1 BMS     -0.108000
     18 O3         -0.5040    0.9710    1.4840 o         1 BMS     -0.593100
     19 C15         0.5800   -0.7340   -3.3590 c3        1 BMS      0.033900
     20 C16         1.2420   -0.4630   -4.7050 c3        1 BMS     -0.072400
     21 C17         2.7190   -0.7650   -4.6410 c3        1 BMS     -0.070400
     22 C18         3.4540    0.1350   -3.6450 c3        1 BMS     -0.006700
     23 C19         4.8270   -0.4870   -3.3940 c3        1 BMS     -0.084600
     24 C20         3.6490    1.5230   -4.2480 c3        1 BMS     -0.084600
     25 C21        -0.8420   -0.2730   -3.3950 ca        1 BMS     -0.192600
     26 C22        -1.1520    1.1120   -3.6340 ca        1 BMS      0.427200
     27 N2         -2.3730    1.6000   -3.7280 nb        1 BMS     -0.656000
     28 C23        -3.4360    0.7260   -3.5720 ca        1 BMS      0.395600
     29 C24        -3.2310   -0.6640   -3.3180 ca        1 BMS     -0.143300
     30 C25        -1.8920   -1.1460   -3.2350 ca        1 BMS     -0.081000
     31 C26        -4.7790    1.2130   -3.6570 ca        1 BMS     -0.163300
     32 C27        -5.8370    0.3530   -3.4930 ca        1 BMS     -0.126000
     33 C28        -5.6250   -1.0220   -3.2380 ca        1 BMS     -0.129000
     34 C29        -4.3480   -1.5210   -3.1520 ca        1 BMS     -0.109000
     35 H6         -0.9080    1.1560    3.6590 ha        1 BMS      0.125000
     36 H7         -1.5450    0.9150    6.0610 ha        1 BMS      0.154000
     37 H3          2.0060   -1.3640    6.8410 ha        1 BMS      0.154000
     38 H4          2.6970   -1.1590    4.4540 ha        1 BMS      0.125000
     39 H           2.2950   -0.2430    2.3700 hn        1 BMS      0.305500
     40 H10        -0.3370   -0.3360   -0.8660 ha        1 BMS      0.159000
     41 H13         4.3880    1.1580   -1.3390 ha        1 BMS      0.131000
     42 H14         3.2540    1.3490    0.8500 ha        1 BMS      0.142000
     43 H15         0.5870   -1.8540   -3.1940 hc        1 BMS      0.061700
     44 H161        1.0830    0.6070   -5.0030 hc        1 BMS      0.046700
     45 H162        0.7580   -1.1040   -5.4870 hc        1 BMS      0.046700
     46 H171        3.1750   -0.6330   -5.6570 hc        1 BMS      0.042700
     47 H172        2.8650   -1.8370   -4.3420 hc        1 BMS      0.042700
     48 H191        5.4960    0.2260   -2.8560 hc        1 BMS      0.036700
     49 H192        4.7280   -1.4150   -2.7830 hc        1 BMS      0.036700
     50 H193        5.3070   -0.7480   -4.3690 hc        1 BMS      0.036700
     51 H201        4.1860    2.1830   -3.5250 hc        1 BMS      0.036700
     52 H202        4.2510    1.4520   -5.1850 hc        1 BMS      0.036700
     53 H203        2.6640    1.9900   -4.4870 hc        1 BMS      0.036700
     54 H22        -0.3240    1.8390   -3.7400 h4        1 BMS      0.027100
     55 H25        -1.7250   -2.2160   -3.0390 ha        1 BMS      0.138000
     56 H26        -4.9470    2.2840   -3.8470 ha        1 BMS      0.148000
     57 H27        -6.8700    0.7290   -3.5510 ha        1 BMS      0.131000
     58 H28        -6.4950   -1.6810   -3.1030 ha        1 BMS      0.132000
     59 H29        -4.1700   -2.5870   -2.9460 ha        1 BMS      0.133000
@<TRIPOS>BOND
     1    1    2 ar  
     2    1    6 ar  
     3    1   10 1   
     4    2    3 ar  
     5    2   35 1   
     6    3    4 ar  
     7    3   36 1   
     8    4    5 ar  
     9    4    7 1   
    10    5    6 ar  
    11    5   37 1   
    12    6   38 1   
    13    7    8 1   
    14    7    9 1   
    15   10   11 1   
    16   10   39 1   
    17   11   12 1   
    18   11   18 2   
    19   12   13 ar  
    20   12   17 ar  
    21   13   14 ar  
    22   13   40 1   
    23   14   15 ar  
    24   14   19 1   
    25   15   16 ar  
    26   15   22 1   
    27   16   17 ar  
    28   16   41 1   
    29   17   42 1   
    30   19   20 1   
    31   19   25 1   
    32   19   43 1   
    33   20   21 1   
    34   20   44 1   
    35   20   45 1   
    36   21   22 1   
    37   21   46 1   
    38   21   47 1   
    39   22   23 1   
    40   22   24 1   
    41   23   48 1   
    42   23   49 1   
    43   23   50 1   
    44   24   51 1   
    45   24   52 1   
    46   24   53 1   
    47   25   26 ar  
    48   25   30 ar  
    49   26   27 ar  
    50   26   54 1   
    51   27   28 ar  
    52   28   29 ar  
    53   28   31 ar  
    54   29   30 ar  
    55   29   34 ar  
    56   30   55 1   
    57   31   32 ar  
    58   31   56 1   
    59   32   33 ar  
    60   32   57 1   
    61   33   34 ar  
    62   33   58 1   
    63   34   59 1   
@<TRIPOS>SUBSTRUCTURE
     1 BMS         1 TEMP              0 ****  ****    0 ROOT
