@<TRIPOS>MOLECULE
BMS
   59    54     1     0     0
SMALL
bcc


@<TRIPOS>ATOM
      1 C5          3.5520    2.1840    2.9150 c1        1 BMS      0.023000
      2 C6          3.0280    2.8470    4.0070 c1        1 BMS     -0.136500
      3 C7          3.7640    2.9480    5.1810 c1        1 BMS     -0.136500
      4 C2          5.0320    2.3810    5.2610 c1        1 BMS     -0.115000
      5 C3          5.5640    1.7150    4.1700 c1        1 BMS     -0.092000
      6 C4          4.8270    1.6130    2.9910 c1        1 BMS     -0.169000
      7 C1          5.8240    2.4370    6.6010 c2        1 BMS      0.358000
      8 O1          6.5220    3.4780    6.8920 o         1 BMS     -0.566500
      9 O2          5.7970    1.4190    7.4170 o         1 BMS     -0.566500
     10 N1          2.8280    2.1880    1.6480 n         1 BMS     -0.305000
     11 C8          2.0170    1.0650    1.2860 c2        1 BMS      0.342000
     12 C9          1.2800    1.0660   -0.0200 c2        1 BMS     -0.114000
     13 C10         0.4820   -0.0530   -0.3860 c2        1 BMS     -0.078000
     14 C11        -0.1740   -0.0630   -1.5950 c1        1 BMS     -0.076000
     15 C12        -0.0490    1.0720   -2.4990 c1        1 BMS     -0.044000
     16 C13         0.7340    2.1660   -2.1360 c1        1 BMS     -0.140000
     17 C14         1.4020    2.1740   -0.9010 c1        1 BMS     -0.107000
     18 O3          1.9330    0.1180    2.0250 o         1 BMS     -0.360000
     19 C15        -1.2890   -1.1930   -1.9480 c3        1 BMS     -0.020000
     20 C16        -2.1580   -0.9020   -3.0090 c3        1 BMS     -0.151000
     21 C17        -1.5940   -0.1970   -4.1430 c3        1 BMS     -0.149000
     22 C18        -0.8780    1.0320   -3.8550 c3        1 BMS     -0.014000
     23 C19         0.0870    1.2930   -4.9980 c3        1 BMS     -0.202500
     24 C20        -1.8850    2.1550   -3.8270 c3        1 BMS     -0.202500
     25 C21        -2.1550   -1.4410   -0.6560 c2        1 BMS     -0.120000
     26 C22        -2.1570   -1.0530    0.6760 c2        1 BMS     -0.041000
     27 N2         -2.7210   -1.8600    1.6190 n1        1 BMS     -0.131000
     28 C23        -3.2900   -3.0620    1.2480 c1        1 BMS     -0.039500
     29 C24        -3.2880   -3.4470   -0.0750 c1        1 BMS     -0.039500
     30 C25        -2.7200   -2.6340   -1.0240 c1        1 BMS     -0.080000
     31 C26        -3.8840   -3.9070    2.2360 c1        1 BMS     -0.103500
     32 C27        -4.4580   -5.1160    1.8620 c1        1 BMS     -0.136500
     33 C28        -4.4550   -5.5060    0.5190 c1        1 BMS     -0.136500
     34 C29        -3.8720   -4.6760   -0.4530 c1        1 BMS     -0.103500
     35 H6          2.0950    3.2660    3.9520 ha        1 BMS      0.130000
     36 H7          3.3930    3.4150    5.9430 ha        1 BMS      0.130000
     37 H3          6.4710    1.3110    4.2280 ha        1 BMS      0.155000
     38 H4          5.2540    1.2390    2.1700 ha        1 BMS      0.147000
     39 H           2.8120    2.9760    1.1150 hn        1 BMS      0.221000
     40 H10         0.4780   -0.8560    0.1800 ha        1 BMS      0.158000
     41 H13         0.8190    2.9260   -2.7390 ha        1 BMS      0.131000
     42 H14         2.0680    2.8930   -0.7030 ha        1 BMS      0.142000
     43 H15        -0.8230   -2.0200   -2.1620 hc        1 BMS      0.103000
     44 H161       -2.5310   -1.7500   -3.3370 hc        1 BMS      0.085500
     45 H162       -2.9040   -0.3580   -2.6520 hc        1 BMS      0.085500
     46 H171       -0.9430   -0.8270   -4.5960 hc        1 BMS      0.082000
     47 H172       -2.3450    0.0330   -4.7560 hc        1 BMS      0.082000
     48 H191        0.7550    0.5910   -5.0240 hc        1 BMS      0.075833
     49 H192        0.5220    2.1480   -4.8630 hc        1 BMS      0.075833
     50 H193       -0.4060    1.3080   -5.8450 hc        1 BMS      0.075833
     51 H201       -2.3730    2.1390   -2.9730 hc        1 BMS      0.075833
     52 H202       -2.5100    2.0440   -4.5540 hc        1 BMS      0.075833
     53 H203       -1.4160    3.0220   -3.9260 hc        1 BMS      0.075833
     54 H22        -1.8610   -0.2060    0.9100 h4        1 BMS      0.163000
     55 H25        -2.7780   -2.8730   -1.9640 ha        1 BMS      0.140000
     56 H26        -3.8050   -3.6780    3.1800 ha        1 BMS      0.141000
     57 H27        -4.8930   -5.6830    2.5360 ha        1 BMS      0.130000
     58 H28        -4.8520   -6.3450    0.2600 ha        1 BMS      0.130000
     59 H29        -3.8720   -4.9550   -1.4080 ha        1 BMS      0.141000
@<TRIPOS>BOND
     1    1    6 1   
     2    1   10 1   
     3    2    3 1   
     4    2   35 1   
     5    3   36 1   
     6    4    5 1   
     7    4    7 1   
     8    5   37 1   
     9    6   38 1   
    10    7    8 1   
    11    7    9 1   
    12   10   11 1   
    13   10   39 1   
    14   11   12 1   
    15   11   18 1   
    16   12   13 1   
    17   12   17 1   
    18   13   14 1   
    19   13   40 1   
    20   14   19 1   
    21   15   16 1   
    22   15   22 1   
    23   16   41 1   
    24   17   42 1   
    25   19   20 1   
    26   19   25 1   
    27   19   43 1   
    28   20   21 1   
    29   20   44 1   
    30   20   45 1   
    31   21   22 1   
    32   21   46 1   
    33   21   47 1   
    34   22   23 1   
    35   22   24 1   
    36   23   48 1   
    37   23   49 1   
    38   23   50 1   
    39   24   51 1   
    40   24   52 1   
    41   24   53 1   
    42   25   26 1   
    43   25   30 1   
    44   26   27 1   
    45   26   54 1   
    46   28   29 1   
    47   28   31 1   
    48   29   34 1   
    49   30   55 1   
    50   31   56 1   
    51   32   33 1   
    52   32   57 1   
    53   33   58 1   
    54   34   59 1   
@<TRIPOS>SUBSTRUCTURE
     1 BMS         1 TEMP              0 ****  ****    0 ROOT
