@<TRIPOS>MOLECULE
BMS
   60    64     1     0     0
SMALL
bcc


@<TRIPOS>ATOM
      1 C5          0.7540   -0.2180   -0.1400 ca        1 BMS     -0.118400
      2 C6          0.6430    0.9720    0.6030 ca        1 BMS     -0.131500
      3 C7         -0.2640    1.0220    1.6560 ca        1 BMS     -0.093000
      4 C2         -1.0530   -0.0880    1.9750 ca        1 BMS     -0.074600
      5 C3         -0.9170   -1.2710    1.2380 ca        1 BMS     -0.093000
      6 C4         -0.0210   -1.3510    0.1800 ca        1 BMS     -0.131500
      7 C1         -2.0770   -0.0110    3.1230 c         1 BMS      0.911200
      8 O1         -2.7760   -1.0380    3.3120 o         1 BMS     -0.783800
      9 O2         -2.1230    1.0710    3.7570 o         1 BMS     -0.783800
     10 N1          1.7060   -0.2930   -1.2520 n4        1 BMS     -0.526200
     11 C8          1.5020    0.8080   -2.2710 c         1 BMS      0.585700
     12 C9          0.4290    0.6330   -3.2480 ca        1 BMS     -0.200600
     13 C10         0.6070    1.2280   -4.5050 ca        1 BMS     -0.051000
     14 C11        -0.3760    1.1240   -5.4950 ca        1 BMS     -0.080300
     15 C12        -1.5800    0.4530   -5.2100 ca        1 BMS      0.010700
     16 C13        -1.7460   -0.1360   -3.9450 ca        1 BMS     -0.135000
     17 C14        -0.7610   -0.0540   -2.9700 ca        1 BMS     -0.075000
     18 O3          2.3150    1.7240   -2.2010 o         1 BMS     -0.454100
     19 C15        -0.1250    1.7840   -6.8180 c3        1 BMS      0.029900
     20 C16        -1.0530    1.2410   -7.8980 c3        1 BMS     -0.074400
     21 C17        -2.4820    1.2500   -7.4150 c3        1 BMS     -0.076400
     22 C18        -2.6990    0.3320   -6.2110 c3        1 BMS     -0.019700
     23 C19        -4.0260    0.7240   -5.5620 c3        1 BMS     -0.089600
     24 C20        -2.7900   -1.1190   -6.6780 c3        1 BMS     -0.089600
     25 C21         1.3000    1.6590   -7.2530 ca        1 BMS     -0.213600
     26 C22         1.8810    0.3610   -7.4680 ca        1 BMS      0.413200
     27 N2          3.1200    0.1530   -7.8640 nb        1 BMS     -0.652000
     28 C23         3.9220    1.2570   -8.0980 ca        1 BMS      0.391600
     29 C24         3.4340    2.5880   -7.9180 ca        1 BMS     -0.147300
     30 C25         2.0890    2.7620   -7.4840 ca        1 BMS     -0.073000
     31 C26         5.2740    1.0790   -8.5350 ca        1 BMS     -0.166300
     32 C27         6.0720    2.1710   -8.7710 ca        1 BMS     -0.117000
     33 C28         5.5820    3.4850   -8.5890 ca        1 BMS     -0.121000
     34 C29         4.2890    3.6900   -8.1710 ca        1 BMS     -0.111000
     35 H6          1.2560    1.8520    0.3560 ha        1 BMS      0.132500
     36 H7         -0.3850    1.9380    2.2640 ha        1 BMS      0.189500
     37 H3         -1.5470   -2.1340    1.5240 ha        1 BMS      0.189500
     38 H4          0.0760   -2.2880   -0.3880 ha        1 BMS      0.132500
     39 H           2.6550   -0.2090   -0.8640 hn        1 BMS      0.450800
     40 H10         1.5370    1.7840   -4.7180 ha        1 BMS      0.162000
     41 H13        -2.6820   -0.6690   -3.7120 ha        1 BMS      0.161000
     42 H14        -0.9450   -0.5020   -1.9780 ha        1 BMS      0.165000
     43 H15        -0.3630    2.8820   -6.6780 hc        1 BMS      0.073700
     44 H161       -0.7440    0.2010   -8.1810 hc        1 BMS      0.056700
     45 H162       -0.9580    1.8800   -8.8160 hc        1 BMS      0.056700
     46 H171       -3.1610    0.9230   -8.2460 hc        1 BMS      0.055200
     47 H172       -2.7740    2.2980   -7.1360 hc        1 BMS      0.055200
     48 H191       -3.9330    1.7080   -5.0430 hc        1 BMS      0.045200
     49 H192       -4.3530   -0.0440   -4.8210 hc        1 BMS      0.045200
     50 H193       -4.8160    0.8070   -6.3480 hc        1 BMS      0.045200
     51 H201       -3.6580   -1.2390   -7.3700 hc        1 BMS      0.045200
     52 H202       -2.9340   -1.8000   -5.8040 hc        1 BMS      0.045200
     53 H203       -1.8590   -1.4190   -7.2150 hc        1 BMS      0.045200
     54 H22         1.2640   -0.5410   -7.2950 h4        1 BMS      0.023100
     55 H25         1.7040    3.7840   -7.3450 ha        1 BMS      0.143000
     56 H26         5.6580    0.0570   -8.6810 ha        1 BMS      0.153000
     57 H27         7.1120    2.0330   -9.1080 ha        1 BMS      0.141000
     58 H28         6.2490    4.3370   -8.7870 ha        1 BMS      0.140000
     59 H29         3.8970    4.7080   -8.0270 ha        1 BMS      0.138000
     60 H12         1.6070   -1.2010   -1.7160 hn        1 BMS      0.450800
@<TRIPOS>BOND
     1    1    2 ar  
     2    1    6 ar  
     3    1   10 1   
     4    2    3 ar  
     5    2   35 1   
     6    3    4 ar  
     7    3   36 1   
     8    4    5 ar  
     9    4    7 1   
    10    5    6 ar  
    11    5   37 1   
    12    6   38 1   
    13    7    8 1   
    14    7    9 1   
    15   10   11 1   
    16   10   39 1   
    17   10   60 1   
    18   11   12 1   
    19   11   18 2   
    20   12   13 ar  
    21   12   17 ar  
    22   13   14 ar  
    23   13   40 1   
    24   14   15 ar  
    25   14   19 1   
    26   15   16 ar  
    27   15   22 1   
    28   16   17 ar  
    29   16   41 1   
    30   17   42 1   
    31   19   20 1   
    32   19   25 1   
    33   19   43 1   
    34   20   21 1   
    35   20   44 1   
    36   20   45 1   
    37   21   22 1   
    38   21   46 1   
    39   21   47 1   
    40   22   23 1   
    41   22   24 1   
    42   23   48 1   
    43   23   49 1   
    44   23   50 1   
    45   24   51 1   
    46   24   52 1   
    47   24   53 1   
    48   25   26 ar  
    49   25   30 ar  
    50   26   27 ar  
    51   26   54 1   
    52   27   28 ar  
    53   28   29 ar  
    54   28   31 ar  
    55   29   30 ar  
    56   29   34 ar  
    57   30   55 1   
    58   31   32 ar  
    59   31   56 1   
    60   32   33 ar  
    61   32   57 1   
    62   33   34 ar  
    63   33   58 1   
    64   34   59 1   
@<TRIPOS>SUBSTRUCTURE
     1 BMS         1 TEMP              0 ****  ****    0 ROOT
