@<TRIPOS>MOLECULE
BMS
   59    63     1     0     0
SMALL
bcc


@<TRIPOS>ATOM
      1 C5          0.0850    0.0620    0.1080 ca        1 BMS      0.014600
      2 C6          1.4210   -0.2280    0.4430 ca        1 BMS     -0.186000
      3 C7          1.8310   -0.1660    1.7740 ca        1 BMS     -0.090500
      4 C2          0.9420    0.1770    2.7920 ca        1 BMS     -0.135600
      5 C3         -0.3850    0.4660    2.4590 ca        1 BMS     -0.090500
      6 C4         -0.8180    0.4140    1.1400 ca        1 BMS     -0.186000
      7 C1          1.3990    0.2380    4.2420 c         1 BMS      0.909200
      8 O1          0.5430    0.5560    5.1170 o         1 BMS     -0.831300
      9 O2          2.6060   -0.0340    4.4950 o         1 BMS     -0.831300
     10 N1         -0.4140   -0.0020   -1.2130 ns        1 BMS     -0.453100
     11 C8          0.3060   -0.0750   -2.3850 c         1 BMS      0.666700
     12 C9         -0.5120   -0.0350   -3.6430 ca        1 BMS     -0.133600
     13 C10        -0.0720    0.7640   -4.6990 ca        1 BMS     -0.079000
     14 C11        -0.8040    0.8490   -5.8910 ca        1 BMS     -0.083300
     15 C12        -2.0010    0.1270   -6.0230 ca        1 BMS     -0.052300
     16 C13        -2.4080   -0.7070   -4.9700 ca        1 BMS     -0.140000
     17 C14        -1.6790   -0.7890   -3.7890 ca        1 BMS     -0.108000
     18 O3          1.5480   -0.1660   -2.4500 o         1 BMS     -0.593100
     19 C15        -0.3010    1.7650   -6.9660 c3        1 BMS      0.033900
     20 C16        -0.9680    1.4940   -8.3100 c3        1 BMS     -0.072400
     21 C17        -2.4630    1.3790   -8.1460 c3        1 BMS     -0.070400
     22 C18        -2.8620    0.2000   -7.2560 c3        1 BMS     -0.006700
     23 C19        -4.3270    0.3960   -6.8680 c3        1 BMS     -0.084600
     24 C20        -2.7330   -1.1050   -8.0360 c3        1 BMS     -0.084600
     25 C21         1.1860    1.7100   -7.1220 ca        1 BMS     -0.192600
     26 C22         1.8270    0.4990   -7.5600 ca        1 BMS      0.427200
     27 N2          3.1220    0.3710   -7.7690 nb        1 BMS     -0.656000
     28 C23         3.9290    1.4710   -7.5370 ca        1 BMS      0.395600
     29 C24         3.3890    2.7140   -7.0850 ca        1 BMS     -0.143300
     30 C25         1.9820    2.8060   -6.8840 ca        1 BMS     -0.081000
     31 C26         5.3430    1.3770   -7.7400 ca        1 BMS     -0.163300
     32 C27         6.1500    2.4610   -7.5010 ca        1 BMS     -0.126000
     33 C28         5.6070    3.6870   -7.0510 ca        1 BMS     -0.129000
     34 C29         4.2540    3.8120   -6.8470 ca        1 BMS     -0.109000
     35 H6          2.1470   -0.4990   -0.3390 ha        1 BMS      0.125000
     36 H7          2.8760   -0.3910    2.0460 ha        1 BMS      0.154000
     37 H3         -1.0780    0.7370    3.2720 ha        1 BMS      0.154000
     38 H4         -1.8680    0.6480    0.9090 ha        1 BMS      0.125000
     39 H          -1.3970    0.1360   -1.2960 hn        1 BMS      0.305500
     40 H10         0.8720    1.3250   -4.5890 ha        1 BMS      0.159000
     41 H13        -3.3230   -1.3090   -5.0770 ha        1 BMS      0.131000
     42 H14        -2.0190   -1.4560   -2.9820 ha        1 BMS      0.142000
     43 H15        -0.5860    2.8140   -6.6480 hc        1 BMS      0.061700
     44 H161       -0.5580    0.5510   -8.7580 hc        1 BMS      0.046700
     45 H162       -0.7270    2.3320   -9.0150 hc        1 BMS      0.046700
     46 H171       -2.9430    1.2550   -9.1520 hc        1 BMS      0.042700
     47 H172       -2.8610    2.3280   -7.6970 hc        1 BMS      0.042700
     48 H191       -4.7450   -0.5300   -6.4080 hc        1 BMS      0.036700
     49 H192       -4.9300    0.6360   -7.7770 hc        1 BMS      0.036700
     50 H193       -4.4280    1.2340   -6.1390 hc        1 BMS      0.036700
     51 H201       -1.6810   -1.2580   -8.3760 hc        1 BMS      0.036700
     52 H202       -3.4010   -1.0840   -8.9300 hc        1 BMS      0.036700
     53 H203       -3.0250   -1.9680   -7.3900 hc        1 BMS      0.036700
     54 H22         1.2110   -0.4050   -7.7320 h4        1 BMS      0.027100
     55 H25         1.5560    3.7600   -6.5370 ha        1 BMS      0.138000
     56 H26         5.7690    0.4210   -8.0820 ha        1 BMS      0.148000
     57 H27         7.2380    2.3860   -7.6520 ha        1 BMS      0.131000
     58 H28         6.2820    4.5340   -6.8620 ha        1 BMS      0.132000
     59 H29         3.8210    4.7580   -6.4890 ha        1 BMS      0.133000
@<TRIPOS>BOND
     1    1    2 ar  
     2    1    6 ar  
     3    1   10 1   
     4    2    3 ar  
     5    2   35 1   
     6    3    4 ar  
     7    3   36 1   
     8    4    5 ar  
     9    4    7 1   
    10    5    6 ar  
    11    5   37 1   
    12    6   38 1   
    13    7    8 1   
    14    7    9 1   
    15   10   11 1   
    16   10   39 1   
    17   11   12 1   
    18   11   18 2   
    19   12   13 ar  
    20   12   17 ar  
    21   13   14 ar  
    22   13   40 1   
    23   14   15 ar  
    24   14   19 1   
    25   15   16 ar  
    26   15   22 1   
    27   16   17 ar  
    28   16   41 1   
    29   17   42 1   
    30   19   20 1   
    31   19   25 1   
    32   19   43 1   
    33   20   21 1   
    34   20   44 1   
    35   20   45 1   
    36   21   22 1   
    37   21   46 1   
    38   21   47 1   
    39   22   23 1   
    40   22   24 1   
    41   23   48 1   
    42   23   49 1   
    43   23   50 1   
    44   24   51 1   
    45   24   52 1   
    46   24   53 1   
    47   25   26 ar  
    48   25   30 ar  
    49   26   27 ar  
    50   26   54 1   
    51   27   28 ar  
    52   28   29 ar  
    53   28   31 ar  
    54   29   30 ar  
    55   29   34 ar  
    56   30   55 1   
    57   31   32 ar  
    58   31   56 1   
    59   32   33 ar  
    60   32   57 1   
    61   33   34 ar  
    62   33   58 1   
    63   34   59 1   
@<TRIPOS>SUBSTRUCTURE
     1 BMS         1 TEMP              0 ****  ****    0 ROOT
