@<TRIPOS>MOLECULE
BMT
   32    31     1     0     0
SMALL
bcc


@<TRIPOS>ATOM
      1 N           1.7540   -1.7420    0.0630 n3        1 BMT     -0.790200
      2 CN          2.7060   -2.4300   -0.7660 c3        1 BMT      0.146100
      3 CA          1.5850   -0.3380   -0.2870 c3        1 BMT      0.005500
      4 C           2.8690    0.4980    0.0580 c         1 BMT      0.929600
      5 O           2.8630    1.1960    1.1110 o         1 BMT     -0.836800
      6 OXT         3.8210    0.4470   -0.7660 o         1 BMT     -0.836800
      7 CB          0.3600    0.3110    0.3900 c3        1 BMT      0.175100
      8 OG1         0.3840    0.1840    1.8030 oh        1 BMT     -0.646800
      9 CG2        -0.9900   -0.2750   -0.0640 c3        1 BMT     -0.069700
     10 CD1        -1.0930   -0.3510   -1.5710 c3        1 BMT     -0.088100
     11 CD2        -2.1170    0.5800    0.5070 c3        1 BMT     -0.055200
     12 CE         -3.4480   -0.0520    0.3520 c2        1 BMT     -0.134200
     13 CZ         -4.5680    0.6270    0.0890 c2        1 BMT     -0.217200
     14 CH         -5.9010    0.0050   -0.0340 c3        1 BMT     -0.050900
     15 H           0.8620   -2.2020    0.0170 hn        1 BMT      0.323800
     16 HN1         2.9220   -3.4280   -0.3030 h1        1 BMT      0.024033
     17 HN2         2.3480   -2.6060   -1.8210 h1        1 BMT      0.024033
     18 HN3         3.6530   -1.8240   -0.8170 h1        1 BMT      0.024033
     19 HA          1.4440   -0.2170   -1.4060 h1        1 BMT      0.011700
     20 HB          0.3910    1.4080    0.1270 h1        1 BMT      0.034700
     21 HG1         1.2960    0.3830    2.0790 ho        1 BMT      0.458000
     22 HG2        -1.0860   -1.3110    0.3670 hc        1 BMT      0.048700
     23 HD11       -0.7910    0.6190   -2.0360 hc        1 BMT      0.028367
     24 HD12       -0.4300   -1.1560   -1.9710 hc        1 BMT      0.028367
     25 HD13       -2.1440   -0.5780   -1.8730 hc        1 BMT      0.028367
     26 HD22       -1.9170    0.7320    1.6050 hc        1 BMT      0.060700
     27 HD23       -2.0980    1.5910    0.0220 hc        1 BMT      0.060700
     28 HE         -3.4680   -1.1470    0.4890 ha        1 BMT      0.114000
     29 HZ         -4.5470    1.7200   -0.0530 ha        1 BMT      0.115000
     30 HH1        -6.3290    0.2050   -1.0480 hc        1 BMT      0.028367
     31 HH2        -5.8590   -1.1020    0.1160 hc        1 BMT      0.028367
     32 HH3        -6.5990    0.4350    0.7280 hc        1 BMT      0.028367
@<TRIPOS>BOND
     1    1    2 1   
     2    1    3 1   
     3    1   15 1   
     4    2   16 1   
     5    2   17 1   
     6    2   18 1   
     7    3    4 1   
     8    3    7 1   
     9    3   19 1   
    10    4    5 1   
    11    4    6 1   
    12    7    8 1   
    13    7    9 1   
    14    7   20 1   
    15    8   21 1   
    16    9   10 1   
    17    9   11 1   
    18    9   22 1   
    19   10   23 1   
    20   10   24 1   
    21   10   25 1   
    22   11   12 1   
    23   11   26 1   
    24   11   27 1   
    25   12   13 2   
    26   12   28 1   
    27   13   14 1   
    28   13   29 1   
    29   14   30 1   
    30   14   31 1   
    31   14   32 1   
@<TRIPOS>SUBSTRUCTURE
     1 BMT         1 TEMP              0 ****  ****    0 ROOT
