@<TRIPOS>MOLECULE
BMU
   40    41     1     0     0
SMALL
bcc


@<TRIPOS>ATOM
      1 C1          0.3200    0.0390    0.1250 c         1 BMU      0.763100
      2 O1          1.5240   -0.2870    0.1420 o         1 BMU     -0.586100
      3 N2         -0.4950   -0.0130    1.2790 ns        1 BMU     -0.459100
      4 C3          0.0290   -0.1930    2.5760 ca        1 BMU      0.059600
      5 C4         -0.6450    0.4020    3.6690 ca        1 BMU     -0.149000
      6 C5         -0.2080    0.1850    4.9700 ca        1 BMU     -0.101500
      7 C6          0.9120   -0.6170    5.2060 ca        1 BMU     -0.003600
      8 Cl6         1.4460   -0.8750    6.7990 cl        1 BMU     -0.092400
      9 C7          1.5920   -1.2040    4.1370 ca        1 BMU     -0.101500
     10 C8          1.1570   -1.0000    2.8310 ca        1 BMU     -0.149000
     11 N9         -0.2970    0.5050   -1.0680 ns        1 BMU     -0.432100
     12 C10         0.3280    0.2760   -2.2990 cc        1 BMU     -0.001700
     13 C14         1.6930    0.3350   -2.6340 cd        1 BMU     -0.264300
     14 C13         1.7400    0.0550   -4.0570 cd        1 BMU      0.331600
     15 N12         0.4850   -0.1480   -4.5380 nc        1 BMU     -0.502800
     16 N11        -0.3660   -0.0850   -3.4990 na        1 BMU      0.062400
     17 C15        -1.7940    0.0250   -3.6510 c3        1 BMU      0.031600
     18 C17         2.7330   -0.2860   -6.3290 c3        1 BMU     -0.084433
     19 C18         3.7210    1.3400   -4.7350 c3        1 BMU     -0.084433
     20 C19         3.8920   -1.1050   -4.2920 c3        1 BMU     -0.084433
     21 C16         3.0040   -0.0010   -4.8580 c3        1 BMU     -0.076300
     22 H2         -1.3600    0.4830    1.2540 hn        1 BMU      0.307500
     23 H4         -1.5280    1.0390    3.5060 ha        1 BMU      0.154000
     24 H5         -0.7450    0.6520    5.8100 ha        1 BMU      0.150000
     25 H7          2.4770   -1.8350    4.3200 ha        1 BMU      0.150000
     26 H8          1.7120   -1.4670    2.0000 ha        1 BMU      0.154000
     27 H9         -1.2930    0.5500   -1.0930 hn        1 BMU      0.305500
     28 H14         2.5270    0.5160   -1.9630 ha        1 BMU      0.188000
     29 H151       -2.2860   -0.6470   -2.8970 h1        1 BMU      0.054367
     30 H152       -2.1040   -0.2950   -4.6810 h1        1 BMU      0.054367
     31 H153       -2.1310    1.0830   -3.4810 h1        1 BMU      0.054367
     32 H171        2.0890    0.5110   -6.7720 hc        1 BMU      0.039033
     33 H172        3.6990   -0.3150   -6.8890 hc        1 BMU      0.039033
     34 H173        2.2210   -1.2700   -6.4510 hc        1 BMU      0.039033
     35 H181        3.0930    2.1560   -5.1650 hc        1 BMU      0.039033
     36 H182        4.6900    1.3030   -5.2890 hc        1 BMU      0.039033
     37 H183        3.9280    1.5730   -3.6630 hc        1 BMU      0.039033
     38 H191        3.3910   -2.0960   -4.3960 hc        1 BMU      0.039033
     39 H192        4.8610   -1.1320   -4.8460 hc        1 BMU      0.039033
     40 H193        4.1000   -0.9200   -3.2110 hc        1 BMU      0.039033
@<TRIPOS>BOND
     1    1    2 2   
     2    1    3 1   
     3    1   11 1   
     4    3    4 1   
     5    3   22 1   
     6    4    5 ar  
     7    4   10 ar  
     8    5    6 ar  
     9    5   23 1   
    10    6    7 ar  
    11    6   24 1   
    12    7    8 1   
    13    7    9 ar  
    14    9   10 ar  
    15    9   25 1   
    16   10   26 1   
    17   11   12 1   
    18   11   27 1   
    19   12   13 2   
    20   12   16 1   
    21   13   14 1   
    22   13   28 1   
    23   14   15 2   
    24   14   21 1   
    25   15   16 1   
    26   16   17 1   
    27   17   29 1   
    28   17   30 1   
    29   17   31 1   
    30   18   21 1   
    31   18   32 1   
    32   18   33 1   
    33   18   34 1   
    34   19   21 1   
    35   19   35 1   
    36   19   36 1   
    37   19   37 1   
    38   20   21 1   
    39   20   38 1   
    40   20   39 1   
    41   20   40 1   
@<TRIPOS>SUBSTRUCTURE
     1 BMU         1 TEMP              0 ****  ****    0 ROOT
