@<TRIPOS>MOLECULE
BMU
   42    43     1     0     0
SMALL
bcc


@<TRIPOS>ATOM
      1 C1         -1.2540    0.0840    0.0290 c         1 BMU      0.478100
      2 O1         -2.4400    0.0260    0.3050 o         1 BMU     -0.305100
      3 N2         -0.2660   -0.9010    0.5670 n4        1 BMU     -0.479200
      4 C3          0.4410   -0.3620    1.7350 ca        1 BMU     -0.150400
      5 C4         -0.2460   -0.2250    2.9580 ca        1 BMU     -0.080500
      6 C5          0.4480    0.2090    4.0800 ca        1 BMU     -0.102500
      7 C6          1.8210    0.5020    4.0000 ca        1 BMU      0.093400
      8 CL6         2.6520    1.0160    5.3580 cl        1 BMU      0.066600
      9 C7          2.4970    0.3560    2.7730 ca        1 BMU     -0.102500
     10 C8          1.8180   -0.0730    1.6420 ca        1 BMU     -0.080500
     11 N9         -0.7370    1.1640   -0.8860 n4        1 BMU     -0.444200
     12 C10        -0.0260    0.6010   -2.0010 cc        1 BMU     -0.265700
     13 C14         1.3840    0.4190   -2.1260 cd        1 BMU     -0.210300
     14 C13         1.5610   -0.1170   -3.4410 cd        1 BMU      0.374600
     15 N12         0.3280   -0.2380   -4.0570 nc        1 BMU     -0.374800
     16 N11        -0.6100    0.1750   -3.2290 na        1 BMU      0.174400
     17 C15        -2.0170    0.3100   -3.5620 c3        1 BMU     -0.005400
     18 C17         3.0430    0.3380   -5.3630 c3        1 BMU     -0.097767
     19 C18         4.0130   -0.2220   -3.1420 c3        1 BMU     -0.097767
     20 C19         2.8330   -1.9750   -4.4590 c3        1 BMU     -0.097767
     21 C16         2.8590   -0.4940   -4.0970 c3        1 BMU     -0.087300
     22 H2         -0.8010   -1.7440    0.8610 hn        1 BMU      0.508300
     23 H4         -1.3210   -0.4650    3.0510 ha        1 BMU      0.166500
     24 H5         -0.0860    0.3120    5.0450 ha        1 BMU      0.205500
     25 H7          3.5810    0.5720    2.7110 ha        1 BMU      0.205500
     26 H8          2.3790   -0.2090    0.7010 ha        1 BMU      0.166500
     27 H9         -1.5580    1.7190   -1.2070 hn        1 BMU      0.513300
     28 H14         2.1660    0.6700   -1.4120 ha        1 BMU      0.195000
     29 H151       -2.2740    1.4000   -3.6600 h1        1 BMU      0.100700
     30 H152       -2.6310   -0.1740   -2.7580 h1        1 BMU      0.100700
     31 H153       -2.2310   -0.2000   -4.5460 h1        1 BMU      0.100700
     32 H171        3.0250    1.4280   -5.1250 hc        1 BMU      0.056700
     33 H172        2.2420    0.1120   -6.1070 hc        1 BMU      0.056700
     34 H173        4.0310    0.0920   -5.8240 hc        1 BMU      0.056700
     35 H181        4.9740   -0.5130   -3.6340 hc        1 BMU      0.056700
     36 H182        3.9050   -0.8210   -2.2060 hc        1 BMU      0.056700
     37 H183        4.0680    0.8620   -2.8830 hc        1 BMU      0.056700
     38 H191        3.8130   -2.2590   -4.9170 hc        1 BMU      0.056700
     39 H192        2.6730   -2.6020   -3.5500 hc        1 BMU      0.056700
     40 H193        2.0260   -2.1910   -5.2000 hc        1 BMU      0.056700
     41 H22         0.4150   -1.1680   -0.1680 hn        1 BMU      0.508300
     42 H92        -0.0920    1.7890   -0.3670 hn        1 BMU      0.513300
@<TRIPOS>BOND
     1    1    2 2   
     2    1    3 1   
     3    1   11 1   
     4    3    4 1   
     5    3   22 1   
     6    3   41 1   
     7    4    5 ar  
     8    4   10 ar  
     9    5    6 ar  
    10    5   23 1   
    11    6    7 ar  
    12    6   24 1   
    13    7    8 1   
    14    7    9 ar  
    15    9   10 ar  
    16    9   25 1   
    17   10   26 1   
    18   11   12 1   
    19   11   27 1   
    20   11   42 1   
    21   12   13 2   
    22   12   16 1   
    23   13   14 1   
    24   13   28 1   
    25   14   15 2   
    26   14   21 1   
    27   15   16 1   
    28   16   17 1   
    29   17   29 1   
    30   17   30 1   
    31   17   31 1   
    32   18   21 1   
    33   18   32 1   
    34   18   33 1   
    35   18   34 1   
    36   19   21 1   
    37   19   35 1   
    38   19   36 1   
    39   19   37 1   
    40   20   21 1   
    41   20   38 1   
    42   20   39 1   
    43   20   40 1   
@<TRIPOS>SUBSTRUCTURE
     1 BMU         1 TEMP              0 ****  ****    0 ROOT
