@<TRIPOS>MOLECULE
BMU
   40    41     1     0     0
SMALL
bcc


@<TRIPOS>ATOM
      1 C1          0.7710    0.0920   -0.3230 c         1 BMU      0.763100
      2 O1         -0.4590   -0.1200   -0.3070 o         1 BMU     -0.586100
      3 N2          1.5400    0.0070   -1.5050 n         1 BMU     -0.459100
      4 C3          0.9600   -0.0760   -2.7880 ca        1 BMU      0.059600
      5 C4          1.6510    0.4930   -3.8840 ca        1 BMU     -0.149000
      6 C5          1.1540    0.3650   -5.1760 ca        1 BMU     -0.101500
      7 C6         -0.0430   -0.3210   -5.3980 ca        1 BMU     -0.003600
      8 CL6        -0.6510   -0.4710   -6.9780 cl        1 BMU     -0.092400
      9 C7         -0.7400   -0.8820   -4.3260 ca        1 BMU     -0.101500
     10 C8         -0.2470   -0.7660   -3.0300 ca        1 BMU     -0.149000
     11 N9          1.4670    0.4550    0.8630 n         1 BMU     -0.432100
     12 C10         0.8630    0.2400    2.1070 cc        1 BMU     -0.001700
     13 C14        -0.4790    0.4130    2.4920 cd        1 BMU     -0.264300
     14 C13        -0.5070    0.0880    3.9050 cd        1 BMU      0.331600
     15 N12         0.7390   -0.2490    4.3350 nc        1 BMU     -0.502800
     16 N11         1.5580   -0.2270    3.2690 na        1 BMU      0.062400
     17 C15         2.9950   -0.2560    3.3740 c3        1 BMU      0.031600
     18 C17        -1.4540   -0.2430    6.1990 c3        1 BMU     -0.084433
     19 C18        -2.3350    1.5250    4.6960 c3        1 BMU     -0.084433
     20 C19        -2.7500   -0.8750    4.1780 c3        1 BMU     -0.084433
     21 C16        -1.7440    0.1200    4.7490 c3        1 BMU     -0.076300
     22 H2          2.4480    0.4200   -1.4940 hn        1 BMU      0.307500
     23 H4          2.5940    1.0400   -3.7310 ha        1 BMU      0.154000
     24 H5          1.7050    0.8100   -6.0180 ha        1 BMU      0.150000
     25 H7         -1.6850   -1.4210   -4.4980 ha        1 BMU      0.150000
     26 H8         -0.8150   -1.2100   -2.1960 ha        1 BMU      0.154000
     27 H9          2.4630    0.4060    0.8540 hn        1 BMU      0.305500
     28 H14        -1.3140    0.6950    1.8570 ha        1 BMU      0.188000
     29 H151        3.3960   -0.9430    2.5820 h1        1 BMU      0.054367
     30 H152        3.4240    0.7720    3.2280 h1        1 BMU      0.054367
     31 H153        3.3060   -0.6400    4.3810 h1        1 BMU      0.054367
     32 H171       -2.4000   -0.2030    6.7910 hc        1 BMU      0.039033
     33 H172       -1.0330   -1.2740    6.2690 hc        1 BMU      0.039033
     34 H173       -0.7240    0.4740    6.6440 hc        1 BMU      0.039033
     35 H181       -1.6200    2.2640    5.1300 hc        1 BMU      0.039033
     36 H182       -2.5530    1.8150    3.6400 hc        1 BMU      0.039033
     37 H183       -3.2840    1.5580    5.2820 hc        1 BMU      0.039033
     38 H191       -2.3410   -1.9120    4.2310 hc        1 BMU      0.039033
     39 H192       -3.6980   -0.8330    4.7640 hc        1 BMU      0.039033
     40 H193       -2.9730   -0.6330    3.1110 hc        1 BMU      0.039033
@<TRIPOS>BOND
     1    1    2 2   
     2    1    3 1   
     3    1   11 1   
     4    3    4 1   
     5    3   22 1   
     6    4    5 ar  
     7    4   10 ar  
     8    5    6 ar  
     9    5   23 1   
    10    6    7 ar  
    11    6   24 1   
    12    7    8 1   
    13    7    9 ar  
    14    9   10 ar  
    15    9   25 1   
    16   10   26 1   
    17   11   12 1   
    18   11   27 1   
    19   12   13 2   
    20   12   16 1   
    21   13   14 1   
    22   13   28 1   
    23   14   15 2   
    24   14   21 1   
    25   15   16 1   
    26   16   17 1   
    27   17   29 1   
    28   17   30 1   
    29   17   31 1   
    30   18   21 1   
    31   18   32 1   
    32   18   33 1   
    33   18   34 1   
    34   19   21 1   
    35   19   35 1   
    36   19   36 1   
    37   19   37 1   
    38   20   21 1   
    39   20   38 1   
    40   20   39 1   
    41   20   40 1   
@<TRIPOS>SUBSTRUCTURE
     1 BMU         1 TEMP              0 ****  ****    0 ROOT
