@<TRIPOS>MOLECULE
BMU
   40    41     1     0     0
SMALL
bcc


@<TRIPOS>ATOM
      1 C1          0.3200    0.0330    0.1260 c         1 BMU      0.763100
      2 O1          1.5270   -0.2810    0.1420 o         1 BMU     -0.586100
      3 N2         -0.4930   -0.0230    1.2800 n         1 BMU     -0.459100
      4 C3          0.0330   -0.1940    2.5770 ca        1 BMU      0.059600
      5 C4         -0.6460    0.3980    3.6690 ca        1 BMU     -0.149000
      6 C5         -0.2050    0.1890    4.9700 ca        1 BMU     -0.101500
      7 C6          0.9220   -0.6010    5.2080 ca        1 BMU     -0.003600
      8 CL6         1.4600   -0.8500    6.8010 cl        1 BMU     -0.092400
      9 C7          1.6070   -1.1860    4.1400 ca        1 BMU     -0.101500
     10 C8          1.1690   -0.9900    2.8340 ca        1 BMU     -0.149000
     11 N9         -0.3020    0.4910   -1.0690 n         1 BMU     -0.432100
     12 C10         0.3240    0.2650   -2.2990 cc        1 BMU     -0.001700
     13 C14         1.6890    0.3340   -2.6350 cd        1 BMU     -0.264300
     14 C13         1.7370    0.0530   -4.0570 cd        1 BMU      0.331600
     15 N12         0.4830   -0.1610   -4.5380 nc        1 BMU     -0.502800
     16 N11        -0.3680   -0.1040   -3.4990 na        1 BMU      0.062400
     17 C15        -1.7970   -0.0050   -3.6490 c3        1 BMU      0.031600
     18 C17         2.7320   -0.2800   -6.3310 c3        1 BMU     -0.084433
     19 C18         3.7090    1.3520   -4.7360 c3        1 BMU     -0.084433
     20 C19         3.8970   -1.0920   -4.2950 c3        1 BMU     -0.084433
     21 C16         3.0010    0.0060   -4.8600 c3        1 BMU     -0.076300
     22 H2         -1.3630    0.4650    1.2540 hn        1 BMU      0.307500
     23 H4         -1.5340    1.0260    3.5050 ha        1 BMU      0.154000
     24 H5         -0.7460    0.6530    5.8100 ha        1 BMU      0.150000
     25 H7          2.4970   -1.8070    4.3240 ha        1 BMU      0.150000
     26 H8          1.7270   -1.4540    2.0030 ha        1 BMU      0.154000
     27 H9         -1.2990    0.5260   -1.0920 hn        1 BMU      0.305500
     28 H14         2.5210    0.5230   -1.9650 ha        1 BMU      0.188000
     29 H151       -2.2820   -0.6810   -2.8960 h1        1 BMU      0.054367
     30 H152       -2.1430    1.0500   -3.4810 h1        1 BMU      0.054367
     31 H153       -2.1050   -0.3290   -4.6790 h1        1 BMU      0.054367
     32 H171        2.2260   -1.2670   -6.4530 hc        1 BMU      0.039033
     33 H172        3.6970   -0.3020   -6.8910 hc        1 BMU      0.039033
     34 H173        2.0820    0.5130   -6.7720 hc        1 BMU      0.039033
     35 H181        4.6780    1.3220   -5.2900 hc        1 BMU      0.039033
     36 H182        3.0750    2.1640   -5.1640 hc        1 BMU      0.039033
     37 H183        3.9150    1.5850   -3.6640 hc        1 BMU      0.039033
     38 H191        4.1030   -0.9070   -3.2130 hc        1 BMU      0.039033
     39 H192        4.8650   -1.1120   -4.8490 hc        1 BMU      0.039033
     40 H193        3.4020   -2.0870   -4.3990 hc        1 BMU      0.039033
@<TRIPOS>BOND
     1    1    2 2   
     2    1    3 1   
     3    1   11 1   
     4    3    4 1   
     5    3   22 1   
     6    4    5 ar  
     7    4   10 ar  
     8    5    6 ar  
     9    5   23 1   
    10    6    7 ar  
    11    6   24 1   
    12    7    8 1   
    13    7    9 ar  
    14    9   10 ar  
    15    9   25 1   
    16   10   26 1   
    17   11   12 1   
    18   11   27 1   
    19   12   13 2   
    20   12   16 1   
    21   13   14 1   
    22   13   28 1   
    23   14   15 2   
    24   14   21 1   
    25   15   16 1   
    26   16   17 1   
    27   17   29 1   
    28   17   30 1   
    29   17   31 1   
    30   18   21 1   
    31   18   32 1   
    32   18   33 1   
    33   18   34 1   
    34   19   21 1   
    35   19   35 1   
    36   19   36 1   
    37   19   37 1   
    38   20   21 1   
    39   20   38 1   
    40   20   39 1   
    41   20   40 1   
@<TRIPOS>SUBSTRUCTURE
     1 BMU         1 TEMP              0 ****  ****    0 ROOT
