@<TRIPOS>MOLECULE
BMU
   40    35     1     0     0
SMALL
bcc


@<TRIPOS>ATOM
      1 C1         -1.2000   -0.2060    1.3290 c1        1 BMU      0.385000
      2 O1         -1.2690    0.7790    0.6620 o         1 BMU     -0.365000
      3 N2         -2.0110   -0.3290    2.5260 n2        1 BMU     -0.315000
      4 C3         -2.8640    0.7040    2.8980 c2        1 BMU      0.069000
      5 C4         -4.1760    0.6980    2.4960 c1        1 BMU     -0.129000
      6 C5         -5.0360    1.7240    2.9070 c1        1 BMU     -0.102000
      7 C6         -4.5540    2.7500    3.7260 c1        1 BMU     -0.083000
      8 CL6        -5.5970    3.9990    4.2330 cl        1 BMU     -0.013000
      9 C7         -3.2040    2.7540    4.1380 c2        1 BMU     -0.101000
     10 C8         -2.3750    1.7660    3.7420 c2        1 BMU     -0.172000
     11 N9         -0.3410   -1.3250    0.9030 n3        1 BMU     -0.285000
     12 C10         0.3790   -1.2360   -0.2730 c2        1 BMU      0.023000
     13 C14         1.5330   -0.5410   -0.4630 c1        1 BMU     -0.248000
     14 C13         1.9480   -0.7670   -1.7450 c1        1 BMU     -0.097000
     15 N12         1.0620   -1.5830   -2.3240 n2        1 BMU     -0.068000
     16 N11         0.0880   -1.8740   -1.4080 n2        1 BMU     -0.093000
     17 C15        -1.0720   -2.7300   -1.6330 c2        1 BMU     -0.063000
     18 C17         4.4790   -0.6880   -1.7000 c3        1 BMU     -0.201667
     19 C18         3.2640   -0.5860   -3.9010 c3        1 BMU     -0.201667
     20 C19         3.1780    1.3090   -2.3360 c3        1 BMU     -0.201667
     21 C16         3.2200   -0.1680   -2.4270 c2        1 BMU      0.020000
     22 H2         -1.9040   -1.0820    3.0960 hn        1 BMU      0.225000
     23 H4         -4.4750    0.0550    1.9860 ha        1 BMU      0.176000
     24 H5         -5.9680    1.7230    2.6230 ha        1 BMU      0.152000
     25 H7         -2.8790    3.4510    4.6940 ha        1 BMU      0.149000
     26 H8         -1.4500    1.7690    4.0300 ha        1 BMU      0.134000
     27 H9         -0.3760   -2.0860    1.3300 hn        1 BMU      0.228000
     28 H14         1.9910    0.0300    0.2120 DU        1 BMU      0.163000
     29 H151       -0.9400   -3.2630   -2.4480 ha        1 BMU      0.106333
     30 H152       -1.8480   -2.1890   -1.7290 ha        1 BMU      0.106333
     31 H153       -1.1820   -3.2990   -0.9060 ha        1 BMU      0.106333
     32 H171        4.5670   -0.2520   -0.8800 hc        1 BMU      0.077333
     33 H172        5.3160   -0.5060   -2.2790 hc        1 BMU      0.077333
     34 H173        4.3950   -1.6150   -1.5520 hc        1 BMU      0.077333
     35 H181        2.4750   -0.2140   -4.3710 hc        1 BMU      0.077333
     36 H182        4.0770   -0.2380   -4.3110 hc        1 BMU      0.077333
     37 H183        3.2560   -1.5840   -3.9690 hc        1 BMU      0.077333
     38 H191        2.3390    1.6100   -2.5780 hc        1 BMU      0.077333
     39 H192        3.7860    1.6560   -2.8810 hc        1 BMU      0.077333
     40 H193        3.3690    1.5870   -1.4160 hc        1 BMU      0.077333
@<TRIPOS>BOND
     1    1    2 1   
     2    1   11 1   
     3    3    4 1   
     4    3   22 1   
     5    4    5 1   
     6    4   10 1   
     7    5   23 1   
     8    6    7 1   
     9    6   24 1   
    10    7    9 1   
    11    9   10 1   
    12    9   25 1   
    13   10   26 1   
    14   11   12 1   
    15   11   27 1   
    16   12   13 1   
    17   12   16 1   
    18   13   14 1   
    19   14   15 1   
    20   15   16 1   
    21   17   29 1   
    22   17   30 1   
    23   17   31 1   
    24   18   21 1   
    25   18   32 1   
    26   18   33 1   
    27   18   34 1   
    28   19   21 1   
    29   19   35 1   
    30   19   36 1   
    31   19   37 1   
    32   20   21 1   
    33   20   38 1   
    34   20   39 1   
    35   20   40 1   
@<TRIPOS>SUBSTRUCTURE
     1 BMU         1 TEMP              0 ****  ****    0 ROOT
