@<TRIPOS>MOLECULE
BMV
   57    61     1     0     0
SMALL
bcc


@<TRIPOS>ATOM
      1 CAJ        -0.0620   -0.1070    0.3720 ca        1 BMV     -0.117000
      2 CAF         1.2890    0.2170    0.2570 ca        1 BMV     -0.126500
      3 CAE         1.9290    0.9320    1.2680 ca        1 BMV     -0.128000
      4 CAG         1.2140    1.3170    2.4020 ca        1 BMV     -0.126500
      5 CAK        -0.1360    0.9940    2.5200 ca        1 BMV     -0.117000
      6 CAZ        -0.7880    0.2810    1.5040 ca        1 BMV     -0.094300
      7 CAR        -2.2450    0.0180    1.6220 c3        1 BMV     -0.046100
      8 CBE        -2.6980   -1.4310    1.3420 c3        1 BMV      0.228500
      9 CAU        -4.2540   -1.3940    1.4390 c3        1 BMV      0.208800
     10 NBF        -4.8880   -2.6870    1.4480 nh        1 BMV     -0.673000
     11 CAS        -5.8280   -3.0000    0.3920 c3        1 BMV      0.205500
     12 CBA        -5.4690   -2.4740   -0.9550 cc        1 BMV      0.271600
     13 CAP        -6.2860   -1.6480   -1.7570 cd        1 BMV     -0.242600
     14 NAV        -5.5930   -1.4580   -2.9500 na        1 BMV     -0.316900
     15 CAO        -4.3880   -2.1630   -2.8360 cd        1 BMV      0.393400
     16 NAW        -4.2890   -2.7840   -1.6420 nc        1 BMV     -0.654000
     17 CBD        -4.9860   -3.3870    2.6530 ca        1 BMV      0.230600
     18 CAN        -6.1200   -4.2020    2.9200 ca        1 BMV     -0.213000
     19 CAM        -6.2380   -4.9200    4.0980 ca        1 BMV     -0.052000
     20 CAY        -5.2320   -4.8490    5.0710 ca        1 BMV     -0.074000
     21 CAD        -5.3540   -5.5740    6.2850 cg        1 BMV      0.242800
     22 NAA        -5.4550   -6.1690    7.2800 n1        1 BMV     -0.377800
     23 CAQ        -4.1050   -4.0590    4.8270 ca        1 BMV     -0.055000
     24 CBB        -3.9610   -3.3380    3.6410 ca        1 BMV     -0.171300
     25 CAT        -2.6940   -2.5290    3.5160 c3        1 BMV      0.273100
     26 NBG        -2.1150   -2.4270    2.2080 n3        1 BMV     -0.778500
     27 SBH        -0.9310   -3.4500    1.7040 sy        1 BMV      1.548200
     28 OAB        -0.4390   -3.0150    0.4530 o         1 BMV     -0.655800
     29 OAC         0.0170   -3.5930    2.7440 o         1 BMV     -0.655800
     30 CBC        -1.6690   -4.9230    1.4940 cc        1 BMV     -0.496600
     31 CAL        -2.3470   -5.2180    0.3010 cd        1 BMV     -0.012000
     32 CAH        -2.8480   -6.5400    0.2830 cd        1 BMV     -0.187000
     33 CAI        -2.5310   -7.2040    1.4650 cc        1 BMV     -0.181100
     34 SAX        -1.6810   -6.2500    2.4870 ss        1 BMV      0.264200
     35 HAJ        -0.5460   -0.7050   -0.4170 ha        1 BMV      0.137500
     36 HAF         1.8510   -0.1050   -0.6320 ha        1 BMV      0.131000
     37 HAE         2.9950    1.1840    1.1770 ha        1 BMV      0.129000
     38 HAG         1.7160    1.8720    3.2080 ha        1 BMV      0.131000
     39 HAK        -0.6920    1.2990    3.4190 ha        1 BMV      0.137500
     40 HAR1       -2.5980    0.3220    2.6450 hc        1 BMV      0.048200
     41 HAR2       -2.7790    0.6720    0.8780 hc        1 BMV      0.048200
     42 HBE        -2.4090   -1.6940    0.2780 h1        1 BMV      0.091700
     43 HAU1       -4.6240   -0.8010    0.5560 h1        1 BMV      0.051200
     44 HAU2       -4.5400   -0.8320    2.3760 h1        1 BMV      0.051200
     45 HAS1       -6.8530   -2.5960    0.6520 h1        1 BMV      0.049700
     46 HAS2       -5.9000   -4.1270    0.3160 h1        1 BMV      0.049700
     47 HAP        -7.2660   -1.2130   -1.5690 h4        1 BMV      0.182000
     48 HAV        -5.9000   -0.9330   -3.7240 hn        1 BMV      0.305700
     49 HAO        -3.6350   -2.1870   -3.6310 h5        1 BMV      0.069100
     50 HAN        -6.9440   -4.2730    2.1930 ha        1 BMV      0.137000
     51 HAM        -7.1300   -5.5420    4.2730 ha        1 BMV      0.142000
     52 HAQ        -3.3090   -4.0090    5.5890 ha        1 BMV      0.145000
     53 HAT1       -1.9090   -2.9760    4.2020 h1        1 BMV      0.064700
     54 HAT2       -2.9140   -1.4910    3.9080 h1        1 BMV      0.064700
     55 HAL        -2.4650   -4.5080   -0.5260 ha        1 BMV      0.186000
     56 HAH        -3.4040   -6.9700   -0.5510 ha        1 BMV      0.159000
     57 HAI        -2.8090   -8.2360    1.6830 h4        1 BMV      0.176000
@<TRIPOS>BOND
     1    1    2 ar  
     2    1    6 ar  
     3    1   35 1   
     4    2    3 ar  
     5    2   36 1   
     6    3    4 ar  
     7    3   37 1   
     8    4    5 ar  
     9    4   38 1   
    10    5    6 ar  
    11    5   39 1   
    12    6    7 1   
    13    7    8 1   
    14    7   40 1   
    15    7   41 1   
    16    8    9 1   
    17    8   26 1   
    18    8   42 1   
    19    9   10 1   
    20    9   43 1   
    21    9   44 1   
    22   10   11 1   
    23   10   17 1   
    24   11   12 1   
    25   11   45 1   
    26   11   46 1   
    27   12   13 2   
    28   12   16 1   
    29   13   14 1   
    30   13   47 1   
    31   14   15 1   
    32   14   48 1   
    33   15   16 2   
    34   15   49 1   
    35   17   18 ar  
    36   17   24 ar  
    37   18   19 ar  
    38   18   50 1   
    39   19   20 ar  
    40   19   51 1   
    41   20   21 1   
    42   20   23 ar  
    43   21   22 3   
    44   23   24 ar  
    45   23   52 1   
    46   24   25 1   
    47   25   26 1   
    48   25   53 1   
    49   25   54 1   
    50   26   27 1   
    51   27   28 2   
    52   27   29 2   
    53   27   30 1   
    54   30   31 2   
    55   30   34 1   
    56   31   32 1   
    57   31   55 1   
    58   32   33 2   
    59   32   56 1   
    60   33   34 1   
    61   33   57 1   
@<TRIPOS>SUBSTRUCTURE
     1 BMV         1 TEMP              0 ****  ****    0 ROOT
