@<TRIPOS>MOLECULE
BMV
   57    49     1     0     0
SMALL
bcc


@<TRIPOS>ATOM
      1 CAJ         2.8530   -0.3860   -2.6050 c1        1 BMV     -0.120000
      2 CAF         4.1330   -0.1460   -3.2960 c1        1 BMV     -0.128750
      3 CAE         5.2890   -0.5100   -2.7100 c1        1 BMV     -0.128750
      4 CAG         5.2680   -1.1220   -1.4290 c1        1 BMV     -0.128750
      5 CAK         4.0300   -1.3490   -0.7700 c1        1 BMV     -0.128750
      6 CAZ         2.8410   -0.9740   -1.3750 c1        1 BMV     -0.087000
      7 CAR         1.4600   -1.3480   -0.6910 c3        1 BMV     -0.132000
      8 CBE         0.8690   -0.1310   -0.0220 c3        1 BMV      0.001000
      9 CAU         0.6230   -0.4560    1.4380 c3        1 BMV     -0.033000
     10 NBF        -0.5670    0.1380    1.8840 n3        1 BMV     -0.266000
     11 CAS        -0.4770    0.3580    3.3540 c3        1 BMV      0.049000
     12 CBA        -0.0440    1.8080    3.6390 c2        1 BMV     -0.200000
     13 CAP        -0.8510    2.8140    4.1660 c1        1 BMV     -0.133000
     14 NAV        -0.0810    3.9390    4.3170 n2        1 BMV     -0.187000
     15 CAO         1.2070    3.6390    3.8860 c1        1 BMV     -0.107000
     16 NAW         1.2230    2.3240    3.4690 n2        1 BMV     -0.135000
     17 CBD        -1.7010   -0.7040    1.5930 c2        1 BMV      0.128000
     18 CAN        -2.6830   -1.0070    2.5560 c2        1 BMV     -0.172000
     19 CAM        -3.3360   -2.2100    2.5160 c1        1 BMV     -0.063000
     20 CAY        -3.0270   -3.1270    1.5290 c1        1 BMV     -0.054000
     21 CAD        -3.7200   -4.4000    1.4730 c1        1 BMV     -0.088000
     22 NAA        -4.2530   -5.3840    1.4260 n1        1 BMV     -0.049000
     23 CAQ        -2.0410   -2.8220    0.5630 c1        1 BMV     -0.061000
     24 CBB        -1.3950   -1.6270    0.6040 c1        1 BMV     -0.161000
     25 CAT        -1.2250   -0.9330   -0.7720 c3        1 BMV      0.045000
     26 NBG        -0.3370    0.2160   -0.6700 n3        1 BMV     -0.820000
     27 SBH        -0.6600    1.7650   -1.3710 s4        1 BMV      2.107800
     28 OAB        -1.3970    2.6340   -0.4240 o         1 BMV     -0.553400
     29 OAC         0.5370    2.5130   -1.5610 o         1 BMV     -0.553400
     30 CBC        -1.5570    1.5690   -2.9260 c1        1 BMV     -0.830500
     31 CAL        -0.9960    1.6240   -4.2310 c1        1 BMV     -0.101500
     32 CAH        -2.1590    1.3940   -5.2750 c1        1 BMV     -0.101500
     33 CAI        -3.3950    1.2070   -4.5430 c1        1 BMV     -0.830500
     34 SAX        -3.0870    1.3050   -3.0730 ss        1 BMV      0.809000
     35 HAJ         1.9750   -0.1130   -3.0440 ha        1 BMV      0.161000
     36 HAF         4.1420    0.2720   -4.1700 ha        1 BMV      0.130500
     37 HAE         6.0650   -0.3670   -3.1250 ha        1 BMV      0.130500
     38 HAG         6.0760   -1.3780   -1.0150 ha        1 BMV      0.130500
     39 HAK         4.0130   -1.7760    0.1230 ha        1 BMV      0.130500
     40 HAR1        1.6220   -2.0930    0.0310 hc        1 BMV      0.090000
     41 HAR2        0.8310   -1.6830   -1.3810 hc        1 BMV      0.090000
     42 HBE         1.5020    0.6220   -0.0890 h1        1 BMV      0.132000
     43 HAU1        0.5350   -1.4950    1.5390 h1        1 BMV      0.106000
     44 HAU2        1.4000   -0.0880    1.9900 h1        1 BMV      0.106000
     45 HAS1        0.1660   -0.2430    3.7230 h1        1 BMV      0.108500
     46 HAS2       -1.3270    0.1980    3.7540 h1        1 BMV      0.108500
     47 HAP        -1.7620    2.7370    4.3810 DU        1 BMV      0.197000
     48 HAV        -0.3500    4.7010    4.6260 DU        1 BMV      0.197000
     49 HAO         2.0370    4.3080    3.8790 DU        1 BMV      0.197000
     50 HAN        -2.9140   -0.3150    3.2970 ha        1 BMV      0.148000
     51 HAM        -4.1650   -2.3950    3.1820 ha        1 BMV      0.146000
     52 HAQ        -1.8150   -3.4990   -0.1650 ha        1 BMV      0.136000
     53 HAT1       -2.1300   -0.6270   -1.0990 h1        1 BMV      0.089500
     54 HAT2       -0.8500   -1.5740   -1.4120 h1        1 BMV      0.089500
     55 HAL        -0.0670    1.7750   -4.4420 DU        1 BMV      0.197000
     56 HAH        -2.0550    1.3780   -6.3230 DU        1 BMV      0.197000
     57 HAI        -4.2740    1.0460   -4.9330 DU        1 BMV      0.197000
@<TRIPOS>BOND
     1    1    6 1   
     2    1   35 1   
     3    2    3 1   
     4    2   36 1   
     5    3   37 1   
     6    4    5 1   
     7    4   38 1   
     8    5   39 1   
     9    6    7 1   
    10    7    8 1   
    11    7   40 1   
    12    7   41 1   
    13    8    9 1   
    14    8   26 1   
    15    8   42 1   
    16    9   10 1   
    17    9   43 1   
    18    9   44 1   
    19   10   11 1   
    20   10   17 1   
    21   11   12 1   
    22   11   45 1   
    23   11   46 1   
    24   12   13 1   
    25   12   16 1   
    26   13   14 1   
    27   14   15 1   
    28   15   16 1   
    29   17   18 1   
    30   17   24 1   
    31   18   19 1   
    32   18   50 1   
    33   19   51 1   
    34   20   21 1   
    35   20   23 1   
    36   21   22 1   
    37   23   52 1   
    38   24   25 1   
    39   25   26 1   
    40   25   53 1   
    41   25   54 1   
    42   26   27 1   
    43   27   28 1   
    44   27   29 1   
    45   30   31 1   
    46   30   34 1   
    47   31   32 1   
    48   32   33 1   
    49   33   34 1   
@<TRIPOS>SUBSTRUCTURE
     1 BMV         1 TEMP              0 ****  ****    0 ROOT
