@<TRIPOS>MOLECULE
BMV
   57    61     1     0     0
SMALL
bcc


@<TRIPOS>ATOM
      1 CAJ         0.0530    0.3320   -4.1890 ca        1 BMV     -0.117000
      2 CAF         0.7920    0.1190   -5.3520 ca        1 BMV     -0.126500
      3 CAE         1.6630    1.1010   -5.8220 ca        1 BMV     -0.128000
      4 CAG         1.7990    2.2980   -5.1190 ca        1 BMV     -0.126500
      5 CAK         1.0620    2.5140   -3.9570 ca        1 BMV     -0.117000
      6 CAZ         0.1800    1.5340   -3.4820 ca        1 BMV     -0.094300
      7 CAR        -0.6490    1.8220   -2.2830 c3        1 BMV     -0.046100
      8 CBE        -0.6730    0.7260   -1.1960 c3        1 BMV      0.228500
      9 CAU        -1.6800    1.2440   -0.1230 c3        1 BMV      0.208800
     10 NBF        -1.6890    0.4950    1.1060 nh        1 BMV     -0.673000
     11 CAS        -2.9220   -0.1440    1.5150 c3        1 BMV      0.205500
     12 CBA        -3.7340   -0.7230    0.4080 cc        1 BMV      0.271600
     13 CAP        -5.0850   -0.4150    0.1340 cd        1 BMV     -0.242600
     14 NAV        -5.4590   -1.2300   -0.9300 na        1 BMV     -0.316900
     15 CAO        -4.3370   -1.9970   -1.2700 cd        1 BMV      0.393400
     16 NAW        -3.2840   -1.7100   -0.4770 nc        1 BMV     -0.654000
     17 CBD        -0.7360    0.7870    2.0860 ca        1 BMV      0.230600
     18 CAN        -1.0690    0.6840    3.4650 ca        1 BMV     -0.213000
     19 CAM        -0.1410    0.9510    4.4580 ca        1 BMV     -0.052000
     20 CAY         1.1600    1.3440    4.1210 ca        1 BMV     -0.074000
     21 CAD         2.1100    1.6310    5.1350 cg        1 BMV      0.242800
     22 NAA         2.8880    1.8650    5.9680 n1        1 BMV     -0.377800
     23 CAQ         1.5110    1.4470    2.7710 ca        1 BMV     -0.055000
     24 CBB         0.5960    1.1690    1.7550 ca        1 BMV     -0.171300
     25 CAT         1.1150    1.3210    0.3470 c3        1 BMV      0.273100
     26 NBG         0.6140    0.4010   -0.6320 n3        1 BMV     -0.778500
     27 SBH         1.4170   -0.9830   -1.0090 sy        1 BMV      1.548200
     28 OAB         0.7880   -1.6030   -2.1110 o         1 BMV     -0.655800
     29 OAC         2.7930   -0.6850   -1.1480 o         1 BMV     -0.655800
     30 CBC         1.2520   -1.9730    0.3140 cc        1 BMV     -0.496600
     31 CAL         0.1010   -2.7590    0.4790 cd        1 BMV     -0.012000
     32 CAH         0.1750   -3.5820    1.6260 cd        1 BMV     -0.187000
     33 CAI         1.3820   -3.3940    2.2910 cc        1 BMV     -0.181100
     34 SAX         2.3250   -2.2900    1.5370 ss        1 BMV      0.264200
     35 HAJ        -0.6030   -0.4670   -3.8080 ha        1 BMV      0.137500
     36 HAF         0.6930   -0.8350   -5.8910 ha        1 BMV      0.131000
     37 HAE         2.2460    0.9300   -6.7380 ha        1 BMV      0.129000
     38 HAG         2.4910    3.0730   -5.4800 ha        1 BMV      0.131000
     39 HAK         1.1780    3.4600   -3.4070 ha        1 BMV      0.137500
     40 HAR1       -1.7130    1.9660   -2.6210 hc        1 BMV      0.048200
     41 HAR2       -0.3130    2.7900   -1.8210 hc        1 BMV      0.048200
     42 HBE        -1.0930   -0.2210   -1.6560 h1        1 BMV      0.091700
     43 HAU1       -2.7040    1.2100   -0.5910 h1        1 BMV      0.051200
     44 HAU2       -1.4390    2.3250    0.1000 h1        1 BMV      0.051200
     45 HAS1       -2.6580   -0.9830    2.2270 h1        1 BMV      0.049700
     46 HAS2       -3.5780    0.5960    2.0670 h1        1 BMV      0.049700
     47 HAP        -5.7670    0.2880    0.6070 h4        1 BMV      0.182000
     48 HAV        -6.3470   -1.2620   -1.3560 hn        1 BMV      0.305700
     49 HAO        -4.3410   -2.7300   -2.0850 h5        1 BMV      0.069100
     50 HAN        -2.0850    0.3970    3.7770 ha        1 BMV      0.137000
     51 HAM        -0.4320    0.8610    5.5160 ha        1 BMV      0.142000
     52 HAQ         2.5380    1.7490    2.5050 ha        1 BMV      0.145000
     53 HAT1        2.2440    1.2200    0.3630 h1        1 BMV      0.064700
     54 HAT2        0.8870    2.3780    0.0150 h1        1 BMV      0.064700
     55 HAL        -0.7530   -2.7430   -0.2090 ha        1 BMV      0.186000
     56 HAH        -0.6140   -4.2700    1.9340 ha        1 BMV      0.159000
     57 HAI         1.6700   -3.9200    3.2030 h4        1 BMV      0.176000
@<TRIPOS>BOND
     1    1    2 ar  
     2    1    6 ar  
     3    1   35 1   
     4    2    3 ar  
     5    2   36 1   
     6    3    4 ar  
     7    3   37 1   
     8    4    5 ar  
     9    4   38 1   
    10    5    6 ar  
    11    5   39 1   
    12    6    7 1   
    13    7    8 1   
    14    7   40 1   
    15    7   41 1   
    16    8    9 1   
    17    8   26 1   
    18    8   42 1   
    19    9   10 1   
    20    9   43 1   
    21    9   44 1   
    22   10   11 1   
    23   10   17 1   
    24   11   12 1   
    25   11   45 1   
    26   11   46 1   
    27   12   13 2   
    28   12   16 1   
    29   13   14 1   
    30   13   47 1   
    31   14   15 1   
    32   14   48 1   
    33   15   16 2   
    34   15   49 1   
    35   17   18 ar  
    36   17   24 ar  
    37   18   19 ar  
    38   18   50 1   
    39   19   20 ar  
    40   19   51 1   
    41   20   21 1   
    42   20   23 ar  
    43   21   22 3   
    44   23   24 ar  
    45   23   52 1   
    46   24   25 1   
    47   25   26 1   
    48   25   53 1   
    49   25   54 1   
    50   26   27 1   
    51   27   28 2   
    52   27   29 2   
    53   27   30 1   
    54   30   31 2   
    55   30   34 1   
    56   31   32 1   
    57   31   55 1   
    58   32   33 2   
    59   32   56 1   
    60   33   34 1   
    61   33   57 1   
@<TRIPOS>SUBSTRUCTURE
     1 BMV         1 TEMP              0 ****  ****    0 ROOT
