@<TRIPOS>MOLECULE
BMV
   57    61     1     0     0
SMALL
bcc


@<TRIPOS>ATOM
      1 CAJ        -0.0790   -0.0880    0.3710 ca        1 BMV     -0.117000
      2 CAF         1.2700    0.2450    0.2560 ca        1 BMV     -0.126500
      3 CAE         1.9060    0.9640    1.2670 ca        1 BMV     -0.128000
      4 CAG         1.1900    1.3430    2.4020 ca        1 BMV     -0.126500
      5 CAK        -0.1580    1.0110    2.5200 ca        1 BMV     -0.117000
      6 CAZ        -0.8060    0.2950    1.5040 ca        1 BMV     -0.094300
      7 CAR        -2.2610    0.0230    1.6230 c3        1 BMV     -0.046100
      8 CBE        -2.7050   -1.4290    1.3430 c3        1 BMV      0.228500
      9 CAU        -4.2610   -1.4020    1.4400 c3        1 BMV      0.208800
     10 NBF        -4.8870   -2.6990    1.4480 nh        1 BMV     -0.673000
     11 CAS        -5.8250   -3.0180    0.3930 c3        1 BMV      0.205500
     12 CBA        -5.4700   -2.4880   -0.9540 cc        1 BMV      0.271600
     13 CAP        -6.2920   -1.6670   -1.7560 cd        1 BMV     -0.242600
     14 NAV        -5.6000   -1.4720   -2.9480 na        1 BMV     -0.316900
     15 CAO        -4.3900   -2.1690   -2.8350 cd        1 BMV      0.393400
     16 NAW        -4.2880   -2.7910   -1.6420 nc        1 BMV     -0.654000
     17 CBD        -4.9800   -3.4000    2.6530 ca        1 BMV      0.230600
     18 CAN        -6.1090   -4.2230    2.9200 ca        1 BMV     -0.213000
     19 CAM        -6.2220   -4.9430    4.0970 ca        1 BMV     -0.052000
     20 CAY        -5.2170   -4.8660    5.0700 ca        1 BMV     -0.074000
     21 CAD        -5.3330   -5.5910    6.2840 cg        1 BMV      0.242800
     22 NAA        -5.4310   -6.1880    7.2780 n1        1 BMV     -0.377800
     23 CAQ        -4.0950   -4.0670    4.8270 ca        1 BMV     -0.055000
     24 CBB        -3.9550   -3.3450    3.6410 ca        1 BMV     -0.171300
     25 CAT        -2.6930   -2.5280    3.5170 c3        1 BMV      0.273100
     26 NBG        -2.1150   -2.4220    2.2080 n3        1 BMV     -0.778500
     27 SBH        -0.9250   -3.4370    1.7030 sy        1 BMV      1.548200
     28 OAB        -0.4360   -2.9980    0.4520 o         1 BMV     -0.655800
     29 OAC         0.0240   -3.5740    2.7430 o         1 BMV     -0.655800
     30 CBC        -1.6530   -4.9140    1.4930 cc        1 BMV     -0.496600
     31 CAL        -2.3300   -5.2140    0.3010 cd        1 BMV     -0.012000
     32 CAH        -2.8230   -6.5390    0.2830 cd        1 BMV     -0.187000
     33 CAI        -2.5000   -7.2010    1.4640 cc        1 BMV     -0.181100
     34 SAX        -1.6570   -6.2410    2.4860 ss        1 BMV      0.264200
     35 HAJ        -0.5600   -0.6890   -0.4170 ha        1 BMV      0.137500
     36 HAF         1.8340   -0.0730   -0.6340 ha        1 BMV      0.131000
     37 HAE         2.9710    1.2230    1.1750 ha        1 BMV      0.129000
     38 HAG         1.6890    1.9010    3.2070 ha        1 BMV      0.131000
     39 HAK        -0.7150    1.3120    3.4200 ha        1 BMV      0.137500
     40 HAR1       -2.6160    0.3230    2.6470 hc        1 BMV      0.048200
     41 HAR2       -2.8000    0.6740    0.8800 hc        1 BMV      0.048200
     42 HBE        -2.4150   -1.6900    0.2790 h1        1 BMV      0.091700
     43 HAU1       -4.6350   -0.8100    0.5570 h1        1 BMV      0.051200
     44 HAU2       -4.5500   -0.8420    2.3780 h1        1 BMV      0.051200
     45 HAS1       -5.8900   -4.1450    0.3150 h1        1 BMV      0.049700
     46 HAS2       -6.8530   -2.6200    0.6530 h1        1 BMV      0.049700
     47 HAP        -7.2740   -1.2380   -1.5670 h4        1 BMV      0.182000
     48 HAV        -5.9100   -0.9480   -3.7230 hn        1 BMV      0.305700
     49 HAO        -3.6380   -2.1890   -3.6310 h5        1 BMV      0.069100
     50 HAN        -6.9320   -4.2990    2.1930 ha        1 BMV      0.137000
     51 HAM        -7.1090   -5.5700    4.2720 ha        1 BMV      0.142000
     52 HAQ        -3.2990   -4.0130    5.5890 ha        1 BMV      0.145000
     53 HAT1       -1.9060   -2.9700    4.2010 h1        1 BMV      0.064700
     54 HAT2       -2.9210   -1.4920    3.9090 h1        1 BMV      0.064700
     55 HAL        -2.4540   -4.5040   -0.5260 ha        1 BMV      0.186000
     56 HAH        -3.3760   -6.9720   -0.5520 ha        1 BMV      0.159000
     57 HAI        -2.7710   -8.2340    1.6820 h4        1 BMV      0.176000
@<TRIPOS>BOND
     1    1    2 ar  
     2    1    6 ar  
     3    1   35 1   
     4    2    3 ar  
     5    2   36 1   
     6    3    4 ar  
     7    3   37 1   
     8    4    5 ar  
     9    4   38 1   
    10    5    6 ar  
    11    5   39 1   
    12    6    7 1   
    13    7    8 1   
    14    7   40 1   
    15    7   41 1   
    16    8    9 1   
    17    8   26 1   
    18    8   42 1   
    19    9   10 1   
    20    9   43 1   
    21    9   44 1   
    22   10   11 1   
    23   10   17 1   
    24   11   12 1   
    25   11   45 1   
    26   11   46 1   
    27   12   13 2   
    28   12   16 1   
    29   13   14 1   
    30   13   47 1   
    31   14   15 1   
    32   14   48 1   
    33   15   16 2   
    34   15   49 1   
    35   17   18 ar  
    36   17   24 ar  
    37   18   19 ar  
    38   18   50 1   
    39   19   20 ar  
    40   19   51 1   
    41   20   21 1   
    42   20   23 ar  
    43   21   22 3   
    44   23   24 ar  
    45   23   52 1   
    46   24   25 1   
    47   25   26 1   
    48   25   53 1   
    49   25   54 1   
    50   26   27 1   
    51   27   28 2   
    52   27   29 2   
    53   27   30 1   
    54   30   31 2   
    55   30   34 1   
    56   31   32 1   
    57   31   55 1   
    58   32   33 2   
    59   32   56 1   
    60   33   34 1   
    61   33   57 1   
@<TRIPOS>SUBSTRUCTURE
     1 BMV         1 TEMP              0 ****  ****    0 ROOT
