@<TRIPOS>MOLECULE
BMW
   53    58     1     0     0
SMALL
bcc


@<TRIPOS>ATOM
      1 C1         -0.1250   -0.6030   -0.2510 ca        1 BMW     -0.077000
      2 C2          1.2610   -0.7880   -0.2910 ca        1 BMW      0.074400
      3 N3          2.1030   -1.6240    0.4770 nc        1 BMW     -0.563100
      4 C5          3.3410   -1.4060    0.0090 cd        1 BMW      0.419700
      5 N6          3.3850   -0.4690   -1.0410 na        1 BMW     -0.289300
      6 C7          2.0660   -0.0540   -1.2510 ca        1 BMW     -0.083200
      7 C8          1.4780    0.8470   -2.1440 ca        1 BMW     -0.126000
      8 C9          0.1070    1.0220   -2.0780 ca        1 BMW     -0.114000
      9 C10        -0.7020    0.3140   -1.1410 ca        1 BMW      0.110600
     10 N11        -2.0910    0.5930   -1.1460 nh        1 BMW     -0.633700
     11 C12        -2.8690    0.2550   -2.3470 c3        1 BMW      0.194800
     12 C13        -4.3400    0.0280   -1.9070 c3        1 BMW     -0.016100
     13 C14        -4.2850    0.1670   -0.4280 ca        1 BMW     -0.399900
     14 C15        -2.9220    0.4340   -0.0140 ca        1 BMW      0.687200
     15 N16        -2.5580    0.5900    1.2750 nb        1 BMW     -0.760000
     16 C17        -3.6000    0.4700    2.2010 ca        1 BMW      0.889900
     17 N18        -3.2450    0.4990    3.5800 nh        1 BMW     -0.718300
     18 C19        -4.3090    0.8240    4.5200 c3        1 BMW      0.160800
     19 C20        -3.8690    0.6920    5.9840 c3        1 BMW      0.118900
     20 O21        -2.6590    1.3910    6.2440 os        1 BMW     -0.413600
     21 C22        -1.6050    0.9410    5.4020 c3        1 BMW      0.118900
     22 C23        -1.9530    1.0850    3.9150 c3        1 BMW      0.160800
     23 N24        -4.9270    0.2470    1.8850 nb        1 BMW     -0.766000
     24 C25        -5.2510    0.0930    0.5720 cp        1 BMW      0.554800
     25 C26        -6.6680   -0.1620    0.2380 cp        1 BMW     -0.108500
     26 C27        -7.3460   -1.2200    0.8490 ca        1 BMW     -0.176000
     27 C28        -7.3280    0.6580   -0.6850 ca        1 BMW     -0.146000
     28 C29        -8.6630    0.4130   -1.0050 ca        1 BMW     -0.104000
     29 C30        -9.3540   -0.6420   -0.4180 ca        1 BMW     -0.148000
     30 C31        -8.6860   -1.4560    0.5120 ca        1 BMW      0.118100
     31 O32        -9.4160   -2.4840    1.0640 oh        1 BMW     -0.498100
     32 H1         -0.7260   -1.1660    0.4790 ha        1 BMW      0.166000
     33 H5          4.2500   -1.8940    0.3810 h5        1 BMW      0.068800
     34 HN6         4.1820   -0.1430   -1.5160 hn        1 BMW      0.306700
     35 H8          2.0820    1.4040   -2.8730 ha        1 BMW      0.138000
     36 H9         -0.3700    1.7370   -2.7680 ha        1 BMW      0.140000
     37 H12        -2.4590   -0.6620   -2.8490 h1        1 BMW      0.054200
     38 H12A       -2.7920    1.1210   -3.0570 h1        1 BMW      0.054200
     39 H13        -4.6980   -0.9850   -2.2160 hc        1 BMW      0.062700
     40 H13A       -5.0100    0.7940   -2.3710 hc        1 BMW      0.062700
     41 H19        -5.1700    0.1150    4.3630 h1        1 BMW      0.064450
     42 H19A       -4.6810    1.8750    4.3480 h1        1 BMW      0.064450
     43 H20        -4.6270    1.1810    6.6500 h1        1 BMW      0.057200
     44 H20A       -3.7470   -0.3870    6.2650 h1        1 BMW      0.057200
     45 H22        -1.3550   -0.1240    5.6500 h1        1 BMW      0.057200
     46 H22A       -0.7390    1.6090    5.6520 h1        1 BMW      0.057200
     47 H23        -1.1470    0.5580    3.3290 h1        1 BMW      0.064450
     48 H23A       -1.9330    2.1790    3.6420 h1        1 BMW      0.064450
     49 H27        -6.8370   -1.8540    1.5890 ha        1 BMW      0.148000
     50 H28        -6.7950    1.5000   -1.1500 ha        1 BMW      0.139000
     51 H29        -9.1780    1.0630   -1.7290 ha        1 BMW      0.136000
     52 H30       -10.4050   -0.8470   -0.6620 ha        1 BMW      0.151000
     53 HO32       -8.8510   -2.9410    1.7040 ho        1 BMW      0.421000
@<TRIPOS>BOND
     1    1    2 ar  
     2    1    9 ar  
     3    1   32 1   
     4    2    3 1   
     5    2    6 ar  
     6    3    4 2   
     7    4    5 1   
     8    4   33 1   
     9    5    6 1   
    10    5   34 1   
    11    6    7 ar  
    12    7    8 ar  
    13    7   35 1   
    14    8    9 ar  
    15    8   36 1   
    16    9   10 1   
    17   10   11 1   
    18   10   14 1   
    19   11   12 1   
    20   11   37 1   
    21   11   38 1   
    22   12   13 1   
    23   12   39 1   
    24   12   40 1   
    25   13   14 ar  
    26   13   24 ar  
    27   14   15 ar  
    28   15   16 ar  
    29   16   17 1   
    30   16   23 ar  
    31   17   18 1   
    32   17   22 1   
    33   18   19 1   
    34   18   41 1   
    35   18   42 1   
    36   19   20 1   
    37   19   43 1   
    38   19   44 1   
    39   20   21 1   
    40   21   22 1   
    41   21   45 1   
    42   21   46 1   
    43   22   47 1   
    44   22   48 1   
    45   23   24 ar  
    46   24   25 1   
    47   25   26 ar  
    48   25   27 ar  
    49   26   30 ar  
    50   26   49 1   
    51   27   28 ar  
    52   27   50 1   
    53   28   29 ar  
    54   28   51 1   
    55   29   30 ar  
    56   29   52 1   
    57   30   31 1   
    58   31   53 1   
@<TRIPOS>SUBSTRUCTURE
     1 BMW         1 TEMP              0 ****  ****    0 ROOT
