@<TRIPOS>MOLECULE
BMW
   53    46     1     0     0
SMALL
bcc


@<TRIPOS>ATOM
      1 C1          3.6070    0.2350   -1.8800 c1        1 BMW     -0.029000
      2 C2          4.6740   -0.3150   -2.6220 c1        1 BMW     -0.079000
      3 N3          5.9620    0.1230   -2.8480 n1        1 BMW     -0.133000
      4 C5          6.5910   -0.7970   -3.6490 c1        1 BMW     -0.037000
      5 N6          5.7020   -1.8010   -3.9190 n2        1 BMW     -0.247000
      6 C7          4.5090   -1.5010   -3.2810 c1        1 BMW     -0.026000
      7 C8          3.2730   -2.1750   -3.2190 c1        1 BMW     -0.139500
      8 C9          2.2130   -1.6280   -2.4820 c1        1 BMW     -0.139500
      9 C10         2.3810   -0.4310   -1.8170 c1        1 BMW      0.002000
     10 N11         1.3590    0.5810   -1.6770 n3        1 BMW     -0.185000
     11 C12         0.4910    0.5300   -2.7880 c3        1 BMW     -0.055000
     12 C13        -0.8790    0.3570   -2.2780 c3        1 BMW     -0.104000
     13 C14        -0.8020    0.3130   -0.7870 c2        1 BMW     -0.260000
     14 C15         0.5420    0.3010   -0.4310 c2        1 BMW      0.152000
     15 N16         0.8940    0.3480    0.8690 n1        1 BMW     -0.223000
     16 C17        -0.0780    0.4060    1.8450 c1        1 BMW      0.167000
     17 N18         0.2970    0.3670    3.2410 n3        1 BMW     -0.209000
     18 C19        -0.6900   -0.3620    3.9730 c3        1 BMW     -0.076500
     19 C20        -0.4440   -0.3230    5.5110 c3        1 BMW     -0.031000
     20 O21        -0.2720    1.0100    6.0030 os        1 BMW     -0.270000
     21 C22         0.7220    1.7440    5.2710 c3        1 BMW     -0.031000
     22 C23         0.4720    1.7030    3.7280 c3        1 BMW     -0.076500
     23 N24        -1.4150    0.4180    1.4910 n1        1 BMW     -0.235000
     24 C25        -1.7700    0.3710    0.1870 c1        1 BMW      0.117000
     25 C26        -3.1280    0.3420   -0.1700 c1        1 BMW     -0.007000
     26 C27        -3.7770   -0.8790   -0.3340 c1        1 BMW     -0.119000
     27 C28        -3.8300    1.5310   -0.3410 c1        1 BMW     -0.146000
     28 C29        -5.1800    1.4970   -0.6760 c1        1 BMW     -0.139500
     29 C30        -5.8240    0.2720   -0.8390 c1        1 BMW     -0.139500
     30 C31        -5.1180   -0.9140   -0.6670 c1        1 BMW      0.072000
     31 O32        -5.8040   -2.1450   -0.6890 oh        1 BMW     -0.250000
     32 H1          3.7300    1.1060   -1.3980 ha        1 BMW      0.166000
     33 H5          7.4780   -0.7040   -4.0320 DU        1 BMW      0.228000
     34 HN6         5.8580   -2.5040   -4.4080 DU        1 BMW      0.228000
     35 H8          3.1510   -3.0590   -3.7110 ha        1 BMW      0.136000
     36 H9          1.3520   -2.0980   -2.4380 ha        1 BMW      0.136000
     37 H12         0.5500    1.4150   -3.3050 h1        1 BMW      0.095000
     38 H12A        0.7330   -0.2620   -3.3610 h1        1 BMW      0.095000
     39 H13        -1.4410    1.1460   -2.5610 hc        1 BMW      0.100500
     40 H13A       -1.2350   -0.4820   -2.6030 hc        1 BMW      0.100500
     41 H19        -1.6140    0.0410    3.7760 h1        1 BMW      0.104000
     42 H19A       -0.6800   -1.3230    3.6650 h1        1 BMW      0.104000
     43 H20         0.4070   -0.8730    5.7290 h1        1 BMW      0.095750
     44 H20A       -1.2420   -0.7480    5.9830 h1        1 BMW      0.095750
     45 H22         1.6350    1.3440    5.4670 h1        1 BMW      0.095750
     46 H22A        0.7140    2.6540    5.5620 h1        1 BMW      0.095750
     47 H23        -0.3760    2.2500    3.5120 h1        1 BMW      0.104000
     48 H23A        1.2820    2.1340    3.2440 h1        1 BMW      0.104000
     49 H27        -3.2790   -1.7200   -0.2140 ha        1 BMW      0.164000
     50 H28        -3.3790    2.3820   -0.2270 ha        1 BMW      0.140000
     51 H29        -5.6550    2.2950   -0.7920 ha        1 BMW      0.136000
     52 H30        -6.7740    0.2450   -1.0750 ha        1 BMW      0.136000
     53 HO32       -5.8950   -2.4190   -1.5340 ho        1 BMW      0.217000
@<TRIPOS>BOND
     1    1    9 1   
     2    1   32 1   
     3    2    6 1   
     4    3    4 1   
     5    4    5 1   
     6    5    6 1   
     7    7    8 1   
     8    7   35 1   
     9    8   36 1   
    10    9   10 1   
    11   10   11 1   
    12   10   14 1   
    13   11   12 1   
    14   11   37 1   
    15   11   38 1   
    16   12   13 1   
    17   12   39 1   
    18   12   40 1   
    19   13   14 1   
    20   13   24 1   
    21   14   15 1   
    22   16   17 1   
    23   16   23 1   
    24   17   18 1   
    25   17   22 1   
    26   18   19 1   
    27   18   41 1   
    28   18   42 1   
    29   19   20 1   
    30   19   43 1   
    31   19   44 1   
    32   20   21 1   
    33   21   22 1   
    34   21   45 1   
    35   21   46 1   
    36   22   47 1   
    37   22   48 1   
    38   25   27 1   
    39   26   30 1   
    40   26   49 1   
    41   27   50 1   
    42   28   29 1   
    43   28   51 1   
    44   29   52 1   
    45   30   31 1   
    46   31   53 1   
@<TRIPOS>SUBSTRUCTURE
     1 BMW         1 TEMP              0 ****  ****    0 ROOT
