@<TRIPOS>MOLECULE
BMW
   53    58     1     0     0
SMALL
bcc


@<TRIPOS>ATOM
      1 C1         -3.0280    0.6780    0.7080 ca        1 BMW     -0.077000
      2 C2         -4.3970    0.5260    0.9540 ca        1 BMW      0.074400
      3 N3         -5.0840   -0.3080    1.8640 nc        1 BMW     -0.563100
      4 C5         -6.3850   -0.0390    1.6790 cd        1 BMW      0.419700
      5 N6         -6.6200    0.9380    0.6930 na        1 BMW     -0.289300
      6 C7         -5.3620    1.3150    0.2090 ca        1 BMW     -0.083200
      7 C8         -4.9470    2.2320   -0.7620 ca        1 BMW     -0.126000
      8 C9         -3.5890    2.3570   -0.9950 ca        1 BMW     -0.114000
      9 C10        -2.6240    1.5900   -0.2770 ca        1 BMW      0.110600
     10 N11        -1.2630    1.7820   -0.6190 nh        1 BMW     -0.633700
     11 C12        -0.6590    3.1020   -0.3760 c3        1 BMW      0.194800
     12 C13         0.8690    2.8940   -0.1940 c3        1 BMW     -0.016100
     13 C14         1.0280    1.4180   -0.2550 ca        1 BMW     -0.399900
     14 C15        -0.2670    0.7940   -0.4400 ca        1 BMW      0.687200
     15 N16        -0.4420   -0.5410   -0.5150 nb        1 BMW     -0.760000
     16 C17         0.7300   -1.2970   -0.3960 ca        1 BMW      0.889900
     17 N18         0.5820   -2.7120   -0.3400 nh        1 BMW     -0.718300
     18 C19         1.7610   -3.5030   -0.6650 c3        1 BMW      0.160800
     19 C20         1.5480   -5.0050   -0.4400 c3        1 BMW      0.118900
     20 O21         0.3650   -5.4780   -1.0700 os        1 BMW     -0.413600
     21 C22        -0.7850   -4.7750   -0.6160 c3        1 BMW      0.118900
     22 C23        -0.6670   -3.2640   -0.8490 c3        1 BMW      0.160800
     23 N24         2.0020   -0.7780   -0.2480 nb        1 BMW     -0.766000
     24 C25         2.1330    0.5750   -0.1750 cp        1 BMW      0.554800
     25 C26         3.4930    1.1260   -0.0010 cp        1 BMW     -0.108500
     26 C27         4.2930    0.6810    1.0560 ca        1 BMW     -0.176000
     27 C28         3.9790    2.0880   -0.8940 ca        1 BMW     -0.146000
     28 C29         5.2600    2.6130   -0.7260 ca        1 BMW     -0.104000
     29 C30         6.0690    2.1930    0.3250 ca        1 BMW     -0.148000
     30 C31         5.5760    1.2230    1.2130 ca        1 BMW      0.118100
     31 O32         6.4180    0.8420    2.2350 oh        1 BMW     -0.498100
     32 H1         -2.3050    0.0770    1.2800 ha        1 BMW      0.166000
     33 H5         -7.2100   -0.5120    2.2250 h5        1 BMW      0.068800
     34 HN6        -7.4900    1.2720    0.3790 hn        1 BMW      0.306700
     35 H8         -5.6730    2.8310   -1.3270 ha        1 BMW      0.138000
     36 H9         -3.2470    3.0670   -1.7640 ha        1 BMW      0.140000
     37 H12        -0.8720    3.7430   -1.2720 h1        1 BMW      0.054200
     38 H12A       -1.1050    3.5890    0.5320 h1        1 BMW      0.054200
     39 H13         1.4330    3.4070   -1.0110 hc        1 BMW      0.062700
     40 H13A        1.2130    3.3080    0.7860 hc        1 BMW      0.062700
     41 H19         2.0630   -3.3370   -1.7380 h1        1 BMW      0.064450
     42 H19A        2.6140   -3.1830   -0.0040 h1        1 BMW      0.064450
     43 H20         2.3770   -5.5810   -0.9280 h1        1 BMW      0.057200
     44 H20A        1.5090   -5.2400    0.6570 h1        1 BMW      0.057200
     45 H22        -1.6280   -5.1860   -1.2300 h1        1 BMW      0.057200
     46 H22A       -0.9560   -4.9970    0.4710 h1        1 BMW      0.057200
     47 H23        -1.5310   -2.7740   -0.3170 h1        1 BMW      0.064450
     48 H23A       -0.7680   -3.0590   -1.9540 h1        1 BMW      0.064450
     49 H27         3.9230   -0.0880    1.7480 ha        1 BMW      0.148000
     50 H28         3.3520    2.4220   -1.7340 ha        1 BMW      0.139000
     51 H29         5.6380    3.3660   -1.4340 ha        1 BMW      0.136000
     52 H30         7.0790    2.6000    0.4700 ha        1 BMW      0.151000
     53 HO32        5.9710    0.1530    2.7480 ho        1 BMW      0.421000
@<TRIPOS>BOND
     1    1    2 ar  
     2    1    9 ar  
     3    1   32 1   
     4    2    3 1   
     5    2    6 ar  
     6    3    4 2   
     7    4    5 1   
     8    4   33 1   
     9    5    6 1   
    10    5   34 1   
    11    6    7 ar  
    12    7    8 ar  
    13    7   35 1   
    14    8    9 ar  
    15    8   36 1   
    16    9   10 1   
    17   10   11 1   
    18   10   14 1   
    19   11   12 1   
    20   11   37 1   
    21   11   38 1   
    22   12   13 1   
    23   12   39 1   
    24   12   40 1   
    25   13   14 ar  
    26   13   24 ar  
    27   14   15 ar  
    28   15   16 ar  
    29   16   17 1   
    30   16   23 ar  
    31   17   18 1   
    32   17   22 1   
    33   18   19 1   
    34   18   41 1   
    35   18   42 1   
    36   19   20 1   
    37   19   43 1   
    38   19   44 1   
    39   20   21 1   
    40   21   22 1   
    41   21   45 1   
    42   21   46 1   
    43   22   47 1   
    44   22   48 1   
    45   23   24 ar  
    46   24   25 1   
    47   25   26 ar  
    48   25   27 ar  
    49   26   30 ar  
    50   26   49 1   
    51   27   28 ar  
    52   27   50 1   
    53   28   29 ar  
    54   28   51 1   
    55   29   30 ar  
    56   29   52 1   
    57   30   31 1   
    58   31   53 1   
@<TRIPOS>SUBSTRUCTURE
     1 BMW         1 TEMP              0 ****  ****    0 ROOT
