@<TRIPOS>MOLECULE
BMW
   53    58     1     0     0
SMALL
bcc


@<TRIPOS>ATOM
      1 C1         -0.1230   -0.5910   -0.2530 ca        1 BMW     -0.077000
      2 C2          1.2630   -0.7740   -0.2940 ca        1 BMW      0.074400
      3 N3          2.1050   -1.6130    0.4690 nc        1 BMW     -0.563100
      4 C5          3.3430   -1.3900    0.0040 cd        1 BMW      0.419700
      5 N6          3.3870   -0.4460   -1.0400 na        1 BMW     -0.289300
      6 C7          2.0680   -0.0330   -1.2490 ca        1 BMW     -0.083200
      7 C8          1.4780    0.8730   -2.1360 ca        1 BMW     -0.126000
      8 C9          0.1080    1.0460   -2.0700 ca        1 BMW     -0.114000
      9 C10        -0.7010    0.3300   -1.1390 ca        1 BMW      0.110600
     10 N11        -2.0910    0.6070   -1.1420 nh        1 BMW     -0.632700
     11 C12        -2.8680    0.2740   -2.3460 c3        1 BMW      0.194800
     12 C13        -4.3390    0.0420   -1.9080 c3        1 BMW     -0.016100
     13 C14        -4.2840    0.1720   -0.4290 ca        1 BMW     -0.399900
     14 C15        -2.9230    0.4400   -0.0120 ca        1 BMW      0.687200
     15 N16        -2.5600    0.5890    1.2780 nb        1 BMW     -0.760000
     16 C17        -3.6020    0.4620    2.2030 ca        1 BMW      0.889900
     17 N18        -3.2470    0.4830    3.5820 nh        1 BMW     -0.718300
     18 C19        -4.3130    0.8010    4.5230 c3        1 BMW      0.160800
     19 C20        -3.8730    0.6620    5.9860 c3        1 BMW      0.118900
     20 O21        -2.6650    1.3610    6.2510 os        1 BMW     -0.413600
     21 C22        -1.6100    0.9180    5.4070 c3        1 BMW      0.118900
     22 C23        -1.9570    1.0690    3.9210 c3        1 BMW      0.160800
     23 N24        -4.9280    0.2380    1.8850 nb        1 BMW     -0.766000
     24 C25        -5.2500    0.0910    0.5710 cp        1 BMW      0.554800
     25 C26        -6.6670   -0.1650    0.2340 cp        1 BMW     -0.108500
     26 C27        -7.3430   -1.2280    0.8390 ca        1 BMW     -0.176000
     27 C28        -7.3280    0.6590   -0.6840 ca        1 BMW     -0.146000
     28 C29        -8.6630    0.4130   -1.0070 ca        1 BMW     -0.104000
     29 C30        -9.3520   -0.6470   -0.4260 ca        1 BMW     -0.148000
     30 C31        -8.6820   -1.4640    0.5000 ca        1 BMW      0.118100
     31 O32        -9.4110   -2.4980    1.0450 oh        1 BMW     -0.498100
     32 H1         -0.7240   -1.1600    0.4730 ha        1 BMW      0.166000
     33 H5          4.2530   -1.8790    0.3730 h5        1 BMW      0.068800
     34 HN6         4.1840   -0.1160   -1.5120 hn        1 BMW      0.306700
     35 H8          2.0820    1.4360   -2.8610 ha        1 BMW      0.138000
     36 H9         -0.3700    1.7640   -2.7560 ha        1 BMW      0.140000
     37 H12        -2.4560   -0.6390   -2.8540 h1        1 BMW      0.054200
     38 H12A       -2.7920    1.1440   -3.0510 h1        1 BMW      0.054200
     39 H13        -4.6940   -0.9700   -2.2230 hc        1 BMW      0.062700
     40 H13A       -5.0100    0.8090   -2.3680 hc        1 BMW      0.062700
     41 H19        -5.1720    0.0920    4.3620 h1        1 BMW      0.064450
     42 H19A       -4.6860    1.8530    4.3560 h1        1 BMW      0.064450
     43 H20        -4.6320    1.1460    6.6550 h1        1 BMW      0.057200
     44 H20A       -3.7500   -0.4190    6.2610 h1        1 BMW      0.057200
     45 H22        -1.3580   -0.1480    5.6490 h1        1 BMW      0.057200
     46 H22A       -0.7450    1.5860    5.6610 h1        1 BMW      0.057200
     47 H23        -1.1490    0.5480    3.3330 h1        1 BMW      0.064450
     48 H23A       -1.9380    2.1650    3.6550 h1        1 BMW      0.064450
     49 H27        -6.8330   -1.8660    1.5750 ha        1 BMW      0.148000
     50 H28        -6.7960    1.5040   -1.1440 ha        1 BMW      0.139000
     51 H29        -9.1780    1.0660   -1.7270 ha        1 BMW      0.136000
     52 H30       -10.4030   -0.8530   -0.6720 ha        1 BMW      0.151000
     53 HO32       -8.8450   -2.9570    1.6830 ho        1 BMW      0.421000
@<TRIPOS>BOND
     1    1    2 ar  
     2    1    9 ar  
     3    1   32 1   
     4    2    3 1   
     5    2    6 ar  
     6    3    4 2   
     7    4    5 1   
     8    4   33 1   
     9    5    6 1   
    10    5   34 1   
    11    6    7 ar  
    12    7    8 ar  
    13    7   35 1   
    14    8    9 ar  
    15    8   36 1   
    16    9   10 1   
    17   10   11 1   
    18   10   14 1   
    19   11   12 1   
    20   11   37 1   
    21   11   38 1   
    22   12   13 1   
    23   12   39 1   
    24   12   40 1   
    25   13   14 ar  
    26   13   24 ar  
    27   14   15 ar  
    28   15   16 ar  
    29   16   17 1   
    30   16   23 ar  
    31   17   18 1   
    32   17   22 1   
    33   18   19 1   
    34   18   41 1   
    35   18   42 1   
    36   19   20 1   
    37   19   43 1   
    38   19   44 1   
    39   20   21 1   
    40   21   22 1   
    41   21   45 1   
    42   21   46 1   
    43   22   47 1   
    44   22   48 1   
    45   23   24 ar  
    46   24   25 1   
    47   25   26 ar  
    48   25   27 ar  
    49   26   30 ar  
    50   26   49 1   
    51   27   28 ar  
    52   27   50 1   
    53   28   29 ar  
    54   28   51 1   
    55   29   30 ar  
    56   29   52 1   
    57   30   31 1   
    58   31   53 1   
@<TRIPOS>SUBSTRUCTURE
     1 BMW         1 TEMP              0 ****  ****    0 ROOT
