@<TRIPOS>MOLECULE
BMW
   53    58     1     0     0
SMALL
bcc


@<TRIPOS>ATOM
      1 C1         -0.1230   -0.6020   -0.2440 ca        1 BMW     -0.077000
      2 C2          1.2640   -0.7840   -0.2820 ca        1 BMW      0.074400
      3 N3          2.1070   -1.6110    0.4920 nc        1 BMW     -0.563100
      4 C5          3.3450   -1.3930    0.0230 cd        1 BMW      0.419700
      5 N6          3.3880   -0.4640   -1.0340 na        1 BMW     -0.289300
      6 C7          2.0670   -0.0550   -1.2480 ca        1 BMW     -0.083200
      7 C8          1.4770    0.8380   -2.1470 ca        1 BMW     -0.126000
      8 C9          0.1060    1.0100   -2.0830 ca        1 BMW     -0.114000
      9 C10        -0.7020    0.3060   -1.1420 ca        1 BMW      0.110600
     10 N11        -2.0910    0.5810   -1.1490 nh        1 BMW     -0.632700
     11 C12        -2.8680    0.2300   -2.3490 c3        1 BMW      0.194800
     12 C13        -4.3390    0.0020   -1.9070 c3        1 BMW     -0.016100
     13 C14        -4.2850    0.1530   -0.4290 ca        1 BMW     -0.399900
     14 C15        -2.9230    0.4280   -0.0170 ca        1 BMW      0.687200
     15 N16        -2.5600    0.5960    1.2710 nb        1 BMW     -0.760000
     16 C17        -3.6020    0.4800    2.1980 ca        1 BMW      0.889900
     17 N18        -3.2470    0.5210    3.5760 nh        1 BMW     -0.718300
     18 C19        -4.3130    0.8490    4.5140 c3        1 BMW      0.160800
     19 C20        -3.8730    0.7310    5.9780 c3        1 BMW      0.118900
     20 O21        -2.6660    1.4370    6.2330 os        1 BMW     -0.413600
     21 C22        -1.6100    0.9850    5.3950 c3        1 BMW      0.118900
     22 C23        -1.9580    1.1150    3.9070 c3        1 BMW      0.160800
     23 N24        -4.9280    0.2500    1.8830 nb        1 BMW     -0.766000
     24 C25        -5.2500    0.0840    0.5710 cp        1 BMW      0.554800
     25 C26        -6.6660   -0.1780    0.2380 cp        1 BMW     -0.108500
     26 C27        -7.3410   -1.2340    0.8580 ca        1 BMW     -0.176000
     27 C28        -7.3290    0.6310   -0.6910 ca        1 BMW     -0.146000
     28 C29        -8.6630    0.3790   -1.0100 ca        1 BMW     -0.104000
     29 C30        -9.3510   -0.6740   -0.4140 ca        1 BMW     -0.148000
     30 C31        -8.6800   -1.4770    0.5220 ca        1 BMW      0.118100
     31 O32        -9.4070   -2.5040    1.0820 oh        1 BMW     -0.498100
     32 H1         -0.7230   -1.1620    0.4900 ha        1 BMW      0.166000
     33 H5          4.2560   -1.8760    0.4000 h5        1 BMW      0.068800
     34 HN6         4.1840   -0.1390   -1.5100 hn        1 BMW      0.306700
     35 H8          2.0800    1.3910   -2.8800 ha        1 BMW      0.138000
     36 H9         -0.3730    1.7180   -2.7790 ha        1 BMW      0.140000
     37 H12        -2.7940    1.0910   -3.0650 h1        1 BMW      0.054200
     38 H12A       -2.4550   -0.6890   -2.8430 h1        1 BMW      0.054200
     39 H13        -5.0110    0.7620   -2.3770 hc        1 BMW      0.062700
     40 H13A       -4.6920   -1.0140   -2.2080 hc        1 BMW      0.062700
     41 H19        -4.6890    1.8970    4.3320 h1        1 BMW      0.064450
     42 H19A       -5.1710    0.1350    4.3620 h1        1 BMW      0.064450
     43 H20        -4.6330    1.2220    6.6410 h1        1 BMW      0.057200
     44 H20A       -3.7470   -0.3460    6.2680 h1        1 BMW      0.057200
     45 H22        -0.7470    1.6580    5.6400 h1        1 BMW      0.057200
     46 H22A       -1.3560   -0.0770    5.6520 h1        1 BMW      0.057200
     47 H23        -1.9420    2.2070    3.6260 h1        1 BMW      0.064450
     48 H23A       -1.1500    0.5880    3.3260 h1        1 BMW      0.064450
     49 H27        -6.8300   -1.8610    1.6030 ha        1 BMW      0.148000
     50 H28        -6.7980    1.4710   -1.1630 ha        1 BMW      0.139000
     51 H29        -9.1800    1.0210   -1.7390 ha        1 BMW      0.136000
     52 H30       -10.4010   -0.8840   -0.6580 ha        1 BMW      0.151000
     53 HO32       -8.8410   -2.9540    1.7260 ho        1 BMW      0.421000
@<TRIPOS>BOND
     1    1    2 ar  
     2    1    9 ar  
     3    1   32 1   
     4    2    3 1   
     5    2    6 ar  
     6    3    4 2   
     7    4    5 1   
     8    4   33 1   
     9    5    6 1   
    10    5   34 1   
    11    6    7 ar  
    12    7    8 ar  
    13    7   35 1   
    14    8    9 ar  
    15    8   36 1   
    16    9   10 1   
    17   10   11 1   
    18   10   14 1   
    19   11   12 1   
    20   11   37 1   
    21   11   38 1   
    22   12   13 1   
    23   12   39 1   
    24   12   40 1   
    25   13   14 ar  
    26   13   24 ar  
    27   14   15 ar  
    28   15   16 ar  
    29   16   17 1   
    30   16   23 ar  
    31   17   18 1   
    32   17   22 1   
    33   18   19 1   
    34   18   41 1   
    35   18   42 1   
    36   19   20 1   
    37   19   43 1   
    38   19   44 1   
    39   20   21 1   
    40   21   22 1   
    41   21   45 1   
    42   21   46 1   
    43   22   47 1   
    44   22   48 1   
    45   23   24 ar  
    46   24   25 1   
    47   25   26 ar  
    48   25   27 ar  
    49   26   30 ar  
    50   26   49 1   
    51   27   28 ar  
    52   27   50 1   
    53   28   29 ar  
    54   28   51 1   
    55   29   30 ar  
    56   29   52 1   
    57   30   31 1   
    58   31   53 1   
@<TRIPOS>SUBSTRUCTURE
     1 BMW         1 TEMP              0 ****  ****    0 ROOT
