@<TRIPOS>MOLECULE
BMX
   33    33     1     0     0
SMALL
bcc


@<TRIPOS>ATOM
      1 C1         -1.6120   -0.7550   -1.4980 c3        1 BMX      0.343900
      2 C2         -2.6010    0.0430   -0.5950 c3        1 BMX      0.044700
      3 C3         -1.8530    1.2950   -0.1020 c3        1 BMX      0.032100
      4 C4         -0.5000    0.9330    0.6230 c3        1 BMX      0.368800
      5 C5          0.3580    0.1850   -0.4330 c3        1 BMX      0.042100
      6 C6          1.6470   -0.3770    0.1900 c3        1 BMX      0.200400
      7 C8         -4.8340   -1.7390    1.9440 c3        1 BMX     -0.177100
      8 N2         -3.1030   -0.7850    0.4810 n         1 BMX     -0.509900
      9 O1         -1.4660   -0.1140   -2.7480 oh        1 BMX     -0.651800
     10 O3         -2.6760    2.0490    0.7700 oh        1 BMX     -0.651800
     11 O4          0.0490    2.0140    1.1290 o         1 BMX     -0.866500
     12 O5         -0.3360   -0.9670   -0.9670 os        1 BMX     -0.454600
     13 O6          2.7580   -0.0000   -0.5630 os        1 BMX     -0.591200
     14 O7         -5.2680   -1.0170   -0.3010 o         1 BMX     -0.661100
     15 P           3.9190    0.8870    0.2180 p5        1 BMX      1.438800
     16 O19         5.0540    1.0670   -0.7150 o         1 BMX     -0.856500
     17 O17         3.0990    2.2800    0.3390 oh        1 BMX     -0.811400
     18 O18         4.0700    0.2990    1.5700 o         1 BMX     -0.856500
     19 H1         -2.0140   -1.7820   -1.7380 h2        1 BMX      0.067700
     20 HA         -0.8910    0.6510   -2.6260 ho        1 BMX      0.417000
     21 H2         -3.4740    0.3520   -1.2410 h1        1 BMX      0.069700
     22 HB         -2.5310   -0.7860    1.2980 hn        1 BMX      0.321500
     23 H3         -1.6360    1.9310   -1.0050 h1        1 BMX      0.021700
     24 H81C       -4.2050   -2.6310    2.1810 hc        1 BMX      0.049700
     25 H82C       -4.7210   -0.9870    2.7610 hc        1 BMX      0.049700
     26 H83C       -5.9030   -2.0530    1.8820 hc        1 BMX      0.049700
     27 HC         -2.0530    2.4840    1.3810 ho        1 BMX      0.433000
     28 H4         -0.7670    0.1530    1.4180 h1        1 BMX     -0.096300
     29 HD          2.1980    2.2050    0.6600 ho        1 BMX      0.474000
     30 H5          0.6200    0.8730   -1.2800 h1        1 BMX      0.039700
     31 H61C        1.7440    0.0000    1.2470 h1        1 BMX      0.035200
     32 H62C        1.5850   -1.5030    0.1990 h1        1 BMX      0.035200
     33 C7         -4.4230   -1.1280    0.6180 c         1 BMX      0.651100
@<TRIPOS>BOND
     1    1    2 1   
     2    1    9 1   
     3    1   12 1   
     4    1   19 1   
     5    2    3 1   
     6    2    8 1   
     7    2   21 1   
     8    3    4 1   
     9    3   10 1   
    10    3   23 1   
    11    4    5 1   
    12    4   11 1   
    13    4   28 1   
    14    5    6 1   
    15    5   12 1   
    16    5   30 1   
    17    6   13 1   
    18    6   31 1   
    19    6   32 1   
    20    7   24 1   
    21    7   25 1   
    22    7   26 1   
    23    7   33 1   
    24    8   22 1   
    25    8   33 1   
    26    9   20 1   
    27   10   27 1   
    28   13   15 1   
    29   14   33 2   
    30   15   16 1   
    31   15   17 1   
    32   15   18 1   
    33   17   29 1   
@<TRIPOS>SUBSTRUCTURE
     1 BMX         1 TEMP              0 ****  ****    0 ROOT
