@<TRIPOS>MOLECULE
BMX
   33    32     1     0     0
SMALL
bcc


@<TRIPOS>ATOM
      1 C1         -0.8340   -1.2090   -1.0640 c3        1 BMX      0.161000
      2 C2          0.6780   -1.2090   -1.0640 c3        1 BMX     -0.032000
      3 C3          1.2420   -1.2090    0.3080 c3        1 BMX     -0.079000
      4 C4          0.6650   -0.1230    1.1560 c3        1 BMX      0.168000
      5 C5         -0.8520   -0.1270    1.1450 c3        1 BMX     -0.069000
      6 C6         -1.3470    1.0940    1.8670 c3        1 BMX      0.050000
      7 C7          1.8360   -0.1570   -3.0200 c1        1 BMX      0.295000
      8 C8          2.3060    1.0810   -3.7670 c3        1 BMX     -0.245000
      9 N2          1.1500   -0.0220   -1.7680 n2        1 BMX     -0.319000
     10 O1         -1.2810   -2.4300   -0.5980 oh        1 BMX     -0.379000
     11 O3          2.6780   -1.0260    0.2250 oh        1 BMX     -0.379000
     12 O4          1.1180   -0.2980    2.5040 oh        1 BMX     -0.705000
     13 O5         -1.4030   -0.1310   -0.2110 os        1 BMX     -0.311000
     14 O6         -2.7330    0.9610    2.1250 os        1 BMX     -0.753000
     15 O7          2.0240   -1.2590   -3.4930 o         1 BMX     -0.422000
     16 P          -3.4360    2.0360    3.0600 p5        1 BMX      1.586500
     17 O19        -3.2710    3.4110    2.4580 o         1 BMX     -0.745833
     18 O17        -2.8010    2.0060    4.4290 o         1 BMX     -0.745833
     19 O18        -4.9090    1.7120    3.1800 o         1 BMX     -0.745833
     20 H1         -1.1490   -1.0860   -1.9790 h2        1 BMX      0.107000
     21 HA         -1.8990   -2.7490   -1.1500 ho        1 BMX      0.216000
     22 H2          0.9950   -2.0030   -1.5350 h1        1 BMX      0.109000
     23 HB          0.9840    0.8070   -1.4250 hn        1 BMX      0.235000
     24 H3          1.0560   -2.0710    0.7270 h1        1 BMX      0.061000
     25 H81C        2.9300    1.5820   -3.2070 hc        1 BMX      0.089000
     26 H82C        1.5370    1.6440   -3.9800 hc        1 BMX      0.089000
     27 H83C        2.7520    0.8130   -4.5930 hc        1 BMX      0.089000
     28 HC          3.0870   -1.7650    0.4990 ho        1 BMX      0.232000
     29 H4          0.9810    0.7380    0.8250 h1        1 BMX     -0.057000
     30 HD          1.1250   -1.1630    2.7050 ho        1 BMX      0.273000
     31 H5         -1.1690   -0.9210    1.6160 h1        1 BMX      0.079000
     32 H61C       -0.8660    1.1900    2.7110 h1        1 BMX      0.074500
     33 H62C       -1.1930    1.8840    1.3130 h1        1 BMX      0.074500
@<TRIPOS>BOND
     1    1    2 1   
     2    1   10 1   
     3    1   13 1   
     4    1   20 1   
     5    2    3 1   
     6    2    9 1   
     7    2   22 1   
     8    3    4 1   
     9    3   11 1   
    10    3   24 1   
    11    4    5 1   
    12    4   12 1   
    13    4   29 1   
    14    5    6 1   
    15    5   13 1   
    16    5   31 1   
    17    6   14 1   
    18    6   32 1   
    19    6   33 1   
    20    7    8 1   
    21    7   15 1   
    22    8   25 1   
    23    8   26 1   
    24    8   27 1   
    25    9   23 1   
    26   10   21 1   
    27   11   28 1   
    28   12   30 1   
    29   14   16 1   
    30   16   17 1   
    31   16   18 1   
    32   16   19 1   
@<TRIPOS>SUBSTRUCTURE
     1 BMX         1 TEMP              0 ****  ****    0 ROOT
