@<TRIPOS>MOLECULE
BMZ
   32    24     1     0     0
SMALL
bcc


@<TRIPOS>ATOM
      1 C1         -0.4060    0.0850   -3.0900 c1        1 BMZ     -0.206000
      2 C2          0.9780    0.1110   -3.1210 c1        1 BMZ     -0.112000
      3 C3          1.6980    0.1300   -1.9370 c1        1 BMZ     -0.112000
      4 C4          1.0220    0.1230   -0.7020 c1        1 BMZ     -0.025000
      5 C5         -0.3420    0.0980   -0.6710 c1        1 BMZ     -0.025000
      6 C6         -1.0720    0.0790   -1.8750 c1        1 BMZ     -0.019000
      7 C7         -1.1160    0.0720   -4.4260 c2        1 BMZ      0.351000
      8 N1         -1.4520    1.2940   -5.0630 n3        1 BMZ     -0.322000
      9 N2         -1.4210   -1.0680   -4.9930 n2        1 BMZ     -0.323000
     10 N3          1.4690    0.1380    0.5780 n1        1 BMZ     -0.169500
     11 N4         -0.7310    0.0970    0.6270 n1        1 BMZ     -0.169500
     12 C8          0.3870    0.1220    1.4010 c2        1 BMZ      0.128000
     13 C1'         0.2810    0.1120    2.7830 c1        1 BMZ     -0.096000
     14 C2'         0.2530    1.3070    3.4840 c1        1 BMZ     -0.112000
     15 C3'         0.1750    1.2970    4.8680 c1        1 BMZ     -0.112000
     16 C4'         0.1240    0.0910    5.5500 c1        1 BMZ     -0.112000
     17 C5'         0.1520   -1.1040    4.8490 c1        1 BMZ     -0.112000
     18 C6'         0.2300   -1.0940    3.4650 c1        1 BMZ      0.111000
     19 O6'         0.2090   -2.3060    2.7510 oh        1 BMZ     -0.282000
     20 HC2         1.4470    0.1150   -3.9770 ha        1 BMZ      0.154500
     21 HC3         2.6740    0.1480   -1.9590 ha        1 BMZ      0.154500
     22 HC6        -2.0480    0.0610   -1.8530 ha        1 BMZ      0.160000
     23 HH11       -2.0740    1.3030   -5.7330 hn        1 BMZ      0.274500
     24 HH12       -1.0210    2.0650   -4.8290 hn        1 BMZ      0.274500
     25 HH21       -1.2040   -1.8570   -4.5820 DU        1 BMZ      0.287500
     26 HH22       -1.8510   -1.0760   -5.8020 hn        1 BMZ      0.264000
     27 HN3         2.3420    0.1550    0.8410 DU        1 BMZ      0.287500
     28 HC2'        0.2890    2.1560    3.0040 ha        1 BMZ      0.154500
     29 HC3'        0.1560    2.1380    5.3620 ha        1 BMZ      0.154500
     30 HC4'        0.0690    0.0840    6.5250 ha        1 BMZ      0.154500
     31 HC5'        0.1160   -1.9530    5.3300 ha        1 BMZ      0.154500
     32 HO6         0.6670   -2.9220    3.1980 ho        1 BMZ      0.245000
@<TRIPOS>BOND
     1    1    6 1   
     2    1    7 1   
     3    2    3 1   
     4    2   20 1   
     5    3   21 1   
     6    4    5 1   
     7    6   22 1   
     8    7    8 1   
     9    7    9 1   
    10    8   23 1   
    11    8   24 1   
    12    9   26 1   
    13   10   12 1   
    14   11   12 1   
    15   12   13 1   
    16   13   18 1   
    17   14   15 1   
    18   14   28 1   
    19   15   29 1   
    20   16   17 1   
    21   16   30 1   
    22   17   31 1   
    23   18   19 1   
    24   19   32 1   
@<TRIPOS>SUBSTRUCTURE
     1 BMZ         1 TEMP              0 ****  ****    0 ROOT
