@<TRIPOS>MOLECULE
BMZ
   32    34     1     0     0
SMALL
bcc


@<TRIPOS>ATOM
      1 C1         -0.0040    0.0130   -0.0230 ca        1 BMZ     -0.291900
      2 C2          1.3750   -0.2990   -0.0180 ca        1 BMZ     -0.085000
      3 C3          2.0790   -0.4400    1.1650 ca        1 BMZ     -0.117000
      4 C4          1.3820   -0.2560    2.3680 ca        1 BMZ     -0.020200
      5 C5         -0.0450    0.0700    2.3700 ca        1 BMZ      0.063400
      6 C6         -0.7260    0.1990    1.1620 ca        1 BMZ     -0.014000
      7 C7         -0.7070    0.1460   -1.3200 ce        1 BMZ      0.528400
      8 N1         -1.9180   -0.4430   -1.4680 nh        1 BMZ     -0.476100
      9 N2         -0.1180    0.8510   -2.3140 nh        1 BMZ     -0.460200
     10 N3          1.7570   -0.3090    3.7000 na        1 BMZ     -0.265300
     11 N4         -0.4960    0.2020    3.6980 nc        1 BMZ     -0.526100
     12 C8          0.5870   -0.0350    4.4690 cd        1 BMZ      0.539400
     13 C1'         0.6420   -0.0220    5.9300 ca        1 BMZ     -0.194900
     14 C2'         1.5100    0.8590    6.5910 ca        1 BMZ     -0.069000
     15 C3'         1.5470    0.9000    7.9800 ca        1 BMZ     -0.163000
     16 C4'         0.7140    0.0620    8.7290 ca        1 BMZ     -0.053000
     17 C5'        -0.1490   -0.8230    8.0950 ca        1 BMZ     -0.213000
     18 C6'        -0.1870   -0.8700    6.6900 ca        1 BMZ      0.180100
     19 O6'        -0.9920   -1.7450    6.0070 oh        1 BMZ     -0.485100
     20 HC2         1.9060   -0.4640   -0.9700 ha        1 BMZ      0.143000
     21 HC3         3.1500   -0.6940    1.1590 ha        1 BMZ      0.165000
     22 HC6        -1.7960    0.4630    1.1630 ha        1 BMZ      0.161000
     23 HH11       -2.2890   -0.9710   -0.7050 hn        1 BMZ      0.323700
     24 HH12       -2.4610   -0.3700   -2.2990 hn        1 BMZ      0.323700
     25 HH21        0.7610    1.2880   -2.1340 hn        1 BMZ      0.323700
     26 HH22       -0.5210    0.9600   -3.2180 hn        1 BMZ      0.323700
     27 HN3         2.6470   -0.5410    4.0600 hn        1 BMZ      0.327700
     28 HC2'        2.1550    1.5310    6.0040 ha        1 BMZ      0.141000
     29 HC3'        2.2270    1.5970    8.4920 ha        1 BMZ      0.152000
     30 HC4'        0.7430    0.1030    9.8300 ha        1 BMZ      0.152000
     31 HC5'       -0.8040   -1.4830    8.6820 ha        1 BMZ      0.151000
     32 HO6        -1.5510   -2.2080    6.6510 ho        1 BMZ      0.435000
@<TRIPOS>BOND
     1    1    2 ar  
     2    1    6 ar  
     3    1    7 1   
     4    2    3 ar  
     5    2   20 1   
     6    3    4 ar  
     7    3   21 1   
     8    4    5 ar  
     9    4   10 1   
    10    5    6 ar  
    11    5   11 1   
    12    6   22 1   
    13    7    8 2   
    14    7    9 1   
    15    8   23 1   
    16    8   24 1   
    17    9   25 1   
    18    9   26 1   
    19   10   12 1   
    20   10   27 1   
    21   11   12 2   
    22   12   13 1   
    23   13   14 ar  
    24   13   18 ar  
    25   14   15 ar  
    26   14   28 1   
    27   15   16 ar  
    28   15   29 1   
    29   16   17 ar  
    30   16   30 1   
    31   17   18 ar  
    32   17   31 1   
    33   18   19 1   
    34   19   32 1   
@<TRIPOS>SUBSTRUCTURE
     1 BMZ         1 TEMP              0 ****  ****    0 ROOT
