@<TRIPOS>MOLECULE
BMZ
   32    34     1     0     0
SMALL
bcc


@<TRIPOS>ATOM
      1 C1          3.3220   -0.0040    0.0170 ca        1 BMZ     -0.285900
      2 C2          3.1730   -1.2800   -0.5710 ca        1 BMZ     -0.086000
      3 C3          1.9210   -1.8250   -0.8040 ca        1 BMZ     -0.113000
      4 C4          0.8000   -1.0710   -0.4290 ca        1 BMZ     -0.022200
      5 C5          0.9490    0.2510    0.1780 ca        1 BMZ      0.072400
      6 C6          2.2230    0.7740    0.3940 ca        1 BMZ     -0.019000
      7 C7          4.6880    0.5270    0.2440 ce        1 BMZ      0.527400
      8 N1          4.9550    1.8080   -0.1040 nh        1 BMZ     -0.474100
      9 N2          5.6220   -0.2860    0.7920 nh        1 BMZ     -0.458200
     10 N3         -0.5650   -1.3000   -0.5040 na        1 BMZ     -0.263300
     11 N4         -0.3230    0.7800    0.4600 nc        1 BMZ     -0.578100
     12 C8         -1.2100   -0.1550    0.0470 cd        1 BMZ      0.535400
     13 C1'        -2.6660   -0.0880    0.1370 ca        1 BMZ     -0.248900
     14 C2'        -3.3760   -1.2460    0.5140 ca        1 BMZ     -0.077000
     15 C3'        -4.7570   -1.2320    0.6110 ca        1 BMZ     -0.160000
     16 C4'        -5.4680   -0.0560    0.3330 ca        1 BMZ     -0.058000
     17 C5'        -4.7980    1.0990   -0.0310 ca        1 BMZ     -0.160000
     18 C6'        -3.3860    1.0930   -0.1250 ca        1 BMZ      0.198100
     19 O6'        -2.8440    2.2870   -0.5090 oh        1 BMZ     -0.482100
     20 HC2         4.0620   -1.8530   -0.8780 ha        1 BMZ      0.146000
     21 HC3         1.8140   -2.8160   -1.2700 ha        1 BMZ      0.168000
     22 HC6         2.3360    1.7600    0.8730 ha        1 BMZ      0.162000
     23 HH11        4.2310    2.3490   -0.5280 hn        1 BMZ      0.324950
     24 HH12        5.8400    2.2400    0.0440 hn        1 BMZ      0.324950
     25 HH21        6.5630   -0.0040    0.9530 hn        1 BMZ      0.324950
     26 HH22        5.3540   -1.2100    1.0570 hn        1 BMZ      0.324950
     27 HN3        -1.0170   -2.1000   -0.8670 hn        1 BMZ      0.330700
     28 HC2'       -2.8280   -2.1690    0.7580 ha        1 BMZ      0.131000
     29 HC3'       -5.3000   -2.1410    0.9100 ha        1 BMZ      0.151000
     30 HC4'       -6.5680   -0.0510    0.4100 ha        1 BMZ      0.154000
     31 HC5'       -5.3350    2.0340   -0.2480 ha        1 BMZ      0.169000
     32 HO6        -1.8790    2.2500   -0.4530 ho        1 BMZ      0.441000
@<TRIPOS>BOND
     1    1    2 ar  
     2    1    6 ar  
     3    1    7 1   
     4    2    3 ar  
     5    2   20 1   
     6    3    4 ar  
     7    3   21 1   
     8    4    5 ar  
     9    4   10 1   
    10    5    6 ar  
    11    5   11 1   
    12    6   22 1   
    13    7    8 2   
    14    7    9 1   
    15    8   23 1   
    16    8   24 1   
    17    9   25 1   
    18    9   26 1   
    19   10   12 1   
    20   10   27 1   
    21   11   12 2   
    22   12   13 1   
    23   13   14 ar  
    24   13   18 ar  
    25   14   15 ar  
    26   14   28 1   
    27   15   16 ar  
    28   15   29 1   
    29   16   17 ar  
    30   16   30 1   
    31   17   18 ar  
    32   17   31 1   
    33   18   19 1   
    34   19   32 1   
@<TRIPOS>SUBSTRUCTURE
     1 BMZ         1 TEMP              0 ****  ****    0 ROOT
