@<TRIPOS>MOLECULE
BN1
   27    28     1     0     0
SMALL
bcc


@<TRIPOS>ATOM
      1 O1         -4.0820   -0.1550   -0.2060 o         1 BN1     -0.832300
      2 C1         -3.5960    0.8980    0.3110 c         1 BN1      0.886600
      3 O2         -4.2560    1.9450    0.5360 o         1 BN1     -0.832300
      4 C2         -2.0840    0.8590    0.7040 c3        1 BN1      0.019500
      5 N1         -1.5820    2.0890    1.2980 n3        1 BN1     -0.882800
      6 C3         -1.2710    0.4150   -0.5290 c3        1 BN1     -0.019100
      7 C4         -0.5050   -0.8070   -0.2640 cc        1 BN1     -0.242900
      8 C5          0.8500   -1.0520   -0.2100 cd        1 BN1      0.196700
      9 O3          1.0530   -2.4280    0.0920 os        1 BN1     -0.131100
     10 N2         -0.1120   -3.0430    0.2240 nd        1 BN1     -0.422300
     11 C6         -1.0990   -2.1330    0.0260 cc        1 BN1      0.556600
     12 O4         -2.4080   -2.4570    0.0860 oh        1 BN1     -0.614300
     13 C7          2.0330   -0.2590   -0.3780 cd        1 BN1      0.480000
     14 N3          3.2430   -0.4340    0.2370 nc        1 BN1     -0.464800
     15 N4          3.9930    0.5660   -0.2720 na        1 BN1      0.185900
     16 N5          3.2950    1.3420   -1.1520 nc        1 BN1     -0.160800
     17 N6          2.1230    0.8830   -1.2530 nd        1 BN1     -0.344000
     18 C8          5.3580    0.8340    0.1550 c3        1 BN1      0.055600
     19 H2         -1.9960    0.0630    1.5020 h1        1 BN1      0.049700
     20 H3         -1.5740    2.8070    0.5940 hn        1 BN1      0.336800
     21 H4         -2.2510    2.3800    1.9920 hn        1 BN1      0.336800
     22 H5         -0.5850    1.2300   -0.8810 hc        1 BN1      0.073200
     23 H6         -1.9950    0.1990   -1.3670 hc        1 BN1      0.073200
     24 H7         -2.9360   -1.6220   -0.0350 ho        1 BN1      0.510000
     25 H8          5.9060   -0.1360    0.2820 h1        1 BN1      0.063033
     26 H9          5.8710    1.4590   -0.6220 h1        1 BN1      0.063033
     27 H10         5.3410    1.3860    1.1320 h1        1 BN1      0.063033
@<TRIPOS>BOND
     1    1    2 1   
     2    2    3 1   
     3    2    4 1   
     4    4    5 1   
     5    4    6 1   
     6    4   19 1   
     7    5   20 1   
     8    5   21 1   
     9    6    7 1   
    10    6   22 1   
    11    6   23 1   
    12    7    8 2   
    13    7   11 1   
    14    8    9 1   
    15    8   13 1   
    16    9   10 1   
    17   10   11 2   
    18   11   12 1   
    19   12   24 1   
    20   13   14 2   
    21   13   17 1   
    22   14   15 1   
    23   15   16 1   
    24   15   18 1   
    25   16   17 2   
    26   18   25 1   
    27   18   26 1   
    28   18   27 1   
@<TRIPOS>SUBSTRUCTURE
     1 BN1         1 TEMP              0 ****  ****    0 ROOT
