@<TRIPOS>MOLECULE
BN1
   28    29     1     0     0
SMALL
bcc


@<TRIPOS>ATOM
      1 O1         -0.1200   -0.8290    0.3500 o         1 BN1     -0.758300
      2 C1          0.8160   -0.0450    0.1280 c         1 BN1      0.938600
      3 O2          1.0120    0.7460   -0.8300 o         1 BN1     -0.758300
      4 C2          1.9710    0.0010    1.2560 c3        1 BN1     -0.072500
      5 N1          3.1940    0.5950    0.6430 n4        1 BN1     -0.820600
      6 C3          2.1970   -1.3770    1.8510 c3        1 BN1     -0.026100
      7 C4          2.8950   -1.3560    3.1410 cc        1 BN1     -0.259900
      8 C5          4.2320   -1.4890    3.4710 cd        1 BN1      0.217700
      9 O3          4.3620   -1.4740    4.8830 os        1 BN1     -0.087100
     10 N2          3.1760   -1.3340    5.4450 nd        1 BN1     -0.416300
     11 C6          2.2450   -1.2580    4.4610 cc        1 BN1      0.534600
     12 O4          0.9010   -1.1070    4.5770 oh        1 BN1     -0.564300
     13 C7          5.4440   -1.6240    2.7150 cd        1 BN1      0.444000
     14 N3          6.5810   -2.3030    3.0670 nc        1 BN1     -0.428800
     15 N4          7.3940   -2.1020    2.0140 na        1 BN1      0.223900
     16 N5          6.8130   -1.3440    1.0460 nc        1 BN1     -0.134800
     17 N6          5.6450   -1.0320    1.4250 nd        1 BN1     -0.420000
     18 C8          8.7370   -2.6750    1.9200 c3        1 BN1      0.043600
     19 H2          1.6030    0.7130    2.0470 hx        1 BN1      0.093700
     20 H3          2.8560    1.3060   -0.0350 hn        1 BN1      0.448467
     21 H4          3.6960   -0.1230    0.1180 hn        1 BN1      0.448467
     22 H5          2.7370   -2.0440    1.1270 hc        1 BN1      0.107200
     23 H6          1.1600   -1.8140    1.9960 hc        1 BN1      0.107200
     24 H7          0.6590   -1.1230    5.5200 ho        1 BN1      0.448000
     25 H8          9.2730   -2.2160    1.0480 h1        1 BN1      0.081700
     26 H9          9.2950   -2.4580    2.8690 h1        1 BN1      0.081700
     27 H10         8.6500   -3.7840    1.7740 h1        1 BN1      0.081700
     28 H13         3.8090    1.0100    1.3350 hn        1 BN1      0.448467
@<TRIPOS>BOND
     1    1    2 1   
     2    2    3 1   
     3    2    4 1   
     4    4    5 1   
     5    4    6 1   
     6    4   19 1   
     7    5   20 1   
     8    5   21 1   
     9    5   28 1   
    10    6    7 1   
    11    6   22 1   
    12    6   23 1   
    13    7    8 2   
    14    7   11 1   
    15    8    9 1   
    16    8   13 1   
    17    9   10 1   
    18   10   11 2   
    19   11   12 1   
    20   12   24 1   
    21   13   14 2   
    22   13   17 1   
    23   14   15 1   
    24   15   16 1   
    25   15   18 1   
    26   16   17 2   
    27   18   25 1   
    28   18   26 1   
    29   18   27 1   
@<TRIPOS>SUBSTRUCTURE
     1 BN1         1 TEMP              0 ****  ****    0 ROOT
