@<TRIPOS>MOLECULE
BN1
   27    26     1     0     0
SMALL
bcc


@<TRIPOS>ATOM
      1 O1         -1.2030   -2.4970   -2.4730 o         1 BN1     -0.564500
      2 C1         -1.5710   -2.1380   -1.3230 c2        1 BN1      0.316000
      3 O2         -1.5520   -2.9540   -0.3780 o         1 BN1     -0.564500
      4 C2         -1.9550   -0.7220   -1.0750 c3        1 BN1     -0.139000
      5 N1         -3.0090   -0.3620   -1.9540 n3        1 BN1     -0.350000
      6 C3         -0.7430    0.1900   -1.3280 c3        1 BN1     -0.104000
      7 C4         -0.6690    1.2430   -0.2500 c2        1 BN1     -0.115000
      8 C5          0.0910    1.1730    0.9070 c2        1 BN1      0.009000
      9 O3         -0.0750    2.3280    1.5820 os        1 BN1     -0.061000
     10 N2         -0.9450    3.1360    0.8490 n2        1 BN1     -0.081000
     11 C6         -1.3010    2.4620   -0.2680 c1        1 BN1      0.049000
     12 O4         -2.1090    2.9600   -1.3120 o         1 BN1     -0.256000
     13 C7          0.9720    0.1410    1.2490 c2        1 BN1     -0.064000
     14 N3          2.3160    0.2340    1.2970 nc        1 BN1     -0.047500
     15 N4          2.7950   -0.9180    1.8170 nc        1 BN1     -0.081000
     16 N5          1.7510   -1.7170    2.0890 nc        1 BN1     -0.081000
     17 N6          0.6220   -1.0650    1.7380 nc        1 BN1     -0.047500
     18 C8          4.1870   -1.2360    2.0420 c2        1 BN1     -0.046000
     19 H2         -2.2510   -0.6210   -0.1530 h1        1 BN1      0.091000
     20 H3         -2.6820   -0.2810   -2.8040 hn        1 BN1      0.146500
     21 H4         -3.3700    0.4340   -1.6890 hn        1 BN1      0.146500
     22 H5         -0.8390    0.6230   -2.2010 hc        1 BN1      0.117500
     23 H6          0.0850   -0.3500   -1.3180 hc        1 BN1      0.117500
     24 H7         -2.0550    3.8610   -1.3300 ho        1 BN1      0.289000
     25 H8          4.5530   -1.6810    1.2460 ha        1 BN1      0.107000
     26 H9          4.6910   -0.4060    2.2160 ha        1 BN1      0.107000
     27 H10         4.2650   -1.8390    2.8220 ha        1 BN1      0.107000
@<TRIPOS>BOND
     1    1    2 1   
     2    2    3 1   
     3    2    4 1   
     4    4    5 1   
     5    4    6 1   
     6    4   19 1   
     7    5   20 1   
     8    5   21 1   
     9    6    7 1   
    10    6   22 1   
    11    6   23 1   
    12    7    8 1   
    13    7   11 1   
    14    8    9 1   
    15    8   13 1   
    16    9   10 1   
    17   10   11 1   
    18   12   24 1   
    19   13   14 1   
    20   13   17 1   
    21   14   15 1   
    22   15   16 1   
    23   16   17 1   
    24   18   25 1   
    25   18   26 1   
    26   18   27 1   
@<TRIPOS>SUBSTRUCTURE
     1 BN1         1 TEMP              0 ****  ****    0 ROOT
