@<TRIPOS>MOLECULE
BN2
   52    53     1     0     0
SMALL
bcc


@<TRIPOS>ATOM
      1 C4          0.0000    0.0000    0.0000 ca        1 BN2     -0.082000
      2 C5          1.3790    0.0000    0.0000 ca        1 BN2     -0.088000
      3 C6          2.0750    0.0000    1.2100 ca        1 BN2     -0.219600
      4 C1          1.3670   -0.0050    2.4150 ca        1 BN2      0.022400
      5 Cl1         2.2210   -0.0070    3.9250 cl        1 BN2      0.096600
      6 C2         -0.0140    0.0010    2.3990 ca        1 BN2     -0.091000
      7 C3         -0.6960    0.0000    1.1960 ca        1 BN2     -0.019000
      8 N1          4.2310   -0.0020    0.0540 ny        1 BN2      0.328400
      9 C7          3.5510   -0.0010    1.2170 c         1 BN2      0.337700
     10 O1          4.1540   -0.0020    2.2720 o         1 BN2     -0.392100
     11 N2          6.2590   -0.0040   -1.1030 ns        1 BN2      0.050900
     12 C9          7.6540    0.1180   -1.1000 ca        1 BN2     -0.167400
     13 C10         8.2760    0.9530   -0.1830 ca        1 BN2     -0.074000
     14 C11         9.6520    1.0730   -0.1800 ca        1 BN2     -0.060600
     15 Cl2        10.4300    2.1180    0.9670 cl        1 BN2      0.057600
     16 C12        10.4130    0.3580   -1.0940 ca        1 BN2      0.170100
     17 O3         11.7680    0.4770   -1.0910 os        1 BN2     -0.300900
     18 C15        12.2680   -0.5260   -0.2040 c3        1 BN2      0.188400
     19 C16        13.7950   -0.4470   -0.1540 c3        1 BN2     -0.037400
     20 C17        14.3320   -1.5190    0.7940 c3        1 BN2     -0.024400
     21 C18        15.8580   -1.4410    0.8440 c3        1 BN2     -0.035400
     22 C19        16.3940   -2.5140    1.7930 c3        1 BN2     -0.016400
     23 C20        17.9220   -2.4350    1.8420 c3        1 BN2     -0.132400
     24 C21        18.4490   -3.4920    2.7780 c         1 BN2      0.974600
     25 O5         19.7700   -3.6110    2.9800 o         1 BN2     -0.871800
     26 O4         17.6830   -4.2330    3.3470 o         1 BN2     -0.871800
     27 C13         9.7910   -0.4720   -2.0140 ca        1 BN2     -0.060600
     28 Cl3        10.7430   -1.3660   -3.1580 cl        1 BN2      0.057600
     29 C14         8.4150   -0.5970   -2.0150 ca        1 BN2     -0.074000
     30 C8          5.5790   -0.0020    0.0600 c         1 BN2      0.272100
     31 O2          6.1810   -0.0040    1.1140 o         1 BN2     -0.488100
     32 H4         -0.5400   -0.0000   -0.9390 ha        1 BN2      0.124000
     33 H5          1.9220    0.0020   -0.9380 ha        1 BN2      0.080000
     34 H2         -0.5650    0.0070    3.3320 ha        1 BN2      0.137000
     35 H3         -1.7790    0.0030    1.1900 ha        1 BN2      0.124000
     36 HN1         3.9420   -0.8160   -0.4510 hn        1 BN2      0.256300
     37 HN2         5.7650   -0.0770   -1.9710 hn        1 BN2      0.163500
     38 H10         7.6790    1.5480    0.4980 ha        1 BN2      0.123000
     39 H151       11.9680   -1.5050   -0.5590 h1        1 BN2      0.003700
     40 H152       11.8660   -0.3640    0.7890 h1        1 BN2      0.003700
     41 H161       14.0940    0.5310    0.2000 hc        1 BN2      0.025700
     42 H162       14.1970   -0.6100   -1.1470 hc        1 BN2      0.025700
     43 H171       14.0320   -2.4980    0.4400 hc        1 BN2      0.013700
     44 H172       13.9300   -1.3560    1.7870 hc        1 BN2      0.013700
     45 H181       16.1590   -0.4620    1.1980 hc        1 BN2      0.008700
     46 H182       16.2610   -1.6040   -0.1490 hc        1 BN2      0.008700
     47 H191       15.9920   -2.3510    2.7850 hc        1 BN2      0.020700
     48 H192       16.0940   -3.4920    1.4380 hc        1 BN2      0.020700
     49 H201       18.2220   -1.4560    2.1980 hc        1 BN2      0.007700
     50 H202       18.3240   -2.5980    0.8500 hc        1 BN2      0.007700
     51 H14         7.9300   -1.2460   -2.7340 ha        1 BN2      0.123000
     52 H12         3.9420    0.8120   -0.4520 hn        1 BN2      0.256300
@<TRIPOS>BOND
     1    1    2 ar  
     2    1    7 ar  
     3    1   32 1   
     4    2    3 ar  
     5    2   33 1   
     6    3    4 ar  
     7    3    9 1   
     8    4    5 1   
     9    4    6 ar  
    10    6    7 ar  
    11    6   34 1   
    12    7   35 1   
    13    8    9 1   
    14    8   30 1   
    15    8   36 1   
    16    8   52 1   
    17    9   10 2   
    18   11   12 1   
    19   11   30 1   
    20   11   37 1   
    21   12   13 ar  
    22   12   29 ar  
    23   13   14 ar  
    24   13   38 1   
    25   14   15 1   
    26   14   16 ar  
    27   16   17 1   
    28   16   27 ar  
    29   17   18 1   
    30   18   19 1   
    31   18   39 1   
    32   18   40 1   
    33   19   20 1   
    34   19   41 1   
    35   19   42 1   
    36   20   21 1   
    37   20   43 1   
    38   20   44 1   
    39   21   22 1   
    40   21   45 1   
    41   21   46 1   
    42   22   23 1   
    43   22   47 1   
    44   22   48 1   
    45   23   24 1   
    46   23   49 1   
    47   23   50 1   
    48   24   25 1   
    49   24   26 1   
    50   27   28 1   
    51   27   29 ar  
    52   29   51 1   
    53   30   31 2   
@<TRIPOS>SUBSTRUCTURE
     1 BN2         1 TEMP              0 ****  ****    0 ROOT
