@<TRIPOS>MOLECULE
BN2
   51    52     1     0     0
SMALL
bcc


@<TRIPOS>ATOM
      1 C4         -0.6690    1.2810   -0.4700 ca        1 BN2     -0.133000
      2 C5          0.6470    1.6020   -0.1460 ca        1 BN2     -0.075000
      3 C6          1.4330    0.7030    0.5860 ca        1 BN2     -0.142600
      4 C1          0.8810   -0.5150    1.0030 ca        1 BN2      0.035400
      5 CL1         1.7860   -1.6230    1.9210 cl        1 BN2     -0.081400
      6 C2         -0.4440   -0.8330    0.6820 ca        1 BN2     -0.129000
      7 C3         -1.2120    0.0640   -0.0570 ca        1 BN2     -0.103000
      8 N1          3.8340    0.2670    0.4580 n         1 BN2     -0.608500
      9 C7          2.8300    1.1250    0.9200 c         1 BN2      0.689700
     10 O1          3.0620    2.1760    1.5280 o         1 BN2     -0.509100
     11 N2          6.1010   -0.5360    0.4000 n         1 BN2     -0.469100
     12 C9          7.4920   -0.3950    0.2270 ca        1 BN2      0.067600
     13 C10         8.2320    0.6380    0.8330 ca        1 BN2     -0.154000
     14 C11         9.6180    0.6910    0.6750 ca        1 BN2      0.027900
     15 CL2        10.4610    1.9550    1.4330 cl        1 BN2     -0.061900
     16 C12        10.2990   -0.2750   -0.0890 ca        1 BN2      0.102100
     17 O3         11.6520   -0.1480   -0.3360 os        1 BN2     -0.330900
     18 C15        12.4740   -0.8840    0.5980 c3        1 BN2      0.130400
     19 C16        13.8990   -0.7500    0.0980 c3        1 BN2     -0.083400
     20 C17        14.8340   -1.5590    0.9730 c3        1 BN2     -0.078400
     21 C18        16.2630   -1.4720    0.4820 c3        1 BN2     -0.077400
     22 C19        17.1870   -2.3200    1.3310 c3        1 BN2     -0.066400
     23 C20        18.6170   -2.2490    0.8540 c3        1 BN2     -0.194400
     24 C21        19.5000   -3.2800    1.5800 c         1 BN2      0.907600
     25 O5         20.6380   -2.8990    1.9820 o         1 BN2     -0.852800
     26 O4         19.0600   -4.4570    1.7250 o         1 BN2     -0.852800
     27 C13         9.5560   -1.3080   -0.6890 ca        1 BN2      0.027900
     28 CL3        10.3140   -2.5110   -1.6180 cl        1 BN2     -0.061900
     29 C14         8.1720   -1.3680   -0.5420 ca        1 BN2     -0.154000
     30 C8          5.2220    0.5480    0.5870 c         1 BN2      0.778100
     31 O2          5.6160    1.6940    0.8680 o         1 BN2     -0.556100
     32 H4         -1.2800    1.9920   -1.0470 ha        1 BN2      0.144000
     33 H5          1.0800    2.5690   -0.4510 ha        1 BN2      0.160000
     34 H2         -0.8780   -1.7880    1.0160 ha        1 BN2      0.152000
     35 H3         -2.2530   -0.1900   -0.3100 ha        1 BN2      0.142000
     36 HN1         3.5480   -0.6170    0.1030 hn        1 BN2      0.319500
     37 HN2         5.7290   -1.4010    0.0760 hn        1 BN2      0.311500
     38 H10         7.7230    1.4160    1.4300 ha        1 BN2      0.165500
     39 H151       12.3500   -0.4330    1.6170 h1        1 BN2      0.039700
     40 H152       12.1460   -1.9550    0.6140 h1        1 BN2      0.039700
     41 H161       13.9570   -1.1070   -0.9630 hc        1 BN2      0.053700
     42 H162       14.1990    0.3290    0.1030 hc        1 BN2      0.053700
     43 H171       14.5080   -2.6330    0.9800 hc        1 BN2      0.038700
     44 H172       14.7770   -1.1880    2.0300 hc        1 BN2      0.038700
     45 H181       16.6040   -0.4040    0.5020 hc        1 BN2      0.028700
     46 H182       16.3140   -1.8150   -0.5850 hc        1 BN2      0.028700
     47 H191       17.1320   -1.9790    2.3980 hc        1 BN2      0.044200
     48 H192       16.8560   -3.3930    1.3100 hc        1 BN2      0.044200
     49 H201       18.6660   -2.4710   -0.2430 hc        1 BN2      0.019700
     50 H202       19.0330   -1.2240    1.0160 hc        1 BN2      0.019700
     51 H14         7.6170   -2.1870   -1.0280 ha        1 BN2      0.165500
@<TRIPOS>BOND
     1    1    2 ar  
     2    1    7 ar  
     3    1   32 1   
     4    2    3 ar  
     5    2   33 1   
     6    3    4 ar  
     7    3    9 1   
     8    4    5 1   
     9    4    6 ar  
    10    6    7 ar  
    11    6   34 1   
    12    7   35 1   
    13    8    9 1   
    14    8   30 1   
    15    8   36 1   
    16    9   10 2   
    17   11   12 1   
    18   11   30 1   
    19   11   37 1   
    20   12   13 ar  
    21   12   29 ar  
    22   13   14 ar  
    23   13   38 1   
    24   14   15 1   
    25   14   16 ar  
    26   16   17 1   
    27   16   27 ar  
    28   17   18 1   
    29   18   19 1   
    30   18   39 1   
    31   18   40 1   
    32   19   20 1   
    33   19   41 1   
    34   19   42 1   
    35   20   21 1   
    36   20   43 1   
    37   20   44 1   
    38   21   22 1   
    39   21   45 1   
    40   21   46 1   
    41   22   23 1   
    42   22   47 1   
    43   22   48 1   
    44   23   24 1   
    45   23   49 1   
    46   23   50 1   
    47   24   25 1   
    48   24   26 1   
    49   27   28 1   
    50   27   29 ar  
    51   29   51 1   
    52   30   31 2   
@<TRIPOS>SUBSTRUCTURE
     1 BN2         1 TEMP              0 ****  ****    0 ROOT
