@<TRIPOS>MOLECULE
BN2
   51    47     1     0     0
SMALL
bcc


@<TRIPOS>ATOM
      1 C4          1.5570   -9.5660   -2.5890 c1        1 BN2     -0.117500
      2 C5          1.2960   -8.5050   -1.7360 c1        1 BN2     -0.075000
      3 C6          0.7040   -7.3510   -2.2250 c1        1 BN2     -0.121000
      4 C1          0.3720   -7.2580   -3.5680 c1        1 BN2     -0.042000
      5 CL1        -0.4070   -5.8230   -4.1760 cl        1 BN2     -0.007000
      6 C2          0.6330   -8.3190   -4.4220 c1        1 BN2     -0.129000
      7 C3          1.2250   -9.4730   -3.9320 c1        1 BN2     -0.117500
      8 N1         -0.1640   -4.9940   -1.7960 n         1 BN2     -0.393000
      9 C7          0.4430   -6.1780   -1.2950 c2        1 BN2      0.365000
     10 O1          0.7530   -6.2520   -0.1220 o         1 BN2     -0.274000
     11 N2         -0.9350   -2.6790   -1.4500 n         1 BN2     -0.325000
     12 C9         -1.0440   -1.5280   -0.6190 c2        1 BN2      0.079000
     13 C10        -0.8630   -0.2650   -1.1600 c2        1 BN2     -0.156000
     14 C11        -0.9240    0.8550   -0.3430 c1        1 BN2     -0.049000
     15 CL2        -0.7590    2.4470   -1.0330 cl        1 BN2      0.016500
     16 C12        -1.1670    0.7100    1.0140 c2        1 BN2      0.055000
     17 O3         -1.2700    1.8490    1.8360 os        1 BN2     -0.213000
     18 C15        -0.0450    2.5230    2.0360 c3        1 BN2     -0.020000
     19 C16        -0.3160    3.9330    2.5210 c3        1 BN2     -0.162000
     20 C17         0.5190    4.9120    1.7210 c3        1 BN2     -0.157000
     21 C18        -0.2670    6.1900    1.5090 c3        1 BN2     -0.157000
     22 C19         0.4740    7.3490    2.1420 c3        1 BN2     -0.145000
     23 C20        -0.1390    8.6530    1.6790 c3        1 BN2     -0.223000
     24 C21         0.6660    9.8110    2.2260 c2        1 BN2      0.327000
     25 O5          1.6670   10.2370    1.5910 o         1 BN2     -0.587500
     26 O4          0.3130   10.3740    3.2960 o         1 BN2     -0.587500
     27 C13        -1.3480   -0.5540    1.5550 c1        1 BN2     -0.049000
     28 CL3        -1.7120   -0.7320    3.2500 cl        1 BN2      0.016500
     29 C14        -1.2860   -1.6730    0.7380 c2        1 BN2     -0.156000
     30 C8         -0.3310   -3.8640   -0.9460 c2        1 BN2      0.408000
     31 O2          0.0920   -3.8940    0.1920 o         1 BN2     -0.317000
     32 H4          1.9740  -10.3790   -2.2440 ha        1 BN2      0.143000
     33 H5          1.5300   -8.5700   -0.7900 ha        1 BN2      0.160000
     34 H2          0.3970   -8.2550   -5.3670 ha        1 BN2      0.152000
     35 H3          1.4080  -10.2210   -4.5330 ha        1 BN2      0.143000
     36 HN1        -0.4500   -4.9590   -2.6600 hn        1 BN2      0.238000
     37 HN2        -1.2590   -2.6590   -2.3020 hn        1 BN2      0.228000
     38 H10        -0.7060   -0.1620   -2.1170 ha        1 BN2      0.164500
     39 H151        0.4860    2.0440    2.7060 h1        1 BN2      0.078000
     40 H152        0.4500    2.5570    1.1910 h1        1 BN2      0.078000
     41 H161       -1.2650    4.1410    2.4030 hc        1 BN2      0.093000
     42 H162       -0.0830    4.0030    3.4680 hc        1 BN2      0.093000
     43 H171        1.3420    5.1130    2.2090 hc        1 BN2      0.077500
     44 H172        0.7420    4.5180    0.8540 hc        1 BN2      0.077500
     45 H181       -0.3700    6.3530    0.5500 hc        1 BN2      0.068000
     46 H182       -1.1490    6.1020    1.9210 hc        1 BN2      0.068000
     47 H191        0.4070    7.2850    3.1160 hc        1 BN2      0.083500
     48 H192        1.4150    7.3190    1.8770 hc        1 BN2      0.083500
     49 H201       -0.1360    8.6860    0.7020 hc        1 BN2      0.059000
     50 H202       -1.0600    8.7140    2.0040 hc        1 BN2      0.059000
     51 H14        -1.4140   -2.5620    1.1180 ha        1 BN2      0.164500
@<TRIPOS>BOND
     1    1    7 1   
     2    1   32 1   
     3    2    3 1   
     4    2   33 1   
     5    3    9 1   
     6    4    5 1   
     7    4    6 1   
     8    6   34 1   
     9    7   35 1   
    10    8    9 1   
    11    8   30 1   
    12    8   36 1   
    13    9   10 1   
    14   11   12 1   
    15   11   30 1   
    16   11   37 1   
    17   12   13 1   
    18   12   29 1   
    19   13   14 1   
    20   13   38 1   
    21   14   16 1   
    22   16   17 1   
    23   16   27 1   
    24   17   18 1   
    25   18   19 1   
    26   18   39 1   
    27   18   40 1   
    28   19   20 1   
    29   19   41 1   
    30   19   42 1   
    31   20   21 1   
    32   20   43 1   
    33   20   44 1   
    34   21   22 1   
    35   21   45 1   
    36   21   46 1   
    37   22   23 1   
    38   22   47 1   
    39   22   48 1   
    40   23   24 1   
    41   23   49 1   
    42   23   50 1   
    43   24   25 1   
    44   24   26 1   
    45   27   29 1   
    46   29   51 1   
    47   30   31 1   
@<TRIPOS>SUBSTRUCTURE
     1 BN2         1 TEMP              0 ****  ****    0 ROOT
