@<TRIPOS>MOLECULE
BN2
   51    52     1     0     0
SMALL
bcc


@<TRIPOS>ATOM
      1 C4         -1.2410    0.0680   -9.5850 ca        1 BN2     -0.133000
      2 C5         -1.0560   -0.5290   -8.3390 ca        1 BN2     -0.075000
      3 C6         -0.1370    0.0070   -7.4300 ca        1 BN2     -0.142600
      4 C1          0.6070    1.1390   -7.7870 ca        1 BN2      0.035400
      5 CL1         1.7590    1.8060   -6.7280 cl        1 BN2     -0.081400
      6 C2          0.4250    1.7340   -9.0410 ca        1 BN2     -0.129000
      7 C3         -0.5010    1.1990   -9.9330 ca        1 BN2     -0.103000
      8 N1         -0.2210    0.0820   -4.9880 n         1 BN2     -0.608500
      9 C7          0.0280   -0.7010   -6.1210 c         1 BN2      0.689700
     10 O1          0.3260   -1.8990   -6.0650 o         1 BN2     -0.509100
     11 N2         -0.1340    0.5090   -2.6220 n         1 BN2     -0.469100
     12 C9         -0.3840    0.2050   -1.2690 ca        1 BN2      0.067600
     13 C10        -0.0980   -1.0550   -0.7100 ca        1 BN2     -0.154000
     14 C11        -0.3090   -1.2780    0.6530 ca        1 BN2      0.027900
     15 CL2         0.0580   -2.8140    1.2760 cl        1 BN2     -0.061900
     16 C12        -0.8090   -0.2610    1.4860 ca        1 BN2      0.102100
     17 O3         -1.1240   -0.5260    2.8040 os        1 BN2     -0.330900
     18 C15        -0.0540   -0.2040    3.7220 c3        1 BN2      0.130400
     19 C16        -0.6170   -0.4180    5.1140 c3        1 BN2     -0.083400
     20 C17         0.4110   -0.0280    6.1550 c3        1 BN2     -0.078400
     21 C18        -0.1310   -0.2000    7.5580 c3        1 BN2     -0.077400
     22 C19         0.8830    0.2360    8.5950 c3        1 BN2     -0.066400
     23 C20         0.3590    0.0750   10.0010 c3        1 BN2     -0.194400
     24 C21         1.3040    0.7240   11.0280 c         1 BN2      0.907600
     25 O5          1.5540    0.0790   12.0860 o         1 BN2     -0.852800
     26 O4          1.7700    1.8740   10.7770 o         1 BN2     -0.852800
     27 C13        -1.0880    0.9980    0.9230 ca        1 BN2      0.027900
     28 CL3        -1.6870    2.2730    1.8720 cl        1 BN2     -0.061900
     29 C14        -0.8860    1.2300   -0.4360 ca        1 BN2     -0.154000
     30 C8         -0.2150   -0.4350   -3.6640 c         1 BN2      0.778100
     31 O2         -0.2620   -1.6620   -3.4600 o         1 BN2     -0.556100
     32 H4         -1.9670   -0.3570  -10.2940 ha        1 BN2      0.144000
     33 H5         -1.6210   -1.4340   -8.0620 ha        1 BN2      0.160000
     34 H2          1.0160    2.6190   -9.3210 ha        1 BN2      0.152000
     35 H3         -0.6440    1.6700  -10.9170 ha        1 BN2      0.142000
     36 HN1        -0.3170    1.0630   -5.1270 hn        1 BN2      0.319500
     37 HN2        -0.2050    1.4760   -2.8500 hn        1 BN2      0.311500
     38 H10         0.2860   -1.8750   -1.3420 ha        1 BN2      0.165500
     39 H151        0.2570    0.8610    3.5680 h1        1 BN2      0.039700
     40 H152        0.8110   -0.8860    3.5180 h1        1 BN2      0.039700
     41 H161       -0.9090   -1.4930    5.2400 hc        1 BN2      0.053700
     42 H162       -1.5470    0.1960    5.2390 hc        1 BN2      0.053700
     43 H171        0.7140    1.0420    6.0030 hc        1 BN2      0.038700
     44 H172        1.3320   -0.6540    6.0290 hc        1 BN2      0.038700
     45 H181       -0.4060   -1.2740    7.7250 hc        1 BN2      0.028700
     46 H182       -1.0700    0.4030    7.6740 hc        1 BN2      0.028700
     47 H191        1.1580    1.3140    8.4370 hc        1 BN2      0.044200
     48 H192        1.8220   -0.3650    8.4760 hc        1 BN2      0.044200
     49 H201        0.2290   -1.0080   10.2480 hc        1 BN2      0.019700
     50 H202       -0.6400    0.5710   10.0960 hc        1 BN2      0.019700
     51 H14        -1.1190    2.2250   -0.8480 ha        1 BN2      0.165500
@<TRIPOS>BOND
     1    1    2 ar  
     2    1    7 ar  
     3    1   32 1   
     4    2    3 ar  
     5    2   33 1   
     6    3    4 ar  
     7    3    9 1   
     8    4    5 1   
     9    4    6 ar  
    10    6    7 ar  
    11    6   34 1   
    12    7   35 1   
    13    8    9 1   
    14    8   30 1   
    15    8   36 1   
    16    9   10 2   
    17   11   12 1   
    18   11   30 1   
    19   11   37 1   
    20   12   13 ar  
    21   12   29 ar  
    22   13   14 ar  
    23   13   38 1   
    24   14   15 1   
    25   14   16 ar  
    26   16   17 1   
    27   16   27 ar  
    28   17   18 1   
    29   18   19 1   
    30   18   39 1   
    31   18   40 1   
    32   19   20 1   
    33   19   41 1   
    34   19   42 1   
    35   20   21 1   
    36   20   43 1   
    37   20   44 1   
    38   21   22 1   
    39   21   45 1   
    40   21   46 1   
    41   22   23 1   
    42   22   47 1   
    43   22   48 1   
    44   23   24 1   
    45   23   49 1   
    46   23   50 1   
    47   24   25 1   
    48   24   26 1   
    49   27   28 1   
    50   27   29 ar  
    51   29   51 1   
    52   30   31 2   
@<TRIPOS>SUBSTRUCTURE
     1 BN2         1 TEMP              0 ****  ****    0 ROOT
