@<TRIPOS>MOLECULE
BN3
   42    38     1     0     0
SMALL
bcc


@<TRIPOS>ATOM
      1 C4         -7.8190   -0.7320    0.0300 c1        1 BN3     -0.130500
      2 C5         -6.4360   -0.7360   -0.1280 c1        1 BN3     -0.066000
      3 C6         -5.7460   -1.9740   -0.3880 c1        1 BN3     -0.121000
      4 C1         -6.4480   -3.1380   -0.4770 c1        1 BN3     -0.034000
      5 CL1        -5.5930   -4.6660   -0.6540 cl        1 BN3      0.008000
      6 C2         -7.8630   -3.1320   -0.3140 c1        1 BN3     -0.130500
      7 C3         -8.5340   -1.9350   -0.0630 c1        1 BN3     -0.034000
      8 N1         -3.4640   -0.7820   -0.3010 n         1 BN3     -0.375000
      9 C7         -4.2320   -2.0030   -0.4760 c2        1 BN3      0.361000
     10 O1         -3.6900   -2.9960   -0.6900 o         1 BN3     -0.339000
     11 N2         -1.2200    0.3960   -0.1380 n         1 BN3     -0.291000
     12 C9          0.1050    0.3550   -0.1620 c2        1 BN3      0.006000
     13 C10         0.7900   -0.1660    0.9050 c2        1 BN3     -0.091000
     14 C11         2.2720   -0.1450    0.9140 c1        1 BN3     -0.154000
     15 C12         2.9360    0.3760   -0.1050 c1        1 BN3      0.109000
     16 O3          4.4140    0.3120   -0.1320 os        1 BN3     -0.202000
     17 C15         5.0170    1.4410    0.3520 c3        1 BN3     -0.027000
     18 C16         6.5740    1.2330    0.4180 c3        1 BN3     -0.148000
     19 C17         7.2390    2.5640    0.8470 c3        1 BN3     -0.230000
     20 C13         2.2250    0.9170   -1.2120 c1        1 BN3     -0.198000
     21 C14         0.7880    0.8960   -1.2200 c1        1 BN3     -0.055000
     22 C8         -1.9940   -0.8170   -0.4010 c2        1 BN3      0.406000
     23 O2         -1.4510   -1.8120   -0.6290 o         1 BN3     -0.379000
     24 CL2       -10.1720   -1.9860    0.1990 cl        1 BN3      0.008000
     25 CL3         0.0810    2.1960   -2.2380 cl        1 BN3     -0.028000
     26 C18         8.7050    2.4760    0.6490 c2        1 BN3      0.332000
     27 O4          9.2150    2.8450   -0.4400 o         1 BN3     -0.580000
     28 O5          9.4020    2.0440    1.5240 o         1 BN3     -0.580000
     29 H4         -8.3440    0.1930    0.0500 ha        1 BN3      0.162000
     30 H5         -5.9380    0.0970   -0.0650 ha        1 BN3      0.164000
     31 H2         -8.3370   -3.9220   -0.3750 ha        1 BN3      0.162000
     32 HN1        -3.8520   -0.0570   -0.2580 hn        1 BN3      0.257000
     33 HN2        -1.6290    1.1580   -0.0280 hn        1 BN3      0.267000
     34 H10         0.2960   -0.4700    1.7010 ha        1 BN3      0.163000
     35 H11         2.7800   -0.5300    1.7040 ha        1 BN3      0.157000
     36 H151        4.7970    2.2680   -0.2950 h1        1 BN3      0.071000
     37 H152        4.6890    1.6240    1.2130 h1        1 BN3      0.071000
     38 H161        6.8120    0.4550    1.1430 hc        1 BN3      0.103500
     39 H162        6.9050    0.9750   -0.4620 hc        1 BN3      0.103500
     40 H171        6.9080    3.2380    0.3480 hc        1 BN3      0.061500
     41 H172        7.0530    2.7290    1.7580 hc        1 BN3      0.061500
     42 H13         2.7610    1.2110   -2.1020 ha        1 BN3      0.161000
@<TRIPOS>BOND
     1    1    7 1   
     2    1   29 1   
     3    2    3 1   
     4    2   30 1   
     5    3    9 1   
     6    4    5 1   
     7    4    6 1   
     8    6   31 1   
     9    7   24 1   
    10    8    9 1   
    11    8   22 1   
    12    8   32 1   
    13    9   10 1   
    14   11   12 1   
    15   11   22 1   
    16   11   33 1   
    17   12   13 1   
    18   12   21 1   
    19   13   14 1   
    20   13   34 1   
    21   14   35 1   
    22   15   16 1   
    23   15   20 1   
    24   16   17 1   
    25   17   18 1   
    26   17   36 1   
    27   17   37 1   
    28   18   19 1   
    29   18   38 1   
    30   18   39 1   
    31   19   26 1   
    32   19   40 1   
    33   19   41 1   
    34   20   42 1   
    35   21   25 1   
    36   22   23 1   
    37   26   27 1   
    38   26   28 1   
@<TRIPOS>SUBSTRUCTURE
     1 BN3         1 TEMP              0 ****  ****    0 ROOT
