@<TRIPOS>MOLECULE
BN3
   42    43     1     0     0
SMALL
bcc


@<TRIPOS>ATOM
      1 C4         -0.5130    0.9090   -7.1580 ca        1 BN3     -0.131000
      2 C5          0.0280    1.2310   -5.9170 ca        1 BN3     -0.069000
      3 C6          0.1290    0.2640   -4.9090 ca        1 BN3     -0.143600
      4 C1         -0.3020   -1.0440   -5.1630 ca        1 BN3      0.044400
      5 CL1        -0.1690   -2.2610   -3.9880 cl        1 BN3     -0.065400
      6 C2         -0.8420   -1.3800   -6.4100 ca        1 BN3     -0.129000
      7 C3         -0.9490   -0.3990   -7.3980 ca        1 BN3      0.038400
      8 N1         -0.0470    0.4810   -2.4820 n         1 BN3     -0.607500
      9 C7          0.7460    0.6880   -3.6100 c         1 BN3      0.687700
     10 O1          1.8650    1.2150   -3.5780 o         1 BN3     -0.512100
     11 N2         -0.6290    0.6720   -0.1500 n         1 BN3     -0.442100
     12 C9         -0.2640    0.6170    1.2150 ca        1 BN3     -0.009400
     13 C10         0.6420    1.5470    1.7750 ca        1 BN3     -0.084000
     14 C11         0.9260    1.5360    3.1290 ca        1 BN3     -0.153000
     15 C12         0.3070    0.5940    3.9780 ca        1 BN3      0.156100
     16 O3          0.6480    0.6860    5.3010 os        1 BN3     -0.317900
     17 C15         0.0080   -0.2490    6.1920 c3        1 BN3      0.122400
     18 C16         0.5110    0.0720    7.5880 c3        1 BN3     -0.068400
     19 C17        -0.2230   -0.7650    8.6060 c3        1 BN3     -0.201400
     20 C13        -0.5850   -0.3450    3.4460 ca        1 BN3     -0.197000
     21 C14        -0.8550   -0.3340    2.0780 ca        1 BN3      0.019400
     22 C8          0.3400    0.8490   -1.1610 c         1 BN3      0.766100
     23 O2          1.4500    1.3710   -0.9510 o         1 BN3     -0.557100
     24 CL2        -1.6120   -0.8020   -8.9090 cl        1 BN3     -0.080400
     25 CL3        -1.9450   -1.5030    1.4680 cl        1 BN3     -0.123400
     26 C18         0.4320   -0.6480    9.9980 c         1 BN3      0.912600
     27 O4         -0.3350   -0.5040   10.9900 o         1 BN3     -0.844300
     28 O5          1.6920   -0.7240   10.0750 o         1 BN3     -0.844300
     29 H4         -0.5910    1.6770   -7.9430 ha        1 BN3      0.156000
     30 H5          0.3940    2.2530   -5.7200 ha        1 BN3      0.164000
     31 H2         -1.1760   -2.4110   -6.6090 ha        1 BN3      0.165000
     32 HN1        -0.9290    0.0430   -2.6220 hn        1 BN3      0.318500
     33 HN2        -1.4320    0.1220   -0.3750 hn        1 BN3      0.306500
     34 H10         1.1410    2.2820    1.1210 ha        1 BN3      0.168000
     35 H11         1.6350    2.2590    3.5610 ha        1 BN3      0.159000
     36 H151        0.2880   -1.2920    5.8880 h1        1 BN3      0.031700
     37 H152       -1.1030   -0.1180    6.1210 h1        1 BN3      0.031700
     38 H161        0.3580    1.1610    7.8000 hc        1 BN3      0.064200
     39 H162        1.6120   -0.1320    7.6620 hc        1 BN3      0.064200
     40 H171       -0.1950   -1.8450    8.3100 hc        1 BN3      0.021700
     41 H172       -1.2940   -0.4520    8.6740 hc        1 BN3      0.021700
     42 H13        -1.0710   -1.0910    4.0920 ha        1 BN3      0.162000
@<TRIPOS>BOND
     1    1    2 ar  
     2    1    7 ar  
     3    1   29 1   
     4    2    3 ar  
     5    2   30 1   
     6    3    4 ar  
     7    3    9 1   
     8    4    5 1   
     9    4    6 ar  
    10    6    7 ar  
    11    6   31 1   
    12    7   24 1   
    13    8    9 1   
    14    8   22 1   
    15    8   32 1   
    16    9   10 2   
    17   11   12 1   
    18   11   22 1   
    19   11   33 1   
    20   12   13 ar  
    21   12   21 ar  
    22   13   14 ar  
    23   13   34 1   
    24   14   15 ar  
    25   14   35 1   
    26   15   16 1   
    27   15   20 ar  
    28   16   17 1   
    29   17   18 1   
    30   17   36 1   
    31   17   37 1   
    32   18   19 1   
    33   18   38 1   
    34   18   39 1   
    35   19   26 1   
    36   19   40 1   
    37   19   41 1   
    38   20   21 ar  
    39   20   42 1   
    40   21   25 1   
    41   22   23 2   
    42   26   27 1   
    43   26   28 1   
@<TRIPOS>SUBSTRUCTURE
     1 BN3         1 TEMP              0 ****  ****    0 ROOT
