@<TRIPOS>MOLECULE
BN3
   42    43     1     0     0
SMALL
bcc


@<TRIPOS>ATOM
      1 C4         -0.4330   -0.8330    1.3290 ca        1 BN3     -0.131000
      2 C5          0.9020   -1.2220    1.3630 ca        1 BN3     -0.069000
      3 C6          1.9250   -0.2700    1.2860 ca        1 BN3     -0.143600
      4 C1          1.5970    1.0880    1.1920 ca        1 BN3      0.044400
      5 CL1         2.8000    2.2850    1.1310 cl        1 BN3     -0.065400
      6 C2          0.2570    1.4920    1.1630 ca        1 BN3     -0.129000
      7 C3         -0.7500    0.5260    1.2260 ca        1 BN3      0.038400
      8 N1          4.1470   -0.4090    0.2780 n         1 BN3     -0.607500
      9 C7          3.3370   -0.7710    1.3540 c         1 BN3      0.687700
     10 O1          3.7160   -1.4840    2.2910 o         1 BN3     -0.512100
     11 N2          6.1450   -0.4550   -1.0710 n         1 BN3     -0.442100
     12 C9          7.5550   -0.4400   -1.1770 ca        1 BN3     -0.009400
     13 C10         8.3440   -1.5030   -0.6800 ca        1 BN3     -0.084000
     14 C11         9.7160   -1.5170   -0.8660 ca        1 BN3     -0.153000
     15 C12        10.3500   -0.4680   -1.5640 ca        1 BN3      0.156100
     16 O3         11.7060   -0.5930   -1.7040 os        1 BN3     -0.317900
     17 C15        12.3730    0.4540   -2.4360 c3        1 BN3      0.122400
     18 C16        13.8420    0.0750   -2.4890 c3        1 BN3     -0.068400
     19 C17        14.5940    1.0450   -3.3670 c3        1 BN3     -0.201400
     20 C13         9.5920    0.6020   -2.0550 ca        1 BN3     -0.197000
     21 C14         8.2120    0.6140   -1.8510 ca        1 BN3      0.019400
     22 C8          5.5050   -0.8150    0.1350 c         1 BN3      0.766100
     23 O2          6.0490   -1.5180    1.0060 o         1 BN3     -0.557100
     24 CL2        -2.3770    1.0110    1.1830 cl        1 BN3     -0.080400
     25 CL3         7.3250    1.9440   -2.4620 cl        1 BN3     -0.123400
     26 C18        16.1170    0.8400   -3.2430 c         1 BN3      0.912600
     27 O4         16.7930    0.8480   -4.3100 o         1 BN3     -0.844300
     28 O5         16.6100    0.6980   -2.0880 o         1 BN3     -0.844300
     29 H4         -1.2310   -1.5900    1.3880 ha        1 BN3      0.156000
     30 H5          1.1670   -2.2880    1.4640 ha        1 BN3      0.164000
     31 H2          0.0020    2.5610    1.0940 ha        1 BN3      0.165000
     32 HN1         3.7410    0.1720   -0.4200 hn        1 BN3      0.318500
     33 HN2         5.6900    0.2220   -1.6470 hn        1 BN3      0.306500
     34 H10         7.8620   -2.3250   -0.1240 ha        1 BN3      0.168000
     35 H11        10.3280   -2.3440   -0.4750 ha        1 BN3      0.159000
     36 H151       11.9320    0.5160   -3.4650 h1        1 BN3      0.031700
     37 H152       12.2230    1.4260   -1.8990 h1        1 BN3      0.031700
     38 H161       14.2850    0.0860   -1.4580 hc        1 BN3      0.064200
     39 H162       13.9460   -0.9680   -2.8850 hc        1 BN3      0.064200
     40 H171       14.2900    0.9230   -4.4360 hc        1 BN3      0.021700
     41 H172       14.3680    2.0970   -3.0590 hc        1 BN3      0.021700
     42 H13        10.0710    1.4330   -2.5950 ha        1 BN3      0.162000
@<TRIPOS>BOND
     1    1    2 ar  
     2    1    7 ar  
     3    1   29 1   
     4    2    3 ar  
     5    2   30 1   
     6    3    4 ar  
     7    3    9 1   
     8    4    5 1   
     9    4    6 ar  
    10    6    7 ar  
    11    6   31 1   
    12    7   24 1   
    13    8    9 1   
    14    8   22 1   
    15    8   32 1   
    16    9   10 2   
    17   11   12 1   
    18   11   22 1   
    19   11   33 1   
    20   12   13 ar  
    21   12   21 ar  
    22   13   14 ar  
    23   13   34 1   
    24   14   15 ar  
    25   14   35 1   
    26   15   16 1   
    27   15   20 ar  
    28   16   17 1   
    29   17   18 1   
    30   17   36 1   
    31   17   37 1   
    32   18   19 1   
    33   18   38 1   
    34   18   39 1   
    35   19   26 1   
    36   19   40 1   
    37   19   41 1   
    38   20   21 ar  
    39   20   42 1   
    40   21   25 1   
    41   22   23 2   
    42   26   27 1   
    43   26   28 1   
@<TRIPOS>SUBSTRUCTURE
     1 BN3         1 TEMP              0 ****  ****    0 ROOT
