@<TRIPOS>MOLECULE
BN4
   48    49     1     0     0
SMALL
bcc


@<TRIPOS>ATOM
      1 C4         -0.1810    1.5080   -0.4840 ca        1 BN4     -0.132000
      2 C5          1.1560    1.1570   -0.6500 ca        1 BN4     -0.066000
      3 C6          1.7780    0.2750    0.2410 ca        1 BN4     -0.141600
      4 C1          1.0400   -0.2750    1.2970 ca        1 BN4      0.047400
      5 CL1         1.7360   -1.3780    2.3820 cl        1 BN4     -0.061400
      6 C2         -0.3070    0.0670    1.4690 ca        1 BN4     -0.130000
      7 C3         -0.9070    0.9610    0.5790 ca        1 BN4      0.040400
      8 N1          4.0940    0.1630    1.0240 n         1 BN4     -0.596500
      9 C7          3.2140   -0.0640   -0.0160 c         1 BN4      0.688700
     10 O1          3.5710   -0.4820   -1.1350 o         1 BN4     -0.590100
     11 N2          6.1520   -0.6840    0.0040 n         1 BN4     -0.434100
     12 C9          7.5610   -0.6540   -0.1540 ca        1 BN4     -0.013400
     13 C10         8.4120   -0.8070    0.9530 ca        1 BN4     -0.091000
     14 C11         9.7910   -0.8520    0.7840 ca        1 BN4     -0.202000
     15 C12        10.3440   -0.7570   -0.4970 ca        1 BN4      0.148100
     16 O3         11.6910   -0.8050   -0.7580 os        1 BN4     -0.326900
     17 C15        12.5590   -0.9900    0.3760 c3        1 BN4      0.124400
     18 C16        13.9730   -1.0370   -0.1750 c3        1 BN4     -0.068400
     19 C17        14.9550   -1.3310    0.9330 c3        1 BN4     -0.200400
     20 C13         9.5070   -0.5980   -1.6290 ca        1 BN4     -0.096300
     21 C14         8.1200   -0.5270   -1.4560 ca        1 BN4     -0.076300
     22 C8          5.5110   -0.0360    1.0510 c         1 BN4      0.774100
     23 O2          6.0710    0.3510    2.1020 o         1 BN4     -0.615100
     24 CL2        -2.5380    1.3820    0.7910 cl        1 BN4     -0.078400
     25 C19         7.2260   -0.3370   -2.6270 c3        1 BN4     -0.058800
     26 C18        16.4080   -1.1610    0.4460 c         1 BN4      0.911600
     27 O4         17.2420   -2.0480    0.7850 o         1 BN4     -0.846300
     28 O5         16.6940   -0.1430   -0.2450 o         1 BN4     -0.846300
     29 C20        10.1180   -0.5050   -2.9780 c3        1 BN4     -0.046800
     30 H4         -0.6600    2.2050   -1.1880 ha        1 BN4      0.157000
     31 H5          1.7360    1.5650   -1.4950 ha        1 BN4      0.163000
     32 H2         -0.8870   -0.3690    2.2990 ha        1 BN4      0.166000
     33 HN1         3.7300    0.5100    1.8880 hn        1 BN4      0.342500
     34 HN2         5.6280   -0.8850   -0.8240 hn        1 BN4      0.343500
     35 H10         7.9940   -0.8790    1.9710 ha        1 BN4      0.157000
     36 H11        10.4340   -0.9640    1.6690 ha        1 BN4      0.148000
     37 H151       12.2910   -1.9490    0.8910 h1        1 BN4      0.030700
     38 H152       12.4270   -0.1300    1.0830 h1        1 BN4      0.030700
     39 H161       14.2370   -0.0580   -0.6540 hc        1 BN4      0.061700
     40 H162       14.0400   -1.8250   -0.9680 hc        1 BN4      0.061700
     41 H171       14.8120   -2.3710    1.3180 hc        1 BN4      0.022200
     42 H172       14.7980   -0.6210    1.7850 hc        1 BN4      0.022200
     43 H191        6.6570   -1.2780   -2.8380 hc        1 BN4      0.044033
     44 H192        6.4930    0.4880   -2.4400 hc        1 BN4      0.044033
     45 H193        7.7970   -0.0680   -3.5500 hc        1 BN4      0.044033
     46 H201       11.2220   -0.6890   -2.9360 hc        1 BN4      0.048033
     47 H202        9.9530    0.5140   -3.4100 hc        1 BN4      0.048033
     48 H203        9.6660   -1.2630   -3.6660 hc        1 BN4      0.048033
@<TRIPOS>BOND
     1    1    2 ar  
     2    1    7 ar  
     3    1   30 1   
     4    2    3 ar  
     5    2   31 1   
     6    3    4 ar  
     7    3    9 1   
     8    4    5 1   
     9    4    6 ar  
    10    6    7 ar  
    11    6   32 1   
    12    7   24 1   
    13    8    9 1   
    14    8   22 1   
    15    8   33 1   
    16    9   10 2   
    17   11   12 1   
    18   11   22 1   
    19   11   34 1   
    20   12   13 ar  
    21   12   21 ar  
    22   13   14 ar  
    23   13   35 1   
    24   14   15 ar  
    25   14   36 1   
    26   15   16 1   
    27   15   20 ar  
    28   16   17 1   
    29   17   18 1   
    30   17   37 1   
    31   17   38 1   
    32   18   19 1   
    33   18   39 1   
    34   18   40 1   
    35   19   26 1   
    36   19   41 1   
    37   19   42 1   
    38   20   21 ar  
    39   20   29 1   
    40   21   25 1   
    41   22   23 2   
    42   25   43 1   
    43   25   44 1   
    44   25   45 1   
    45   26   27 1   
    46   26   28 1   
    47   29   46 1   
    48   29   47 1   
    49   29   48 1   
@<TRIPOS>SUBSTRUCTURE
     1 BN4         1 TEMP              0 ****  ****    0 ROOT
