@<TRIPOS>MOLECULE
BN4
   49    50     1     0     0
SMALL
bcc


@<TRIPOS>ATOM
      1 C4         -0.3160   -0.4820    0.4630 ca        1 BN4     -0.130000
      2 C5          1.0070   -0.6670    0.0710 ca        1 BN4     -0.065000
      3 C6          1.9890    0.2690    0.4160 ca        1 BN4     -0.146600
      4 C1          1.6310    1.4110    1.1450 ca        1 BN4      0.047400
      5 CL1         2.7770    2.5950    1.5520 cl        1 BN4     -0.063400
      6 C2          0.3020    1.6080    1.5380 ca        1 BN4     -0.128000
      7 C3         -0.6630    0.6560    1.1990 ca        1 BN4      0.043400
      8 N1          4.3690   -0.0180    0.9160 n         1 BN4     -0.595500
      9 C7          3.3840    0.0070   -0.0570 c         1 BN4      0.692700
     10 O1          3.6150   -0.2120   -1.2610 o         1 BN4     -0.588100
     11 N2          6.2820   -0.6380   -0.4740 n         1 BN4     -0.449100
     12 C9          7.6680   -0.6990   -0.7420 ca        1 BN4      0.021600
     13 C10         8.5750   -1.1450    0.2360 ca        1 BN4     -0.101000
     14 C11         9.9290   -1.2640   -0.0540 ca        1 BN4     -0.188000
     15 C12        10.3950   -0.9480   -1.3310 ca        1 BN4      0.108100
     16 O3         11.7190   -1.0590   -1.7270 os        1 BN4     -0.330900
     17 C15        12.6760   -1.4230   -0.7360 c3        1 BN4      0.123400
     18 C16        13.0140   -0.2460    0.1640 c3        1 BN4     -0.114400
     19 C17        14.0020   -0.6320    1.2420 c3        1 BN4     -0.125400
     20 C13         9.5090   -0.4980   -2.3370 ca        1 BN4     -0.082300
     21 C14         8.1470   -0.3580   -2.0380 ca        1 BN4     -0.081300
     22 C8          5.7690   -0.2360    0.7530 c         1 BN4      0.780100
     23 O2          6.4560   -0.0930    1.7910 o         1 BN4     -0.616100
     24 CL2        -2.2720    0.8890    1.6830 cl        1 BN4     -0.068400
     25 C19         7.1980    0.1340   -3.0690 c3        1 BN4     -0.062800
     26 C18        13.3790   -1.4710    2.3120 c         1 BN4      0.635100
     27 O4         14.0860   -1.4810    3.4770 oh        1 BN4     -0.608100
     28 O5         12.3460   -2.1470    2.2890 o         1 BN4     -0.556000
     29 C20        10.0300   -0.1810   -3.6890 c3        1 BN4     -0.046800
     30 H4         -1.0810   -1.2260    0.1910 ha        1 BN4      0.160000
     31 H5          1.2900   -1.5500   -0.5250 ha        1 BN4      0.162000
     32 H2          0.0210    2.5090    2.1080 ha        1 BN4      0.169000
     33 HN1        13.6360   -2.0430    4.1290 ho        1 BN4      0.447000
     34 HN2         5.6780   -0.6360   -1.2730 hn        1 BN4      0.350500
     35 H10         8.2220   -1.3940    1.2520 ha        1 BN4      0.167000
     36 H11        10.6120   -1.6130    0.7390 ha        1 BN4      0.166000
     37 H151       12.3270   -2.3060   -0.1370 h1        1 BN4      0.065700
     38 H152       13.5680   -1.7190   -1.3550 h1        1 BN4      0.065700
     39 H161       12.0710    0.1480    0.6280 hc        1 BN4      0.069200
     40 H162       13.4530    0.5790   -0.4560 hc        1 BN4      0.069200
     41 H171       14.8560   -1.2170    0.8050 hc        1 BN4      0.084200
     42 H172       14.4310    0.2910    1.7170 hc        1 BN4      0.084200
     43 H191        6.5180   -0.6940   -3.3950 hc        1 BN4      0.049033
     44 H192        7.7230    0.5200   -3.9760 hc        1 BN4      0.049033
     45 H193        6.5730    0.9710   -2.6670 hc        1 BN4      0.049033
     46 H201        9.4720   -0.7600   -4.4670 hc        1 BN4      0.047367
     47 H202        9.9130    0.9110   -3.9040 hc        1 BN4      0.047367
     48 H203       11.1140   -0.4370   -3.7800 hc        1 BN4      0.047367
     49 H12         4.1110    0.1980    1.8580 hn        1 BN4      0.346500
@<TRIPOS>BOND
     1    1    2 ar  
     2    1    7 ar  
     3    1   30 1   
     4    2    3 ar  
     5    2   31 1   
     6    3    4 ar  
     7    3    9 1   
     8    4    5 1   
     9    4    6 ar  
    10    6    7 ar  
    11    6   32 1   
    12    7   24 1   
    13    8    9 1   
    14    8   22 1   
    15    8   49 1   
    16    9   10 2   
    17   11   12 1   
    18   11   22 1   
    19   11   34 1   
    20   12   13 ar  
    21   12   21 ar  
    22   13   14 ar  
    23   13   35 1   
    24   14   15 ar  
    25   14   36 1   
    26   15   16 1   
    27   15   20 ar  
    28   16   17 1   
    29   17   18 1   
    30   17   37 1   
    31   17   38 1   
    32   18   19 1   
    33   18   39 1   
    34   18   40 1   
    35   19   26 1   
    36   19   41 1   
    37   19   42 1   
    38   20   21 ar  
    39   20   29 1   
    40   21   25 1   
    41   22   23 2   
    42   25   43 1   
    43   25   44 1   
    44   25   45 1   
    45   26   27 1   
    46   26   28 2   
    47   27   33 1   
    48   29   46 1   
    49   29   47 1   
    50   29   48 1   
@<TRIPOS>SUBSTRUCTURE
     1 BN4         1 TEMP              0 ****  ****    0 ROOT
