@<TRIPOS>MOLECULE
BN4
   48    49     1     0     0
SMALL
bcc


@<TRIPOS>ATOM
      1 C4         -0.3290   -1.3670   -7.0310 ca        1 BN4     -0.129000
      2 C5         -0.6980   -1.0120   -5.7360 ca        1 BN4     -0.068000
      3 C6          0.1260   -0.1890   -4.9600 ca        1 BN4     -0.139600
      4 C1          1.3240    0.2930   -5.5010 ca        1 BN4      0.043400
      5 CL1         2.3420    1.3220   -4.6110 cl        1 BN4     -0.074400
      6 C2          1.7030   -0.0510   -6.8040 ca        1 BN4     -0.129000
      7 C3          0.8740   -0.8850   -7.5590 ca        1 BN4      0.037400
      8 N1          0.5030   -0.1890   -2.5450 n         1 BN4     -0.615500
      9 C7         -0.3540    0.1640   -3.5840 c         1 BN4      0.688700
     10 O1         -1.4460    0.7210   -3.4130 o         1 BN4     -0.518100
     11 N2          1.1720   -0.2440   -0.2320 n         1 BN4     -0.448100
     12 C9          0.9530   -0.0130    1.1500 ca        1 BN4     -0.014400
     13 C10        -0.1160   -0.6440    1.8100 ca        1 BN4     -0.084000
     14 C11        -0.2720   -0.5140    3.1840 ca        1 BN4     -0.198000
     15 C12         0.6450    0.2400    3.9260 ca        1 BN4      0.149100
     16 O3          0.5740    0.4120    5.2860 os        1 BN4     -0.327900
     17 C15        -0.3980   -0.3900    5.9850 c3        1 BN4      0.125400
     18 C16        -0.1550   -0.1570    7.4650 c3        1 BN4     -0.069400
     19 C17        -1.1780   -0.9020    8.2870 c3        1 BN4     -0.200400
     20 C13         1.7200    0.9000    3.2800 ca        1 BN4     -0.093300
     21 C14         1.8570    0.7940    1.8920 ca        1 BN4     -0.083300
     22 C8          0.1230   -0.1580   -1.1670 c         1 BN4      0.766100
     23 O2         -1.0810   -0.1490   -0.8520 o         1 BN4     -0.558100
     24 CL2         1.3340   -1.3120   -9.1370 cl        1 BN4     -0.080400
     25 C19         2.9540    1.5110    1.1930 c3        1 BN4     -0.056800
     26 C18        -0.7860   -0.9200    9.7780 c         1 BN4      0.911600
     27 O4         -1.7010   -0.7090   10.6230 o         1 BN4     -0.846300
     28 O5          0.4170   -1.1640   10.0790 o         1 BN4     -0.846300
     29 C20         2.6770    1.6920    4.0910 c3        1 BN4     -0.047800
     30 H4         -0.9820   -2.0170   -7.6330 ha        1 BN4      0.157000
     31 H5         -1.6520   -1.3690   -5.3140 ha        1 BN4      0.166000
     32 H2          2.6440    0.3340   -7.2280 ha        1 BN4      0.164000
     33 HN1         1.4020   -0.5360   -2.7870 hn        1 BN4      0.319500
     34 HN2         2.0860    0.0010   -0.5490 hn        1 BN4      0.302500
     35 H10        -0.8510   -1.2340    1.2370 ha        1 BN4      0.154000
     36 H11        -1.1210   -1.0100    3.6770 ha        1 BN4      0.149000
     37 H151       -1.4250   -0.0560    5.6810 h1        1 BN4      0.031200
     38 H152       -0.2550   -1.4690    5.7150 h1        1 BN4      0.031200
     39 H161        0.8730   -0.5080    7.7480 hc        1 BN4      0.062200
     40 H162       -0.2060    0.9400    7.6850 hc        1 BN4      0.062200
     41 H171       -2.1880   -0.4340    8.1750 hc        1 BN4      0.022200
     42 H172       -1.2490   -1.9660    7.9440 hc        1 BN4      0.022200
     43 H191        3.7440    0.7900    0.8640 hc        1 BN4      0.040367
     44 H192        2.5660    2.0540    0.2940 hc        1 BN4      0.040367
     45 H193        3.4390    2.2730    1.8510 hc        1 BN4      0.040367
     46 H201        2.5600    2.7830    3.8730 hc        1 BN4      0.048367
     47 H202        2.5050    1.5360    5.1860 hc        1 BN4      0.048367
     48 H203        3.7300    1.3920    3.8590 hc        1 BN4      0.048367
@<TRIPOS>BOND
     1    1    2 ar  
     2    1    7 ar  
     3    1   30 1   
     4    2    3 ar  
     5    2   31 1   
     6    3    4 ar  
     7    3    9 1   
     8    4    5 1   
     9    4    6 ar  
    10    6    7 ar  
    11    6   32 1   
    12    7   24 1   
    13    8    9 1   
    14    8   22 1   
    15    8   33 1   
    16    9   10 2   
    17   11   12 1   
    18   11   22 1   
    19   11   34 1   
    20   12   13 ar  
    21   12   21 ar  
    22   13   14 ar  
    23   13   35 1   
    24   14   15 ar  
    25   14   36 1   
    26   15   16 1   
    27   15   20 ar  
    28   16   17 1   
    29   17   18 1   
    30   17   37 1   
    31   17   38 1   
    32   18   19 1   
    33   18   39 1   
    34   18   40 1   
    35   19   26 1   
    36   19   41 1   
    37   19   42 1   
    38   20   21 ar  
    39   20   29 1   
    40   21   25 1   
    41   22   23 2   
    42   25   43 1   
    43   25   44 1   
    44   25   45 1   
    45   26   27 1   
    46   26   28 1   
    47   29   46 1   
    48   29   47 1   
    49   29   48 1   
@<TRIPOS>SUBSTRUCTURE
     1 BN4         1 TEMP              0 ****  ****    0 ROOT
