@<TRIPOS>MOLECULE
BN4
   49    50     1     0     0
SMALL
bcc


@<TRIPOS>ATOM
      1 C4          0.0000    0.0000    0.0000 ca        1 BN4     -0.087000
      2 C5          1.3780    0.0000    0.0000 ca        1 BN4     -0.069000
      3 C6          2.0740    0.0000    1.2110 ca        1 BN4     -0.233600
      4 C1          1.3670   -0.0070    2.4160 ca        1 BN4      0.033400
      5 Cl1         2.2210   -0.0100    3.9270 cl        1 BN4      0.105600
      6 C2         -0.0140   -0.0020    2.4020 ca        1 BN4     -0.096000
      7 C3         -0.6970   -0.0000    1.1980 ca        1 BN4      0.013400
      8 N1          4.2290   -0.0010    0.0540 ny        1 BN4      0.322400
      9 C7          3.5500   -0.0020    1.2170 c         1 BN4      0.358700
     10 O1          4.1530   -0.0030    2.2730 o         1 BN4     -0.376100
     11 N2          6.2570   -0.0010   -1.1030 ns        1 BN4      0.100900
     12 C9          7.6500   -0.1310   -1.1000 ca        1 BN4     -0.243400
     13 C10         8.2890   -0.7530   -0.0350 ca        1 BN4     -0.036000
     14 C11         9.6630   -0.8810   -0.0330 ca        1 BN4     -0.204000
     15 C12        10.4070   -0.3920   -1.0980 ca        1 BN4      0.203100
     16 O3         11.7610   -0.5170   -1.0940 os        1 BN4     -0.254900
     17 C15        12.1120   -1.1840    0.1190 c3        1 BN4      0.155400
     18 C16        13.6300   -1.3570    0.1860 c3        1 BN4     -0.023400
     19 C17        14.0050   -2.0730    1.4850 c3        1 BN4     -0.131400
     20 C13         9.7710    0.2250   -2.1640 ca        1 BN4     -0.114300
     21 C14         8.3950    0.3530   -2.1670 ca        1 BN4     -0.049300
     22 C8          5.5770   -0.0010    0.0600 c         1 BN4      0.244100
     23 O2          6.1800   -0.0020    1.1140 o         1 BN4     -0.507100
     24 Cl2        -2.4330    0.0010    1.1890 cl        1 BN4      0.058600
     25 C19         7.7040    1.0250   -3.3260 c3        1 BN4      0.047200
     26 C18        15.5010   -2.2440    1.5510 c         1 BN4      0.979600
     27 O4         16.0610   -2.8490    2.6090 o         1 BN4     -0.892300
     28 O5         16.1950   -1.8360    0.6510 o         1 BN4     -0.892300
     29 C20        10.5790    0.7570   -3.3190 c3        1 BN4      0.061200
     30 H4         -0.5400    0.0010   -0.9390 ha        1 BN4      0.134000
     31 H5          1.9200    0.0030   -0.9380 ha        1 BN4      0.084000
     32 H2         -0.5640   -0.0050    3.3350 ha        1 BN4      0.146000
     33 HN1         3.9400   -0.8140   -0.4530 hn        1 BN4      0.258300
     34 HN2         5.7610    0.0510   -1.9710 hn        1 BN4      0.157500
     35 H10         7.7040   -1.1840    0.7690 ha        1 BN4      0.131000
     36 H11        10.1610   -1.3710    0.7950 ha        1 BN4      0.165000
     37 H151       11.6350   -2.1560    0.1470 h1        1 BN4      0.006200
     38 H152       11.7780   -0.5940    0.9640 h1        1 BN4      0.006200
     39 H161       14.1070   -0.3850    0.1590 hc        1 BN4      0.036200
     40 H162       13.9640   -1.9460   -0.6600 hc        1 BN4      0.036200
     41 H171       13.5290   -3.0450    1.5120 hc        1 BN4      0.004200
     42 H172       13.6720   -1.4840    2.3310 hc        1 BN4      0.004200
     43 H191        6.9440    1.7000   -2.9500 hc        1 BN4      0.012033
     44 H192        7.2410    0.2740   -3.9550 hc        1 BN4      0.012033
     45 H193        8.4290    1.5840   -3.9040 hc        1 BN4      0.012033
     46 H201       11.6180    0.4780   -3.1910 hc        1 BN4      0.021033
     47 H202       10.2050    0.3390   -4.2450 hc        1 BN4      0.021033
     48 H203       10.4970    1.8370   -3.3500 hc        1 BN4      0.021033
     49 H12         3.9420    0.8150   -0.4500 hn        1 BN4      0.258300
@<TRIPOS>BOND
     1    1    2 ar  
     2    1    7 ar  
     3    1   30 1   
     4    2    3 ar  
     5    2   31 1   
     6    3    4 ar  
     7    3    9 1   
     8    4    5 1   
     9    4    6 ar  
    10    6    7 ar  
    11    6   32 1   
    12    7   24 1   
    13    8    9 1   
    14    8   22 1   
    15    8   33 1   
    16    8   49 1   
    17    9   10 2   
    18   11   12 1   
    19   11   22 1   
    20   11   34 1   
    21   12   13 ar  
    22   12   21 ar  
    23   13   14 ar  
    24   13   35 1   
    25   14   15 ar  
    26   14   36 1   
    27   15   16 1   
    28   15   20 ar  
    29   16   17 1   
    30   17   18 1   
    31   17   37 1   
    32   17   38 1   
    33   18   19 1   
    34   18   39 1   
    35   18   40 1   
    36   19   26 1   
    37   19   41 1   
    38   19   42 1   
    39   20   21 ar  
    40   20   29 1   
    41   21   25 1   
    42   22   23 2   
    43   25   43 1   
    44   25   44 1   
    45   25   45 1   
    46   26   27 1   
    47   26   28 1   
    48   29   46 1   
    49   29   47 1   
    50   29   48 1   
@<TRIPOS>SUBSTRUCTURE
     1 BN4         1 TEMP              0 ****  ****    0 ROOT
