@<TRIPOS>MOLECULE
BN4
   48    44     1     0     0
SMALL
bcc


@<TRIPOS>ATOM
      1 C4         -2.1610   -7.1130    2.6230 c1        1 BN4     -0.129000
      2 C5         -2.1000   -5.8760    1.9910 c1        1 BN4     -0.068000
      3 C6         -2.9080   -4.8360    2.4240 c1        1 BN4     -0.119000
      4 C1         -3.7800   -5.0310    3.4900 c1        1 BN4     -0.038000
      5 CL1        -4.8270   -3.7350    4.0060 cl        1 BN4      0.001000
      6 C2         -3.8410   -6.2660    4.1210 c1        1 BN4     -0.129000
      7 C3         -3.0320   -7.3070    3.6880 c1        1 BN4     -0.038000
      8 N1         -1.8160   -3.2260    0.7500 n         1 BN4     -0.395000
      9 C7         -2.7740   -3.4490    1.7900 c2        1 BN4      0.362000
     10 O1         -3.4910   -2.5390    2.1620 o         1 BN4     -0.279000
     11 N2         -0.3190   -1.5240   -0.2690 n         1 BN4     -0.301000
     12 C9         -0.1230   -0.2160   -0.8340 c2        1 BN4     -0.008000
     13 C10         0.2420   -0.0880   -2.1700 c2        1 BN4     -0.084000
     14 C11         0.5890    1.1560   -2.6780 c1        1 BN4     -0.199000
     15 C12         0.5720    2.2710   -1.8550 c1        1 BN4      0.104000
     16 O3          0.8720    3.5490   -2.3890 os        1 BN4     -0.210000
     17 C15         2.2040    3.6780   -2.8560 c3        1 BN4     -0.026000
     18 C16         2.7200    5.0790   -2.5430 c3        1 BN4     -0.147000
     19 C17         4.1770    5.1880   -2.9680 c3        1 BN4     -0.229000
     20 C13         0.2090    2.1460   -0.5250 c1        1 BN4     -0.087000
     21 C14        -0.1390    0.8990   -0.0130 c1        1 BN4     -0.076000
     22 C8         -1.6060   -1.9010    0.2390 c2        1 BN4      0.392000
     23 O2         -2.5300   -1.1160    0.1920 o         1 BN4     -0.319000
     24 CL2        -2.9190   -8.8320    4.5270 cl        1 BN4      0.001000
     25 C19         0.0230    0.7570    1.4870 c3        1 BN4     -0.182000
     26 C18         4.7950    6.4330   -2.3470 c2        1 BN4      0.331000
     27 O4          4.4710    7.5760   -2.7720 o         1 BN4     -0.580500
     28 O5          5.6630    6.3200   -1.4390 o         1 BN4     -0.580500
     29 C20         0.0960    3.3760    0.3440 c3        1 BN4     -0.173000
     30 H4         -1.5910   -7.8450    2.3180 ha        1 BN4      0.160500
     31 H5         -1.4850   -5.7380    1.2470 ha        1 BN4      0.166000
     32 H2         -4.4540   -6.4030    4.8700 ha        1 BN4      0.160500
     33 HN1        -1.3260   -3.9220    0.4260 hn        1 BN4      0.233000
     34 HN2         0.3730   -2.1190   -0.2440 hn        1 BN4      0.215000
     35 H10         0.2530   -0.8730   -2.7500 ha        1 BN4      0.154000
     36 H11         0.8450    1.2450   -3.6160 ha        1 BN4      0.149000
     37 H151        2.7720    3.0140   -2.4110 h1        1 BN4      0.070000
     38 H152        2.2270    3.5290   -3.8240 h1        1 BN4      0.070000
     39 H161        2.1870    5.7390   -3.0320 hc        1 BN4      0.101000
     40 H162        2.6460    5.2470   -1.5810 hc        1 BN4      0.101000
     41 H171        4.2290    5.2500   -3.9440 hc        1 BN4      0.061500
     42 H172        4.6650    4.3960   -2.6650 hc        1 BN4      0.061500
     43 H191       -0.0880   -0.1830    1.7410 hc        1 BN4      0.079333
     44 H192        0.9180    1.0630    1.7490 hc        1 BN4      0.079333
     45 H193       -0.6550    1.3010    1.9420 hc        1 BN4      0.079333
     46 H201       -0.7750    3.3800    0.7930 hc        1 BN4      0.087667
     47 H202        0.8090    3.3680    1.0150 hc        1 BN4      0.087667
     48 H203        0.1800    4.1780   -0.2130 hc        1 BN4      0.087667
@<TRIPOS>BOND
     1    1    7 1   
     2    1   30 1   
     3    2    3 1   
     4    2   31 1   
     5    3    9 1   
     6    4    5 1   
     7    4    6 1   
     8    6   32 1   
     9    7   24 1   
    10    8    9 1   
    11    8   22 1   
    12    8   33 1   
    13    9   10 1   
    14   11   12 1   
    15   11   22 1   
    16   11   34 1   
    17   12   13 1   
    18   12   21 1   
    19   13   14 1   
    20   13   35 1   
    21   14   36 1   
    22   15   16 1   
    23   15   20 1   
    24   16   17 1   
    25   17   18 1   
    26   17   37 1   
    27   17   38 1   
    28   18   19 1   
    29   18   39 1   
    30   18   40 1   
    31   19   26 1   
    32   19   41 1   
    33   19   42 1   
    34   20   29 1   
    35   21   25 1   
    36   22   23 1   
    37   25   43 1   
    38   25   44 1   
    39   25   45 1   
    40   26   27 1   
    41   26   28 1   
    42   29   46 1   
    43   29   47 1   
    44   29   48 1   
@<TRIPOS>SUBSTRUCTURE
     1 BN4         1 TEMP              0 ****  ****    0 ROOT
