@<TRIPOS>MOLECULE
BN5
   48    49     1     0     0
SMALL
bcc


@<TRIPOS>ATOM
      1 C4          2.5810    0.8020    6.1470 ca        1 BN5     -0.131000
      2 C5          2.1430    0.6230    4.8380 ca        1 BN5     -0.065000
      3 C6          0.9830   -0.1120    4.5670 ca        1 BN5     -0.142600
      4 C1          0.2690   -0.6900    5.6260 ca        1 BN5      0.047400
      5 CL1        -1.1200   -1.6250    5.3490 cl        1 BN5     -0.063400
      6 C2          0.7040   -0.5210    6.9450 ca        1 BN5     -0.130000
      7 C3          1.8550    0.2300    7.1970 ca        1 BN5      0.041400
      8 N1         -0.6910    0.1270    2.7970 n         1 BN5     -0.597500
      9 C7          0.5910   -0.2720    3.1310 c         1 BN5      0.688700
     10 O1          1.4110   -0.7000    2.2980 o         1 BN5     -0.582100
     11 N2         -0.6670   -0.4060    0.4120 n         1 BN5     -0.448100
     12 C9         -1.1440   -0.2890   -0.9130 ca        1 BN5      0.078600
     13 C10        -2.5250   -0.2610   -1.1990 ca        1 BN5     -0.183000
     14 C11        -2.9600   -0.1980   -2.5170 ca        1 BN5     -0.084000
     15 C12        -2.0570   -0.1690   -3.5730 ca        1 BN5     -0.218000
     16 C16        -0.1700   -0.0650   -5.6330 c3        1 BN5      0.128400
     17 C17         1.0770   -0.0240   -6.4960 c3        1 BN5     -0.084400
     18 C18         0.6920    0.1300   -7.9530 c3        1 BN5     -0.066400
     19 C19         1.9020    0.1600   -8.8530 c3        1 BN5     -0.195400
     20 C20         1.4930    0.1200  -10.3370 c         1 BN5      0.908600
     21 O5          2.1560    0.8300  -11.1460 o         1 BN5     -0.850300
     22 O4          0.5300   -0.6270  -10.6780 o         1 BN5     -0.850300
     23 C13        -0.6830   -0.1990   -3.2990 ca        1 BN5      0.163100
     24 C14        -0.2010   -0.2510   -1.9720 ca        1 BN5     -0.146300
     25 C8         -1.3250    0.1170    1.5160 c         1 BN5      0.784100
     26 O2         -2.4900    0.5740    1.5080 o         1 BN5     -0.617100
     27 CL2         2.3790    0.4430    8.7980 cl        1 BN5     -0.077400
     28 H4          3.4920    1.3850    6.3490 ha        1 BN5      0.158000
     29 H5          2.7160    1.0510    3.9980 ha        1 BN5      0.164000
     30 H2          0.1430   -0.9790    7.7760 ha        1 BN5      0.166000
     31 HN1        -1.2910    0.4560    3.5270 hn        1 BN5      0.343500
     32 HN2         0.2900   -0.6860    0.5090 hn        1 BN5      0.353500
     33 H10        -3.2650   -0.2770   -0.3840 ha        1 BN5      0.160000
     34 H11        -4.0410   -0.1720   -2.7260 ha        1 BN5      0.131000
     35 H151        1.5640   -1.2520   -1.2640 hc        1 BN5      0.048700
     36 H152        1.8370   -0.1390   -2.6630 hc        1 BN5      0.048700
     37 H153        1.5520    0.5490   -1.0150 hc        1 BN5      0.048700
     38 H12        -2.4260   -0.1250   -4.6070 ha        1 BN5      0.148000
     39 H161       -0.8060   -0.9540   -5.8840 h1        1 BN5      0.039200
     40 H162       -0.7700    0.8760   -5.7430 h1        1 BN5      0.039200
     41 H171        1.7290    0.8280   -6.1740 hc        1 BN5      0.044700
     42 H172        1.6640   -0.9680   -6.3490 hc        1 BN5      0.044700
     43 H181        0.0290   -0.7180   -8.2730 hc        1 BN5      0.047200
     44 H182        0.1050    1.0770   -8.0880 hc        1 BN5      0.047200
     45 H191        2.5110    1.0770   -8.6610 hc        1 BN5      0.021700
     46 H192        2.5500   -0.7310   -8.6540 hc        1 BN5      0.021700
     47 C15         1.2580   -0.2740   -1.7140 c3        1 BN5     -0.049800
     48 O3          0.2890   -0.1800   -4.2730 os        1 BN5     -0.335900
@<TRIPOS>BOND
     1    1    2 ar  
     2    1    7 ar  
     3    1   28 1   
     4    2    3 ar  
     5    2   29 1   
     6    3    4 ar  
     7    3    9 1   
     8    4    5 1   
     9    4    6 ar  
    10    6    7 ar  
    11    6   30 1   
    12    7   27 1   
    13    8    9 1   
    14    8   25 1   
    15    8   31 1   
    16    9   10 2   
    17   11   12 1   
    18   11   25 1   
    19   11   32 1   
    20   12   13 ar  
    21   12   24 ar  
    22   13   14 ar  
    23   13   33 1   
    24   14   15 ar  
    25   14   34 1   
    26   15   23 ar  
    27   15   38 1   
    28   16   17 1   
    29   16   39 1   
    30   16   40 1   
    31   16   48 1   
    32   17   18 1   
    33   17   41 1   
    34   17   42 1   
    35   18   19 1   
    36   18   43 1   
    37   18   44 1   
    38   19   20 1   
    39   19   45 1   
    40   19   46 1   
    41   20   21 1   
    42   20   22 1   
    43   23   24 ar  
    44   23   48 1   
    45   24   47 1   
    46   25   26 2   
    47   35   47 1   
    48   36   47 1   
    49   37   47 1   
@<TRIPOS>SUBSTRUCTURE
     1 BN5         1 TEMP              0 ****  ****    0 ROOT
