@<TRIPOS>MOLECULE
BN5
   50    47     1     0     0
SMALL
bcc


@<TRIPOS>ATOM
      1 C4          0.8510   -0.7340    1.8060 c2        1 BN5     -0.177000
      2 C5          1.5260   -0.9150    0.5290 c2        1 BN5     -0.095000
      3 C6          1.7290    0.1380   -0.2890 c2        1 BN5     -0.092000
      4 C1          1.2940    1.4650    0.1190 c2        1 BN5     -0.373000
      5 CL1         1.2860    2.7310   -1.0180 cl        1 BN5      0.035000
      6 C2          0.8800    1.7260    1.3730 c1        1 BN5      0.253000
      7 C3          1.4150   -0.0960    2.8490 c2        1 BN5     -0.095000
      8 N1          1.6780    0.0630   -2.7350 n         1 BN5     -0.393000
      9 C7          2.4260   -0.0230   -1.6000 c2        1 BN5      0.377000
     10 O1          3.6590   -0.2530   -1.6610 o         1 BN5     -0.465000
     11 N2          6.4240   -0.2030   -1.6940 n3        1 BN5     -0.221000
     12 C9          7.7420   -0.0670   -1.6280 c2        1 BN5      0.205000
     13 C10         8.3270    0.8450   -0.5730 c3        1 BN5     -0.245000
     14 C11         9.7640    0.9550   -0.4830 c1        1 BN5      0.008000
     15 C12        10.6370    0.2640   -1.3970 c3        1 BN5     -0.281000
     16 C16        13.1520   -2.1010   -1.1960 c2        1 BN5     -0.234000
     17 C17        13.1570   -1.8600    0.1090 c2        1 BN5     -0.234000
     18 C18        16.0090    0.2440   -4.4700 c3        1 BN5     -0.194000
     19 C19        15.2130    1.5330   -4.3990 c1        1 BN5      0.242000
     20 C20        14.1210    0.6170   -3.7650 c2        1 BN5      0.195000
     21 O5         13.0000    0.5620   -3.2900 o         1 BN5     -0.305000
     22 O4         14.9090   -0.5390   -3.8570 os        1 BN5     -0.284000
     23 C13         9.9900   -0.6140   -2.4120 c2        1 BN5      0.211000
     24 C14         8.6200   -0.7650   -2.5270 c2        1 BN5     -0.286000
     25 C8          4.7670    0.5720    1.9580 c1        1 BN5      0.264000
     26 O2          5.6420    0.5760    1.1730 o         1 BN5     -0.259000
     27 CL2         0.6520    0.0740    4.3390 cl        1 BN5      0.034000
     28 H4         -0.1600   -1.1800    1.8710 ha        1 BN5      0.174000
     29 H5          1.8250   -1.9410    0.2620 ha        1 BN5      0.164000
     30 H2          2.4390    0.3170    2.8340 h4        1 BN5      0.171000
     31 HN1         0.7180    0.3030   -2.6940 hn        1 BN5      0.241000
     32 HN2         5.8090    0.2700   -1.0560 hn        1 BN5      0.280500
     33 H10         7.9490    0.5360    0.4540 hc        1 BN5      0.199000
     34 H11         7.9360    1.9020   -0.7200 hc        1 BN5      0.199000
     35 H151        7.4530   -2.4810   -3.1020 hc        1 BN5      0.100667
     36 H152        8.8470   -2.1150   -4.1930 hc        1 BN5      0.100667
     37 H153        7.3710   -1.0730   -4.2540 hc        1 BN5      0.100667
     38 H12        11.2740    1.0520   -1.9200 hc        1 BN5      0.216000
     39 H161       11.7170   -1.1200   -3.0800 ho        1 BN5      0.279000
     40 H162       11.3920   -0.3410   -0.7900 hc        1 BN5      0.216000
     41 H171       12.6620   -2.9810   -1.6360 ha        1 BN5      0.119000
     42 H172       13.6720   -1.4570   -1.9230 ha        1 BN5      0.119000
     43 H181       12.6650   -2.5210    0.8360 ha        1 BN5      0.119000
     44 H182       13.6710   -0.9960    0.5520 ha        1 BN5      0.119000
     45 H191       16.9160    0.1920   -3.8230 h1        1 BN5      0.176000
     46 H192       16.2250   -0.1430   -5.4940 h1        1 BN5      0.176000
     47 C15         8.0410   -1.6510   -3.5690 c3        1 BN5     -0.178000
     48 O3         10.7710   -1.3080   -3.2650 oh        1 BN5     -0.205000
     49 H121        2.1110   -0.0200   -3.6230 hn        1 BN5      0.241000
     50 H22         5.9780   -0.7900   -2.3730 hn        1 BN5      0.280500
@<TRIPOS>BOND
     1    1    2 1   
     2    1    7 1   
     3    1   28 1   
     4    2    3 1   
     5    2   29 1   
     6    3    4 1   
     7    3    9 1   
     8    4    5 1   
     9    4    6 1   
    10    7   27 1   
    11    7   30 1   
    12    8    9 1   
    13    8   31 1   
    14    8   49 1   
    15    9   10 1   
    16   11   12 1   
    17   11   32 1   
    18   11   50 1   
    19   12   13 1   
    20   12   24 1   
    21   13   14 1   
    22   13   33 1   
    23   13   34 1   
    24   14   15 1   
    25   15   23 1   
    26   15   38 1   
    27   15   40 1   
    28   16   17 1   
    29   16   41 1   
    30   16   42 1   
    31   17   43 1   
    32   17   44 1   
    33   18   19 1   
    34   18   22 1   
    35   18   45 1   
    36   18   46 1   
    37   19   20 1   
    38   20   21 1   
    39   20   22 1   
    40   23   24 1   
    41   23   48 1   
    42   24   47 1   
    43   25   26 1   
    44   35   47 1   
    45   36   47 1   
    46   37   47 1   
    47   39   48 1   
@<TRIPOS>SUBSTRUCTURE
     1 BN5         1 TEMP              0 ****  ****    0 ROOT
