@<TRIPOS>MOLECULE
BN5
   48    45     1     0     0
SMALL
bcc


@<TRIPOS>ATOM
      1 C4          2.5550   -5.8480   -4.2670 c1        1 BN5     -0.143000
      2 C5          2.3590   -4.8440   -3.3130 c1        1 BN5     -0.067000
      3 C6          3.3620   -3.9110   -3.0710 c1        1 BN5     -0.103000
      4 C1          4.5710   -3.9790   -3.7850 c1        1 BN5     -0.028000
      5 CL1         5.8250   -2.7820   -3.5000 cl        1 BN5     -0.021500
      6 C2          4.7640   -4.9720   -4.7290 c1        1 BN5     -0.143000
      7 C3          3.7550   -5.9130   -4.9740 c1        1 BN5     -0.028000
      8 N1          1.9650   -2.7620   -1.2700 n         1 BN5     -0.383000
      9 C7          3.1650   -2.8230   -2.0080 c2        1 BN5      0.364000
     10 O1          4.0670   -2.0260   -1.7750 o         1 BN5     -0.347000
     11 N2          0.7090   -1.7540    0.6510 n         1 BN5     -0.298000
     12 C9          0.5500   -0.7080    1.6520 c2        1 BN5      0.089000
     13 C10         1.5400   -0.5150    2.6250 c2        1 BN5     -0.178000
     14 C11         1.4320    0.5450    3.5340 c1        1 BN5     -0.108000
     15 C15        -1.9730   -0.4680    1.5120 c3        1 BN5     -0.201000
     16 C12         0.3360    1.4140    3.4750 c1        1 BN5     -0.190000
     17 O3         -1.7030    2.1530    2.3900 os        1 BN5     -0.242000
     18 C16        -1.3920    3.2750    1.5510 c3        1 BN5     -0.014000
     19 C17        -2.3810    4.4450    1.8540 c3        1 BN5     -0.190000
     20 C18        -3.4790    4.4940    0.7530 c3        1 BN5     -0.147000
     21 C19        -4.4920    5.5980    1.0920 c3        1 BN5     -0.200000
     22 C20        -5.8760    5.1620    0.6700 c2        1 BN5      0.315000
     23 O5         -6.2030    5.2040   -0.5330 o         1 BN5     -0.600000
     24 O4         -6.7290    4.8360    1.5450 o         1 BN5     -0.600000
     25 C13        -0.6580    1.2270    2.5050 c2        1 BN5      0.059000
     26 C14        -0.5550    0.1660    1.5910 c2        1 BN5     -0.104000
     27 C8          1.7460   -1.6600   -0.3160 c2        1 BN5      0.410000
     28 O2          2.5040   -0.7010   -0.3070 o         1 BN5     -0.329000
     29 CL2         4.2450   -7.1770   -6.0980 cl        1 BN5     -0.021500
     30 H4          1.8470   -6.5070   -4.4390 ha        1 BN5      0.150500
     31 H5          1.5170   -4.7980   -2.8160 ha        1 BN5      0.218000
     32 H2          5.6270   -5.0580   -5.1750 ha        1 BN5      0.150500
     33 HN1         1.3510   -3.4360   -1.3390 hn        1 BN5      0.309000
     34 HN2         0.1440   -2.4610    0.6410 hn        1 BN5      0.264000
     35 H10         2.2960   -1.1100    2.6680 ha        1 BN5      0.162000
     36 H11         2.1230    0.6780    4.2120 ha        1 BN5      0.121000
     37 H151       -2.1900   -0.6750    0.5730 hc        1 BN5      0.100000
     38 H152       -2.6360    0.1660    1.8700 hc        1 BN5      0.100000
     39 H153       -1.9910   -1.3030    2.0470 hc        1 BN5      0.100000
     40 H12         0.2750    2.1680    4.0970 ha        1 BN5      0.127000
     41 H161       -1.4770    3.0080    0.5950 h1        1 BN5      0.079500
     42 H162       -0.4610    3.5750    1.7300 h1        1 BN5      0.079500
     43 H171       -2.8020    4.3010    2.7330 hc        1 BN5      0.084000
     44 H172       -1.8940    5.2890    1.8620 hc        1 BN5      0.084000
     45 H181       -3.0670    4.6830   -0.1080 hc        1 BN5      0.084500
     46 H182       -3.9380    3.6300    0.7110 hc        1 BN5      0.084500
     47 H191       -4.2520    6.4110    0.6240 hc        1 BN5      0.074000
     48 H192       -4.4830    5.7630    2.0610 hc        1 BN5      0.074000
@<TRIPOS>BOND
     1    1    7 1   
     2    1   30 1   
     3    2    3 1   
     4    2   31 1   
     5    3    9 1   
     6    4    5 1   
     7    4    6 1   
     8    6   32 1   
     9    7   29 1   
    10    8    9 1   
    11    8   27 1   
    12    8   33 1   
    13    9   10 1   
    14   11   12 1   
    15   11   27 1   
    16   11   34 1   
    17   12   13 1   
    18   12   26 1   
    19   13   14 1   
    20   13   35 1   
    21   14   36 1   
    22   15   26 1   
    23   15   37 1   
    24   15   38 1   
    25   15   39 1   
    26   16   25 1   
    27   16   40 1   
    28   17   18 1   
    29   17   25 1   
    30   18   19 1   
    31   18   41 1   
    32   18   42 1   
    33   19   20 1   
    34   19   43 1   
    35   19   44 1   
    36   20   21 1   
    37   20   45 1   
    38   20   46 1   
    39   21   22 1   
    40   21   47 1   
    41   21   48 1   
    42   22   23 1   
    43   22   24 1   
    44   25   26 1   
    45   27   28 1   
@<TRIPOS>SUBSTRUCTURE
     1 BN5         1 TEMP              0 ****  ****    0 ROOT
