@<TRIPOS>MOLECULE
BNA
   45    48     1     0     0
SMALL
bcc


@<TRIPOS>ATOM
      1 OXT         3.9040   -1.9140    0.0460 o         1 BNA     -0.836300
      2 C           2.8300   -1.9130    0.7080 c         1 BNA      0.910600
      3 O           2.7000   -2.4790    1.8330 o         1 BNA     -0.836300
      4 CA          1.6120   -1.1280    0.1350 c3        1 BNA     -0.180700
      5 CB1         1.7020   -1.0940   -1.3840 c3        1 BNA     -0.045100
      6 C1A         1.0210    0.0750   -2.0090 ca        1 BNA     -0.021800
      7 C2A         1.5880    1.3260   -1.8390 ca        1 BNA     -0.152000
      8 C3A         1.0390    2.4730   -2.4490 ca        1 BNA     -0.115500
      9 C4A        -0.0760    2.3680   -3.2440 ca        1 BNA     -0.153000
     10 C11        -0.6960    1.1060   -3.4380 ca        1 BNA     -0.034000
     11 C5A        -1.8560    0.9890   -4.2540 ca        1 BNA     -0.139500
     12 C6A        -2.4720   -0.2240   -4.4290 ca        1 BNA     -0.133000
     13 C7A        -1.9570   -1.3750   -3.7870 ca        1 BNA     -0.156500
     14 C8A        -0.8370   -1.2890   -2.9970 ca        1 BNA     -0.099000
     15 C12        -0.1590   -0.0510   -2.8080 ca        1 BNA     -0.036500
     16 CB2         0.2980   -1.7160    0.6300 c3        1 BNA     -0.045100
     17 C1B        -0.6510   -0.7010    1.1730 ca        1 BNA     -0.021800
     18 C2B        -1.7660   -0.3420    0.4420 ca        1 BNA     -0.152000
     19 C3B        -2.7050    0.5860    0.9430 ca        1 BNA     -0.115500
     20 C4B        -2.5280    1.1510    2.1810 ca        1 BNA     -0.153000
     21 C13        -1.3940    0.8120    2.9660 ca        1 BNA     -0.034000
     22 C5B        -1.1950    1.3900    4.2500 ca        1 BNA     -0.139500
     23 C6B        -0.0940    1.0600    5.0000 ca        1 BNA     -0.133000
     24 C7B         0.8560    0.1400    4.5000 ca        1 BNA     -0.156500
     25 C8B         0.6910   -0.4350    3.2640 ca        1 BNA     -0.099000
     26 C14        -0.4430   -0.1160    2.4630 ca        1 BNA     -0.036500
     27 HA          1.7250   -0.0820    0.5310 hc        1 BNA      0.049700
     28 HB11        2.8000   -1.0390   -1.6510 hc        1 BNA      0.063200
     29 HB12        1.3290   -2.0630   -1.8040 hc        1 BNA      0.063200
     30 H2A         2.4900    1.4290   -1.2150 ha        1 BNA      0.140000
     31 H3A         1.5200    3.4480   -2.2830 ha        1 BNA      0.117500
     32 H4A        -0.5080    3.2520   -3.7330 ha        1 BNA      0.115000
     33 H5A        -2.2490    1.8950   -4.7380 ha        1 BNA      0.115000
     34 H6A        -3.3670   -0.3170   -5.0590 ha        1 BNA      0.113500
     35 H7A        -2.4700   -2.3380   -3.9250 ha        1 BNA      0.125000
     36 H8A        -0.4590   -2.1900   -2.4890 ha        1 BNA      0.180000
     37 HB21       -0.2050   -2.2780   -0.2030 hc        1 BNA      0.063200
     38 HB22        0.5250   -2.4680    1.4410 hc        1 BNA      0.063200
     39 H2B        -1.9260   -0.7710   -0.5610 ha        1 BNA      0.140000
     40 H3B        -3.5760    0.8480    0.3250 ha        1 BNA      0.117500
     41 H4B        -3.2530    1.8730    2.5830 ha        1 BNA      0.115000
     42 H5B        -1.9400    2.1060    4.6240 ha        1 BNA      0.115000
     43 H6B         0.0610    1.5070    5.9930 ha        1 BNA      0.113500
     44 H7B         1.7360   -0.1100    5.1120 ha        1 BNA      0.125000
     45 H8B         1.4460   -1.1520    2.8680 ha        1 BNA      0.180000
@<TRIPOS>BOND
     1    1    2 1   
     2    2    3 1   
     3    2    4 1   
     4    4    5 1   
     5    4   16 1   
     6    4   27 1   
     7    5    6 1   
     8    5   28 1   
     9    5   29 1   
    10    6    7 ar  
    11    6   15 ar  
    12    7    8 ar  
    13    7   30 1   
    14    8    9 ar  
    15    8   31 1   
    16    9   10 ar  
    17    9   32 1   
    18   10   11 ar  
    19   10   15 ar  
    20   11   12 ar  
    21   11   33 1   
    22   12   13 ar  
    23   12   34 1   
    24   13   14 ar  
    25   13   35 1   
    26   14   15 ar  
    27   14   36 1   
    28   16   17 1   
    29   16   37 1   
    30   16   38 1   
    31   17   18 ar  
    32   17   26 ar  
    33   18   19 ar  
    34   18   39 1   
    35   19   20 ar  
    36   19   40 1   
    37   20   21 ar  
    38   20   41 1   
    39   21   22 ar  
    40   21   26 ar  
    41   22   23 ar  
    42   22   42 1   
    43   23   24 ar  
    44   23   43 1   
    45   24   25 ar  
    46   24   44 1   
    47   25   26 ar  
    48   25   45 1   
@<TRIPOS>SUBSTRUCTURE
     1 BNA         1 TEMP              0 ****  ****    0 ROOT
