@<TRIPOS>MOLECULE
BNA
   45    48     1     0     0
SMALL
bcc


@<TRIPOS>ATOM
      1 OXT         2.9650    1.4570    1.6370 o         1 BNA     -0.836300
      2 C           2.6440    0.2590    1.4080 c         1 BNA      0.910600
      3 O           2.1650   -0.5180    2.2850 o         1 BNA     -0.836300
      4 CA          2.7950   -0.2800   -0.0460 c3        1 BNA     -0.180700
      5 CB1         3.9150    0.4740   -0.7500 c3        1 BNA     -0.045100
      6 C1A         3.7740    0.5290   -2.2330 ca        1 BNA     -0.021800
      7 C2A         2.7650    1.3160   -2.7620 ca        1 BNA     -0.152000
      8 C3A         2.6050    1.4690   -4.1540 ca        1 BNA     -0.115500
      9 C4A         3.4640    0.8440   -5.0240 ca        1 BNA     -0.153000
     10 C11         4.5080    0.0210   -4.5250 ca        1 BNA     -0.034000
     11 C5A         5.3990   -0.6360   -5.4190 ca        1 BNA     -0.139500
     12 C6A         6.3970   -1.4490   -4.9440 ca        1 BNA     -0.133000
     13 C7A         6.5410   -1.6470   -3.5500 ca        1 BNA     -0.156500
     14 C8A         5.6960   -1.0210   -2.6670 ca        1 BNA     -0.099000
     15 C12         4.6610   -0.1550   -3.1220 ca        1 BNA     -0.036500
     16 CB2         3.0100   -1.7870   -0.0540 c3        1 BNA     -0.045100
     17 C1B         2.1230   -2.5180   -1.0050 ca        1 BNA     -0.021800
     18 C2B         2.6450   -3.0300   -2.1770 ca        1 BNA     -0.152000
     19 C3B         1.8420   -3.7610   -3.0790 ca        1 BNA     -0.115500
     20 C4B         0.5160   -3.9830   -2.8050 ca        1 BNA     -0.153000
     21 C13        -0.0620   -3.4730   -1.6110 ca        1 BNA     -0.034000
     22 C5B        -1.4350   -3.6930   -1.3120 ca        1 BNA     -0.139500
     23 C6B        -1.9870   -3.1940   -0.1590 ca        1 BNA     -0.133000
     24 C7B        -1.1920   -2.4510    0.7440 ca        1 BNA     -0.156500
     25 C8B         0.1380   -2.2220    0.4830 ca        1 BNA     -0.099000
     26 C14         0.7400   -2.7310   -0.7030 ca        1 BNA     -0.036500
     27 HA          1.8190   -0.0400   -0.5510 hc        1 BNA      0.049700
     28 HB11        3.8970    1.5360   -0.3600 hc        1 BNA      0.063200
     29 HB12        4.9040    0.0490   -0.4440 hc        1 BNA      0.063200
     30 H2A         2.0720    1.8350   -2.0800 ha        1 BNA      0.140000
     31 H3A         1.7860    2.0990   -4.5320 ha        1 BNA      0.117500
     32 H4A         3.3570    0.9630   -6.1110 ha        1 BNA      0.115000
     33 H5A         5.2670   -0.4790   -6.4990 ha        1 BNA      0.115000
     34 H6A         7.0870   -1.9570   -5.6320 ha        1 BNA      0.113500
     35 H7A         7.3360   -2.3120   -3.1850 ha        1 BNA      0.125000
     36 H8A         5.8100   -1.2000   -1.5860 ha        1 BNA      0.180000
     37 HB21        4.0820   -2.0170   -0.3030 hc        1 BNA      0.063200
     38 HB22        2.8260   -2.1800    0.9880 hc        1 BNA      0.063200
     39 H2B         3.7030   -2.8550   -2.4290 ha        1 BNA      0.140000
     40 H3B         2.2960   -4.1450   -4.0040 ha        1 BNA      0.117500
     41 H4B        -0.1190   -4.5530   -3.4980 ha        1 BNA      0.115000
     42 H5B        -2.0410   -4.2690   -2.0260 ha        1 BNA      0.115000
     43 H6B        -3.0480   -3.3620    0.0730 ha        1 BNA      0.113500
     44 H7B        -1.6510   -2.0530    1.6610 ha        1 BNA      0.125000
     45 H8B         0.7600   -1.6290    1.1910 ha        1 BNA      0.180000
@<TRIPOS>BOND
     1    1    2 1   
     2    2    3 1   
     3    2    4 1   
     4    4    5 1   
     5    4   16 1   
     6    4   27 1   
     7    5    6 1   
     8    5   28 1   
     9    5   29 1   
    10    6    7 ar  
    11    6   15 ar  
    12    7    8 ar  
    13    7   30 1   
    14    8    9 ar  
    15    8   31 1   
    16    9   10 ar  
    17    9   32 1   
    18   10   11 ar  
    19   10   15 ar  
    20   11   12 ar  
    21   11   33 1   
    22   12   13 ar  
    23   12   34 1   
    24   13   14 ar  
    25   13   35 1   
    26   14   15 ar  
    27   14   36 1   
    28   16   17 1   
    29   16   37 1   
    30   16   38 1   
    31   17   18 ar  
    32   17   26 ar  
    33   18   19 ar  
    34   18   39 1   
    35   19   20 ar  
    36   19   40 1   
    37   20   21 ar  
    38   20   41 1   
    39   21   22 ar  
    40   21   26 ar  
    41   22   23 ar  
    42   22   42 1   
    43   23   24 ar  
    44   23   43 1   
    45   24   25 ar  
    46   24   44 1   
    47   25   26 ar  
    48   25   45 1   
@<TRIPOS>SUBSTRUCTURE
     1 BNA         1 TEMP              0 ****  ****    0 ROOT
