@<TRIPOS>MOLECULE
BND
   57    58     1     0     0
SMALL
bcc


@<TRIPOS>ATOM
      1 CY1         0.0980    0.2550    0.1150 c3        1 BND      0.125700
      2 CX1         1.2220    1.3460    2.4350 c         1 BND      0.899600
      3 O1A        -0.0080    1.3610    2.7160 o         1 BND     -0.786300
      4 O1B         2.0620    2.2310    2.7080 o         1 BND     -0.786300
      5 CX2         1.7710    0.0170    1.7960 c3        1 BND      0.200600
      6 OX2         1.3510   -0.3070    0.5010 os        1 BND     -0.397600
      7 CX3         3.2990   -0.0850    1.8310 c3        1 BND     -0.117400
      8 CX4         3.7910   -0.1520    3.2700 c3        1 BND      0.134100
      9 OX4         5.1820   -0.3890    3.3810 oh        1 BND     -0.638800
     10 CX5         3.0560   -1.3050    4.0150 c3        1 BND      0.060500
     11 NX5         3.4970   -1.4370    5.4400 n4        1 BND     -0.672800
     12 C10         4.9550   -1.8590    5.5530 c         1 BND      0.585100
     13 O10         5.2150   -2.9740    5.1300 o         1 BND     -0.426100
     14 C11         5.8700   -0.8610    6.1730 c3        1 BND     -0.185100
     15 CX6         1.5320   -1.0360    3.9070 c3        1 BND      0.097100
     16 OX6         1.2100   -1.1140    2.5340 os        1 BND     -0.454600
     17 CX7         0.6520   -2.0630    4.6410 c3        1 BND      0.100100
     18 OX7         1.2540   -3.3390    4.6890 oh        1 BND     -0.616800
     19 CX8        -0.7370   -2.1040    3.9690 c3        1 BND      0.123100
     20 OX8        -1.3470   -0.8340    3.9880 oh        1 BND     -0.656800
     21 CX9        -1.6670   -3.0400    4.7690 c3        1 BND      0.105800
     22 NX6        -3.0870   -2.8740    4.3440 n4        1 BND     -0.668800
     23 C12        -4.0750   -3.6740    5.1660 c         1 BND      0.574700
     24 O12        -3.5940   -4.3570    6.0610 o         1 BND     -0.436100
     25 C1G        -5.4810   -3.5520    4.7840 ca        1 BND     -0.210600
     26 CD1        -6.3680   -4.4820    5.3580 ca        1 BND     -0.064000
     27 CE1        -7.7260   -4.4280    5.0510 ca        1 BND     -0.125500
     28 CD2        -5.9720   -2.5660    3.9120 ca        1 BND     -0.064000
     29 CE2        -7.3300   -2.5210    3.6160 ca        1 BND     -0.125500
     30 C1Z        -8.2090   -3.4510    4.1810 ca        1 BND     -0.048000
     31 HY11        0.1570    1.3710    0.1120 h1        1 BND      0.046700
     32 HY12       -0.7050   -0.0780    0.8160 h1        1 BND      0.046700
     33 HY13       -0.0640   -0.1480   -0.9150 h1        1 BND      0.046700
     34 HX31        3.7100    0.8440    1.3520 hc        1 BND      0.092200
     35 HX32        3.6380   -0.9810    1.2520 hc        1 BND      0.092200
     36 HX4         3.5870    0.8410    3.7760 h1        1 BND      0.128700
     37 HA          5.5350   -0.6110    2.5080 ho        1 BND      0.442000
     38 HX5         3.3030   -2.2850    3.5090 hx        1 BND      0.119700
     39 HB          3.3610   -0.5410    5.9150 hn        1 BND      0.455800
     40 H111        6.8520   -1.3600    6.3820 hc        1 BND      0.115700
     41 H112        6.0430   -0.0190    5.4470 hc        1 BND      0.115700
     42 H113        5.4570   -0.4490    7.1270 hc        1 BND      0.115700
     43 HX6         1.2920   -0.0080    4.3160 h1        1 BND      0.110700
     44 HX7         0.5400   -1.7600    5.7210 h1        1 BND      0.081700
     45 HC          1.3690   -3.6460    3.7780 ho        1 BND      0.433000
     46 HX8        -0.6220   -2.4780    2.9120 h1        1 BND      0.080700
     47 HD         -0.8530   -0.2310    3.3820 ho        1 BND      0.515000
     48 HX91       -1.6100   -2.7970    5.8690 hx        1 BND      0.114200
     49 HX92       -1.3540   -4.1100    4.6200 hx        1 BND      0.114200
     50 HE         -3.1830   -3.1410    3.3590 hn        1 BND      0.471800
     51 HD1        -5.9840   -5.2500    6.0520 ha        1 BND      0.151500
     52 HE1        -8.4160   -5.1600    5.5020 ha        1 BND      0.169000
     53 HD2        -5.3180   -1.8060    3.4580 ha        1 BND      0.151500
     54 HE2        -7.7160   -1.7440    2.9350 ha        1 BND      0.169000
     55 H1Z        -9.2850   -3.4070    3.9400 ha        1 BND      0.168000
     56 HX52        2.9060   -2.1570    5.8780 hn        1 BND      0.455800
     57 HX62       -3.3160   -1.8670    4.4170 hn        1 BND      0.471800
@<TRIPOS>BOND
     1    1    6 1   
     2    1   31 1   
     3    1   32 1   
     4    1   33 1   
     5    2    3 1   
     6    2    4 1   
     7    2    5 1   
     8    5    6 1   
     9    5    7 1   
    10    5   16 1   
    11    7    8 1   
    12    7   34 1   
    13    7   35 1   
    14    8    9 1   
    15    8   10 1   
    16    8   36 1   
    17    9   37 1   
    18   10   11 1   
    19   10   15 1   
    20   10   38 1   
    21   11   12 1   
    22   11   39 1   
    23   11   56 1   
    24   12   13 2   
    25   12   14 1   
    26   14   40 1   
    27   14   41 1   
    28   14   42 1   
    29   15   16 1   
    30   15   17 1   
    31   15   43 1   
    32   17   18 1   
    33   17   19 1   
    34   17   44 1   
    35   18   45 1   
    36   19   20 1   
    37   19   21 1   
    38   19   46 1   
    39   20   47 1   
    40   21   22 1   
    41   21   48 1   
    42   21   49 1   
    43   22   23 1   
    44   22   50 1   
    45   22   57 1   
    46   23   24 2   
    47   23   25 1   
    48   25   26 ar  
    49   25   28 ar  
    50   26   27 ar  
    51   26   51 1   
    52   27   30 ar  
    53   27   52 1   
    54   28   29 ar  
    55   28   53 1   
    56   29   30 ar  
    57   29   54 1   
    58   30   55 1   
@<TRIPOS>SUBSTRUCTURE
     1 BND         1 TEMP              0 ****  ****    0 ROOT
