@<TRIPOS>MOLECULE
BND
   55    56     1     0     0
SMALL
bcc


@<TRIPOS>ATOM
      1 CY1         2.8660    2.6400   -0.3970 c3        1 BND      0.133700
      2 CX1         2.2330   -0.1580   -0.2870 c         1 BND      0.897600
      3 O1A         2.1230    0.3060    0.8830 o         1 BND     -0.824300
      4 O1B         2.6270   -1.3230   -0.5520 o         1 BND     -0.824300
      5 CX2         1.8390    0.7710   -1.4790 c3        1 BND      0.234600
      6 OX2         2.6310    1.9350   -1.6090 os        1 BND     -0.420600
      7 CX3         1.8850    0.0610   -2.8350 c3        1 BND     -0.111400
      8 CX4         0.7870   -0.9910   -2.8880 c3        1 BND      0.113100
      9 OX4         0.7290   -1.6030   -4.1730 oh        1 BND     -0.617800
     10 CX5        -0.6020   -0.3500   -2.6240 c3        1 BND      0.068700
     11 NX5        -1.6500   -1.3480   -2.6040 n         1 BND     -0.543900
     12 C10        -2.7350   -1.3020   -3.4590 c         1 BND      0.655100
     13 O10        -3.0310   -0.2790   -4.1090 o         1 BND     -0.611100
     14 C11        -3.6050   -2.5380   -3.5220 c3        1 BND     -0.177100
     15 CX6        -0.5250    0.4190   -1.2710 c3        1 BND      0.128100
     16 OX6         0.5390    1.3590   -1.2880 os        1 BND     -0.458600
     17 CX7        -1.8020    1.2390   -1.0130 c3        1 BND      0.117100
     18 OX7        -1.6990    2.5930   -1.4180 oh        1 BND     -0.609800
     19 CX8        -2.2350    1.1780    0.4660 c3        1 BND      0.097100
     20 OX8        -3.4360    1.9180    0.6240 oh        1 BND     -0.603800
     21 CX9        -1.1650    1.7320    1.4390 c3        1 BND      0.057000
     22 NX6        -0.4920    0.7150    2.1970 n         1 BND     -0.547900
     23 C12        -0.5770    0.6510    3.5690 c         1 BND      0.666700
     24 O12        -1.3530    1.3930    4.2170 o         1 BND     -0.651100
     25 C1G         0.2380   -0.3840    4.2770 ca        1 BND     -0.138600
     26 CD1        -0.2590   -0.8640    5.4980 ca        1 BND     -0.089000
     27 CE1         0.4490   -1.8240    6.2140 ca        1 BND     -0.154000
     28 CD2         1.4560   -0.8630    3.7850 ca        1 BND     -0.089000
     29 CE2         2.1610   -1.8260    4.5120 ca        1 BND     -0.154000
     30 C1Z         1.6620   -2.3080    5.7200 ca        1 BND     -0.125000
     31 HY11        3.2880    3.6200   -0.7320 h1        1 BND      0.034367
     32 HY12        1.9160    2.7830    0.1720 h1        1 BND      0.034367
     33 HY13        3.5980    2.0780    0.2340 h1        1 BND      0.034367
     34 HX31        1.7560    0.8050   -3.6600 hc        1 BND      0.063700
     35 HX32        2.8840   -0.4330   -2.9380 hc        1 BND      0.063700
     36 HX4         1.0070   -1.7830   -2.1110 h1        1 BND      0.081700
     37 HA          1.6320   -1.8690   -4.3850 ho        1 BND      0.401000
     38 HX5        -0.8210    0.3970   -3.4430 h1        1 BND      0.105700
     39 HB         -1.3850   -2.2360   -2.2440 hn        1 BND      0.302500
     40 H111       -4.4700   -2.3340   -4.1980 hc        1 BND      0.058700
     41 H112       -3.0220   -3.4000   -3.9260 hc        1 BND      0.058700
     42 H113       -3.9910   -2.8010   -2.5080 hc        1 BND      0.058700
     43 HX6        -0.3530   -0.3160   -0.4340 h1        1 BND      0.062700
     44 HX7        -2.6540    0.8460   -1.6420 h1        1 BND      0.092700
     45 HC         -0.8280    2.9280   -1.1640 ho        1 BND      0.423000
     46 HX8        -2.5240    0.1220    0.7260 h1        1 BND      0.080700
     47 HD         -3.2910    2.7800    0.2100 ho        1 BND      0.407000
     48 HX91       -0.3940    2.2980    0.8380 h1        1 BND      0.066200
     49 HX92       -1.6780    2.4500    2.1420 h1        1 BND      0.066200
     50 HE          0.2690    0.2530    1.7330 hn        1 BND      0.359500
     51 HD1        -1.2110   -0.4630    5.8810 ha        1 BND      0.177500
     52 HE1         0.0540   -2.1990    7.1680 ha        1 BND      0.127000
     53 HD2         1.8840   -0.4980    2.8280 ha        1 BND      0.177500
     54 HE2         3.1160   -2.2040    4.1170 ha        1 BND      0.127000
     55 H1Z         2.2210   -3.0680    6.2840 ha        1 BND      0.116000
@<TRIPOS>BOND
     1    1    6 1   
     2    1   31 1   
     3    1   32 1   
     4    1   33 1   
     5    2    3 1   
     6    2    4 1   
     7    2    5 1   
     8    5    6 1   
     9    5    7 1   
    10    5   16 1   
    11    7    8 1   
    12    7   34 1   
    13    7   35 1   
    14    8    9 1   
    15    8   10 1   
    16    8   36 1   
    17    9   37 1   
    18   10   11 1   
    19   10   15 1   
    20   10   38 1   
    21   11   12 1   
    22   11   39 1   
    23   12   13 2   
    24   12   14 1   
    25   14   40 1   
    26   14   41 1   
    27   14   42 1   
    28   15   16 1   
    29   15   17 1   
    30   15   43 1   
    31   17   18 1   
    32   17   19 1   
    33   17   44 1   
    34   18   45 1   
    35   19   20 1   
    36   19   21 1   
    37   19   46 1   
    38   20   47 1   
    39   21   22 1   
    40   21   48 1   
    41   21   49 1   
    42   22   23 1   
    43   22   50 1   
    44   23   24 2   
    45   23   25 1   
    46   25   26 ar  
    47   25   28 ar  
    48   26   27 ar  
    49   26   51 1   
    50   27   30 ar  
    51   27   52 1   
    52   28   29 ar  
    53   28   53 1   
    54   29   30 ar  
    55   29   54 1   
    56   30   55 1   
@<TRIPOS>SUBSTRUCTURE
     1 BND         1 TEMP              0 ****  ****    0 ROOT
