@<TRIPOS>MOLECULE
BND
   57    58     1     0     0
SMALL
bcc


@<TRIPOS>ATOM
      1 CY1         0.0950   -0.9040   -0.1590 c3        1 BND      0.125700
      2 CX1         0.6040    0.8480    1.9310 c         1 BND      0.901600
      3 O1A        -0.4900    0.3800    2.3750 o         1 BND     -0.802300
      4 O1B         0.9350    2.0500    1.9090 o         1 BND     -0.802300
      5 CX2         1.6700   -0.2180    1.4920 c3        1 BND      0.211600
      6 OX2         1.4550   -0.8630    0.2670 os        1 BND     -0.394600
      7 CX3         3.1200    0.2820    1.4960 c3        1 BND     -0.123400
      8 CX4         3.6600    0.4760    2.9050 c3        1 BND      0.137100
      9 OX4         5.0460    0.7300    2.9580 oh        1 BND     -0.612800
     10 CX5         3.3610   -0.7910    3.7840 c3        1 BND      0.052500
     11 NX5         3.9420   -0.6320    5.1570 ny        1 BND     -0.671800
     12 C10         4.5740   -1.9100    5.6690 c         1 BND      0.555100
     13 O10         5.7000   -2.1430    5.2560 o         1 BND     -0.406100
     14 C11         3.7590   -2.7320    6.6040 c3        1 BND     -0.195100
     15 CX6         1.8250   -0.9410    3.7360 c3        1 BND      0.094100
     16 OX6         1.5590   -1.3490    2.4050 os        1 BND     -0.446600
     17 CX7         1.0880   -1.9520    4.6270 c3        1 BND      0.132100
     18 OX7         1.4620   -3.2850    4.3650 oh        1 BND     -0.614800
     19 CX8        -0.4160   -1.7060    4.3430 c3        1 BND      0.084100
     20 OX8        -0.8230   -0.5150    4.9910 oh        1 BND     -0.651800
     21 CX9        -1.2830   -2.8370    4.9170 c3        1 BND      0.108800
     22 NX6        -2.7240   -2.5250    4.6890 ny        1 BND     -0.670800
     23 C12        -3.6810   -3.5060    5.3290 c         1 BND      0.573700
     24 O12        -3.1770   -4.3430    6.0670 o         1 BND     -0.437100
     25 C1G        -5.0930   -3.3520    4.9800 ca        1 BND     -0.210600
     26 CD1        -5.9500   -4.4030    5.3550 ca        1 BND     -0.065000
     27 CE1        -7.3100   -4.3290    5.0610 ca        1 BND     -0.125500
     28 CD2        -5.6160   -2.2260    4.3210 ca        1 BND     -0.065000
     29 CE2        -6.9760   -2.1630    4.0360 ca        1 BND     -0.125500
     30 C1Z        -7.8250   -3.2120    4.4020 ca        1 BND     -0.049000
     31 HY11        0.1350   -1.4870   -1.1120 h1        1 BND      0.046033
     32 HY12       -0.5330   -1.4170    0.6090 h1        1 BND      0.046033
     33 HY13       -0.2870    0.1320   -0.3320 h1        1 BND      0.046033
     34 HX31        3.7630   -0.4390    0.9260 hc        1 BND      0.098200
     35 HX32        3.1310    1.2760    0.9700 hc        1 BND      0.098200
     36 HX4         3.1680    1.3820    3.3710 h1        1 BND      0.112700
     37 HA          5.4650    0.3760    2.1610 ho        1 BND      0.438000
     38 HX5         3.8500   -1.6900    3.3070 hx        1 BND      0.123700
     39 HB          4.6820    0.0900    5.0870 hn        1 BND      0.464300
     40 H111        3.2040   -2.1090    7.3480 hc        1 BND      0.114367
     41 H112        4.4430   -3.4320    7.1520 hc        1 BND      0.114367
     42 H113        3.0240   -3.3430    6.0100 hc        1 BND      0.114367
     43 HX6         1.3730    0.0740    3.9640 h1        1 BND      0.097700
     44 HX7         1.3090   -1.7850    5.7160 h1        1 BND      0.065700
     45 HC          1.4300   -3.4180    3.4050 ho        1 BND      0.446000
     46 HX8        -0.5560   -1.6170    3.2190 h1        1 BND      0.137700
     47 HD         -0.7870    0.2110    4.3320 ho        1 BND      0.489000
     48 HX91       -1.1180   -2.9380    6.0270 hx        1 BND      0.114700
     49 HX92       -1.0270   -3.8130    4.4200 hx        1 BND      0.114700
     50 HE         -2.9000   -1.5810    5.0730 hn        1 BND      0.470800
     51 HD1        -5.5410   -5.2820    5.8810 ha        1 BND      0.151500
     52 HE1        -7.9780   -5.1560    5.3550 ha        1 BND      0.168000
     53 HD2        -4.9850   -1.3720    4.0290 ha        1 BND      0.151500
     54 HE2        -7.3860   -1.2780    3.5210 ha        1 BND      0.168000
     55 H1Z        -8.9020   -3.1540    4.1710 ha        1 BND      0.167000
     56 HX52        3.2190   -0.3090    5.8030 hn        1 BND      0.464300
     57 HX62       -2.9090   -2.4880    3.6800 hn        1 BND      0.470800
@<TRIPOS>BOND
     1    1    6 1   
     2    1   31 1   
     3    1   32 1   
     4    1   33 1   
     5    2    3 1   
     6    2    4 1   
     7    2    5 1   
     8    5    6 1   
     9    5    7 1   
    10    5   16 1   
    11    7    8 1   
    12    7   34 1   
    13    7   35 1   
    14    8    9 1   
    15    8   10 1   
    16    8   36 1   
    17    9   37 1   
    18   10   11 1   
    19   10   15 1   
    20   10   38 1   
    21   11   12 1   
    22   11   39 1   
    23   11   56 1   
    24   12   13 2   
    25   12   14 1   
    26   14   40 1   
    27   14   41 1   
    28   14   42 1   
    29   15   16 1   
    30   15   17 1   
    31   15   43 1   
    32   17   18 1   
    33   17   19 1   
    34   17   44 1   
    35   18   45 1   
    36   19   20 1   
    37   19   21 1   
    38   19   46 1   
    39   20   47 1   
    40   21   22 1   
    41   21   48 1   
    42   21   49 1   
    43   22   23 1   
    44   22   50 1   
    45   22   57 1   
    46   23   24 2   
    47   23   25 1   
    48   25   26 ar  
    49   25   28 ar  
    50   26   27 ar  
    51   26   51 1   
    52   27   30 ar  
    53   27   52 1   
    54   28   29 ar  
    55   28   53 1   
    56   29   30 ar  
    57   29   54 1   
    58   30   55 1   
@<TRIPOS>SUBSTRUCTURE
     1 BND         1 TEMP              0 ****  ****    0 ROOT
