@<TRIPOS>MOLECULE
BND
   57    58     1     0     0
SMALL
bcc


@<TRIPOS>ATOM
      1 CY1         0.0950    0.2420    0.1060 c3        1 BND      0.125700
      2 CX1         1.2120    1.3450    2.4240 c         1 BND      0.899600
      3 O1A        -0.0190    1.3560    2.7030 o         1 BND     -0.785800
      4 O1B         2.0480    2.2340    2.6960 o         1 BND     -0.785800
      5 CX2         1.7670    0.0160    1.7900 c3        1 BND      0.200600
      6 OX2         1.3500   -0.3130    0.4950 os        1 BND     -0.397600
      7 CX3         3.2950   -0.0790    1.8270 c3        1 BND     -0.117400
      8 CX4         3.7860   -0.1400    3.2670 c3        1 BND      0.134100
      9 OX4         5.1780   -0.3710    3.3790 oh        1 BND     -0.638800
     10 CX5         3.0550   -1.2930    4.0140 c3        1 BND      0.060500
     11 NX5         3.4950   -1.4200    5.4400 n4        1 BND     -0.672800
     12 C10         4.9550   -1.8350    5.5560 c         1 BND      0.585100
     13 O10         5.2190   -2.9500    5.1360 o         1 BND     -0.426100
     14 C11         5.8640   -0.8320    6.1750 c3        1 BND     -0.185100
     15 CX6         1.5300   -1.0310    3.9040 c3        1 BND      0.097100
     16 OX6         1.2100   -1.1150    2.5300 os        1 BND     -0.454600
     17 CX7         0.6530   -2.0600    4.6390 c3        1 BND      0.100100
     18 OX7         1.2610   -3.3330    4.6920 oh        1 BND     -0.616800
     19 CX8        -0.7340   -2.1090    3.9660 c3        1 BND      0.123100
     20 OX8        -1.3500   -0.8410    3.9800 oh        1 BND     -0.656800
     21 CX9        -1.6620   -3.0460    4.7680 c3        1 BND      0.105800
     22 NX6        -3.0820   -2.8870    4.3400 n4        1 BND     -0.668800
     23 C12        -4.0680   -3.6870    5.1650 c         1 BND      0.574700
     24 O12        -3.5850   -4.3660    6.0620 o         1 BND     -0.436100
     25 C1G        -5.4740   -3.5710    4.7810 ca        1 BND     -0.210600
     26 CD1        -6.3590   -4.5000    5.3610 ca        1 BND     -0.064000
     27 CE1        -7.7170   -4.4520    5.0540 ca        1 BND     -0.125500
     28 CD2        -5.9670   -2.5920    3.9030 ca        1 BND     -0.064000
     29 CE2        -7.3260   -2.5530    3.6060 ca        1 BND     -0.125500
     30 C1Z        -8.2020   -3.4820    4.1770 ca        1 BND     -0.048000
     31 HY11       -0.7080   -0.0930    0.8070 h1        1 BND      0.046700
     32 HY12        0.1490    1.3580    0.1000 h1        1 BND      0.046700
     33 HY13       -0.0630   -0.1640   -0.9240 h1        1 BND      0.046700
     34 HX31        3.6390   -0.9750    1.2510 hc        1 BND      0.092200
     35 HX32        3.7030    0.8510    1.3460 hc        1 BND      0.092200
     36 HX4         3.5770    0.8540    3.7700 h1        1 BND      0.128700
     37 HA          5.5330   -0.5940    2.5080 ho        1 BND      0.442000
     38 HX5         3.3070   -2.2750    3.5110 hx        1 BND      0.119700
     39 HB          3.3550   -0.5230    5.9120 hn        1 BND      0.455800
     40 H111        6.0350    0.0080    5.4460 hc        1 BND      0.115700
     41 H112        5.4490   -0.4200    7.1270 hc        1 BND      0.115700
     42 H113        6.8480   -1.3260    6.3860 hc        1 BND      0.115700
     43 HX6         1.2860   -0.0040    4.3100 h1        1 BND      0.110700
     44 HX7         0.5390   -1.7540    5.7190 h1        1 BND      0.081700
     45 HC          1.3780   -3.6420    3.7820 ho        1 BND      0.433000
     46 HX8        -0.6170   -2.4850    2.9100 h1        1 BND      0.080700
     47 HD         -0.8570   -0.2380    3.3730 ho        1 BND      0.515000
     48 HX91       -1.3440   -4.1150    4.6220 hx        1 BND      0.114200
     49 HX92       -1.6070   -2.7990    5.8670 hx        1 BND      0.114200
     50 HE         -3.3150   -1.8810    4.4100 hn        1 BND      0.471300
     51 HD1        -5.9730   -5.2620    6.0600 ha        1 BND      0.151500
     52 HE1        -8.4060   -5.1830    5.5090 ha        1 BND      0.169000
     53 HD2        -5.3150   -1.8340    3.4440 ha        1 BND      0.151500
     54 HE2        -7.7130   -1.7820    2.9200 ha        1 BND      0.169000
     55 H1Z        -9.2780   -3.4420    3.9360 ha        1 BND      0.168000
     56 HX52        2.9060   -2.1410    5.8790 hn        1 BND      0.455800
     57 HX62       -3.1760   -3.1580    3.3560 hn        1 BND      0.471300
@<TRIPOS>BOND
     1    1    6 1   
     2    1   31 1   
     3    1   32 1   
     4    1   33 1   
     5    2    3 1   
     6    2    4 1   
     7    2    5 1   
     8    5    6 1   
     9    5    7 1   
    10    5   16 1   
    11    7    8 1   
    12    7   34 1   
    13    7   35 1   
    14    8    9 1   
    15    8   10 1   
    16    8   36 1   
    17    9   37 1   
    18   10   11 1   
    19   10   15 1   
    20   10   38 1   
    21   11   12 1   
    22   11   39 1   
    23   11   56 1   
    24   12   13 2   
    25   12   14 1   
    26   14   40 1   
    27   14   41 1   
    28   14   42 1   
    29   15   16 1   
    30   15   17 1   
    31   15   43 1   
    32   17   18 1   
    33   17   19 1   
    34   17   44 1   
    35   18   45 1   
    36   19   20 1   
    37   19   21 1   
    38   19   46 1   
    39   20   47 1   
    40   21   22 1   
    41   21   48 1   
    42   21   49 1   
    43   22   23 1   
    44   22   50 1   
    45   22   57 1   
    46   23   24 2   
    47   23   25 1   
    48   25   26 ar  
    49   25   28 ar  
    50   26   27 ar  
    51   26   51 1   
    52   27   30 ar  
    53   27   52 1   
    54   28   29 ar  
    55   28   53 1   
    56   29   30 ar  
    57   29   54 1   
    58   30   55 1   
@<TRIPOS>SUBSTRUCTURE
     1 BND         1 TEMP              0 ****  ****    0 ROOT
