@<TRIPOS>MOLECULE
BND
   55    53     1     0     0
SMALL
bcc


@<TRIPOS>ATOM
      1 CY1         1.0590   -2.9860   -3.9700 c3        1 BND     -0.063000
      2 CX1         2.6870   -1.8060   -2.3090 c1        1 BND      0.316000
      3 O1A         3.5110   -2.7430   -2.1680 o         1 BND     -0.534000
      4 O1B         3.0540   -0.7210   -2.8110 os        1 BND     -0.563000
      5 CX2         1.2520   -1.9870   -1.8680 c3        1 BND      0.122000
      6 OX2         0.6020   -1.9890   -3.0700 os        1 BND     -0.273000
      7 CX3         1.0560   -3.3140   -1.1160 c3        1 BND     -0.195000
      8 CX4         1.6590   -3.3050    0.2370 c3        1 BND      0.003000
      9 OX4         1.2870   -4.5380    0.9230 oh        1 BND     -0.342000
     10 CX5         1.2140   -2.1530    1.0550 c3        1 BND     -0.009000
     11 NX5         2.0050   -2.1310    2.3180 n         1 BND     -0.345000
     12 C10         1.5550   -2.8980    3.4680 c2        1 BND      0.302000
     13 O10         0.5340   -3.5560    3.3980 o         1 BND     -0.369000
     14 C11         2.3620   -2.8580    4.7920 c3        1 BND     -0.246000
     15 CX6         1.3820   -0.8390    0.3570 c3        1 BND     -0.001000
     16 OX6         0.7860   -0.8230   -0.9700 os        1 BND     -0.316000
     17 CX7         0.7310    0.2570    1.2030 c3        1 BND      0.009000
     18 OX7        -0.6170   -0.0130    1.3510 oh        1 BND     -0.356000
     19 CX8         0.9060    1.6090    0.5110 c3        1 BND     -0.006000
     20 OX8         2.2170    2.0370    0.6560 oh        1 BND     -0.352000
     21 CX9        -0.0400    2.6360    1.1450 c3        1 BND     -0.043000
     22 NX6        -0.8620    3.2200    0.1240 n         1 BND     -0.342000
     23 C12        -2.0820    3.9070    0.4820 c2        1 BND      0.330000
     24 O12        -2.2550    4.2760    1.6230 o         1 BND     -0.376000
     25 C1G        -3.2130    4.0530   -0.5520 c2        1 BND     -0.117000
     26 CD1        -3.9340    2.9310   -0.9540 c2        1 BND     -0.099000
     27 CE1        -5.0170    3.0720   -1.7990 c1        1 BND     -0.140000
     28 CD2        -3.5850    5.3170   -1.0020 c1        1 BND     -0.084000
     29 CE2        -4.6720    5.4580   -1.8500 c1        1 BND     -0.135000
     30 C1Z        -5.3900    4.3390   -2.2500 c1        1 BND     -0.135000
     31 HY11        1.6520   -3.6190   -3.4890 h1        1 BND      0.074000
     32 HY12        1.5570   -2.5620   -4.7030 h1        1 BND      0.074000
     33 HY13        0.2840   -3.4760   -4.3380 h1        1 BND      0.074000
     34 HX31        0.0990   -3.4870   -1.0310 hc        1 BND      0.105000
     35 HX32        1.4620   -4.0350   -1.6370 hc        1 BND      0.105000
     36 HX4         2.6290   -3.2730    0.1500 h1        1 BND      0.104000
     37 HA          1.8570   -5.1890    0.6960 ho        1 BND      0.200000
     38 HX5         0.2760   -2.2710    1.2760 h1        1 BND      0.145000
     39 HB          2.8130   -1.7150    2.3400 hn        1 BND      0.210000
     40 H111        2.4320   -1.9380    5.1010 hc        1 BND      0.096667
     41 H112        1.8970   -3.4030    5.4780 hc        1 BND      0.096667
     42 H113        3.2730   -3.2260    4.6370 hc        1 BND      0.096667
     43 HX6         2.3400   -0.6470    0.2740 h1        1 BND      0.130000
     44 HX7         1.1570    0.2850    2.0870 h1        1 BND      0.117000
     45 HC         -0.8040   -0.1210    2.2090 ho        1 BND      0.224000
     46 HX8         0.6970    1.5170   -0.4380 h1        1 BND      0.091000
     47 HD          2.3050    2.8630    0.2980 ho        1 BND      0.268000
     48 HX91        0.4810    3.3340    1.5800 h1        1 BND      0.109000
     49 HX92       -0.6090    2.1900    1.8090 h1        1 BND      0.109000
     50 HE         -0.6440    3.1090   -0.7550 hn        1 BND      0.232000
     51 HD1        -3.6720    2.0390   -0.6360 ha        1 BND      0.163000
     52 HE1        -5.4920    2.2800   -2.1210 ha        1 BND      0.135000
     53 HD2        -3.0800    6.1060   -0.7190 ha        1 BND      0.149000
     54 HE2        -4.9350    6.3480   -2.1670 ha        1 BND      0.125000
     55 H1Z        -6.1640    4.4390   -2.8540 ha        1 BND      0.125000
@<TRIPOS>BOND
     1    1    6 1   
     2    1   31 1   
     3    1   32 1   
     4    1   33 1   
     5    2    3 1   
     6    2    5 1   
     7    5    6 1   
     8    5    7 1   
     9    5   16 1   
    10    7    8 1   
    11    7   34 1   
    12    7   35 1   
    13    8    9 1   
    14    8   10 1   
    15    8   36 1   
    16    9   37 1   
    17   10   11 1   
    18   10   15 1   
    19   10   38 1   
    20   11   12 1   
    21   11   39 1   
    22   12   13 1   
    23   12   14 1   
    24   14   40 1   
    25   14   41 1   
    26   14   42 1   
    27   15   16 1   
    28   15   17 1   
    29   15   43 1   
    30   17   18 1   
    31   17   19 1   
    32   17   44 1   
    33   18   45 1   
    34   19   20 1   
    35   19   21 1   
    36   19   46 1   
    37   20   47 1   
    38   21   22 1   
    39   21   48 1   
    40   21   49 1   
    41   22   23 1   
    42   22   50 1   
    43   23   24 1   
    44   23   25 1   
    45   25   26 1   
    46   25   28 1   
    47   26   27 1   
    48   26   51 1   
    49   27   52 1   
    50   28   53 1   
    51   29   30 1   
    52   29   54 1   
    53   30   55 1   
@<TRIPOS>SUBSTRUCTURE
     1 BND         1 TEMP              0 ****  ****    0 ROOT
