@<TRIPOS>MOLECULE
BNE
   69    72     1     0     0
SMALL
bcc


@<TRIPOS>ATOM
      1 C1          0.1240    0.1140   -0.4490 c3        1 BNE     -0.063700
      2 C2         -0.7950    0.7690   -1.4400 ca        1 BNE     -0.059300
      3 C3          1.2570    1.1370   -0.1520 c         1 BNE      0.729500
      4 C4         -0.5230   -0.1190    0.9330 c3        1 BNE     -0.093400
      5 C5          0.7740   -1.1760   -0.9440 c3        1 BNE     -0.063400
      6 C6         -0.6110    0.5650   -2.8120 ca        1 BNE     -0.149000
      7 C7         -1.7840    1.6710   -1.0200 ca        1 BNE     -0.121000
      8 N8          1.1920    1.5580    1.1530 n         1 BNE     -0.448800
      9 O9          2.0940    1.5510   -0.9900 o         1 BNE     -0.773500
     10 C10        -0.6310   -0.2070    4.0110 c3        1 BNE     -0.098100
     11 C11        -0.2210   -2.2540   -1.2860 c3        1 BNE     -0.102100
     12 C12        -1.3540    1.3170   -3.7270 ca        1 BNE      0.068100
     13 C13        -2.5700    2.3560   -1.9460 ca        1 BNE     -0.109000
     14 C14         0.1130    0.9100    1.9030 c3        1 BNE      0.093700
     15 C15         2.1120    2.4510    1.7820 c3        1 BNE      0.085300
     16 C16         0.5610    0.2480    3.2090 c3        1 BNE     -0.093400
     17 O17        -1.1960    1.1410   -5.1070 os        1 BNE     -0.220200
     18 C18        -2.3540    2.2050   -3.3140 ca        1 BNE     -0.109000
     19 C19         0.0630    1.3660   -5.6310 ca        1 BNE      0.178100
     20 C20         0.1670    1.2010   -7.0340 ca        1 BNE      0.001000
     21 C21         1.1830    1.7350   -4.8740 ca        1 BNE     -0.232000
     22 C22         1.4060    1.4130   -7.6440 ca        1 BNE     -0.051000
     23 C23        -0.9640    0.8320   -7.8080 cg        1 BNE      0.215800
     24 C24         2.4230    1.9000   -5.4980 ca        1 BNE     -0.092300
     25 C25         2.5250    1.7570   -6.8860 ca        1 BNE     -0.133000
     26 N26        -1.8930    0.5300   -8.4380 n1        1 BNE     -0.297800
     27 C27         3.7060    2.1870   -4.7360 c3        1 BNE      0.313800
     28 C28         4.3520    3.4490   -5.1900 cc        1 BNE     -0.350900
     29 C29         4.6670    1.0010   -4.9490 c3        1 BNE     -0.120100
     30 N30         3.4540    2.3180   -3.2360 n4        1 BNE     -0.843600
     31 N31         3.7460    4.7210   -5.2540 na        1 BNE     -0.188900
     32 C32         5.6730    3.6260   -5.6760 cd        1 BNE      0.379200
     33 C33         4.7130    5.5890   -5.7690 cc        1 BNE      0.449400
     34 C34         2.4220    5.0830   -4.8670 c3        1 BNE     -0.002400
     35 NZ          5.8790    4.9470   -6.0290 nd        1 BNE     -0.645000
     36 H41        -0.3090   -1.1590    1.2900 hc        1 BNE      0.078200
     37 H42        -1.2500   -0.9330    3.4290 hc        1 BNE      0.046033
     38 H51         1.4640   -1.5510   -0.1400 hc        1 BNE      0.046200
     39 H52         1.4180   -0.9450   -1.8340 hc        1 BNE      0.046200
     40 H61         0.1150   -0.1710   -3.1910 ha        1 BNE      0.151000
     41 H71        -1.9430    1.8600    0.0540 ha        1 BNE      0.146000
     42 H101       -1.2760    0.6600    4.2930 hc        1 BNE      0.046033
     43 H102       -0.2880   -0.7090    4.9480 hc        1 BNE      0.046033
     44 H111       -0.8280   -2.5350   -0.3910 hc        1 BNE      0.049033
     45 H112       -0.9210   -1.9170   -2.0880 hc        1 BNE      0.049033
     46 H113        0.3180   -3.1660   -1.6440 hc        1 BNE      0.049033
     47 H131       -3.3620    3.0370   -1.5930 ha        1 BNE      0.156000
     48 H141       -1.6320   -0.0010    0.9050 hc        1 BNE      0.078200
     49 H142       -0.6460    1.7100    2.1570 h1        1 BNE      0.063700
     50 H151        2.8310    1.8840    2.4340 h1        1 BNE      0.053033
     51 H152        2.6910    3.0060    0.9970 h1        1 BNE      0.053033
     52 H153        1.5470    3.1840    2.4190 h1        1 BNE      0.053033
     53 H161        1.1570    0.9820    3.8160 hc        1 BNE      0.054200
     54 H162        1.2300   -0.6240    2.9870 hc        1 BNE      0.054200
     55 H181       -2.9530    2.7530   -4.0560 ha        1 BNE      0.167000
     56 H211        1.0440    1.8920   -3.7940 ha        1 BNE      0.149000
     57 H221        1.5000    1.3020   -8.7380 ha        1 BNE      0.173000
     58 H251        3.4890    1.9230   -7.3930 ha        1 BNE      0.161000
     59 H291        4.9120    0.9290   -6.0370 hc        1 BNE      0.079033
     60 H292        5.6190    1.1450   -4.3830 hc        1 BNE      0.079033
     61 H293        4.1850    0.0440   -4.6330 hc        1 BNE      0.079033
     62 H301        4.3340    2.5340   -2.7620 hn        1 BNE      0.463467
     63 H302        2.7810    3.0630   -3.0440 hn        1 BNE      0.463467
     64 H321        6.4580    2.8750   -5.7900 h4        1 BNE      0.058100
     65 H331        4.5240    6.6590   -5.9340 h5        1 BNE      0.087100
     66 H341        1.7040    4.2520   -5.1040 h1        1 BNE      0.068700
     67 H342        2.3860    5.3050   -3.7650 h1        1 BNE      0.068700
     68 H343        2.1070    6.0050   -5.4280 h1        1 BNE      0.068700
     69 H303        3.0750    1.4380   -2.8560 hn        1 BNE      0.463467
@<TRIPOS>BOND
     1    1    2 1   
     2    1    3 1   
     3    1    4 1   
     4    1    5 1   
     5    2    6 ar  
     6    2    7 ar  
     7    3    8 1   
     8    3    9 2   
     9    4   14 1   
    10    4   36 1   
    11    4   48 1   
    12    5   11 1   
    13    5   38 1   
    14    5   39 1   
    15    6   12 ar  
    16    6   40 1   
    17    7   13 ar  
    18    7   41 1   
    19    8   14 1   
    20    8   15 1   
    21   10   16 1   
    22   10   37 1   
    23   10   42 1   
    24   10   43 1   
    25   11   44 1   
    26   11   45 1   
    27   11   46 1   
    28   12   17 1   
    29   12   18 ar  
    30   13   18 ar  
    31   13   47 1   
    32   14   16 1   
    33   14   49 1   
    34   15   50 1   
    35   15   51 1   
    36   15   52 1   
    37   16   53 1   
    38   16   54 1   
    39   17   19 1   
    40   18   55 1   
    41   19   20 ar  
    42   19   21 ar  
    43   20   22 ar  
    44   20   23 1   
    45   21   24 ar  
    46   21   56 1   
    47   22   25 ar  
    48   22   57 1   
    49   23   26 3   
    50   24   25 ar  
    51   24   27 1   
    52   25   58 1   
    53   27   28 1   
    54   27   29 1   
    55   27   30 1   
    56   28   31 1   
    57   28   32 2   
    58   29   59 1   
    59   29   60 1   
    60   29   61 1   
    61   30   62 1   
    62   30   63 1   
    63   30   69 1   
    64   31   33 1   
    65   31   34 1   
    66   32   35 1   
    67   32   64 1   
    68   33   35 2   
    69   33   65 1   
    70   34   66 1   
    71   34   67 1   
    72   34   68 1   
@<TRIPOS>SUBSTRUCTURE
     1 BNE         1 TEMP              0 ****  ****    0 ROOT
