@<TRIPOS>MOLECULE
BNE
   69    73     1     0     0
SMALL
bcc


@<TRIPOS>ATOM
      1 C1          0.0000    0.0000    0.0000 c3        1 BNE      0.016000
      2 C2         -0.4950    0.6950   -1.2420 ca        1 BNE     -0.007000
      3 C3          1.5010    0.0000    0.0000 c2        1 BNE      0.256000
      4 C4         -0.5380    0.7280    1.2340 c3        1 BNE     -0.401000
      5 C5         -0.5050   -1.4440    0.0060 c3        1 BNE     -0.234000
      6 C6         -0.2800    0.1270   -2.4820 ca        1 BNE     -0.110000
      7 C7         -1.1610    1.9030   -1.1390 ca        1 BNE     -0.129000
      8 N8          2.2590    0.0000    1.0920 n         1 BNE      0.110000
      9 O9          2.0640   -0.0020   -1.0750 o         1 BNE     -0.475000
     10 C10        -0.7090   -0.2860    2.3700 DU        1 BNE     -0.015000
     11 C11        -2.0240   -1.4540   -0.1840 c3        1 BNE     -0.096000
     12 C12        -0.7420    0.7650   -3.6260 ca        1 BNE      0.053000
     13 C13        -1.6170    2.5430   -2.2770 ca        1 BNE     -0.161000
     14 C14         1.7380    0.1210    2.4490 c3        1 BNE     -0.266000
     15 C15         3.7080   -0.1300    0.9220 c3        1 BNE     -0.122000
     16 C16         0.6420   -0.9230    2.6900 c3        1 BNE      0.175000
     17 O17        -0.5350    0.2060   -4.8470 os        1 BNE     -0.071000
     18 C18        -1.4090    1.9760   -3.5200 ca        1 BNE     -0.150000
     19 C19         0.5790    0.7840   -5.3600 ca        1 BNE      0.172000
     20 C20         1.0140    0.4530   -6.6510 ca        1 BNE      0.045000
     21 C21         1.2970    1.7000   -4.6070 ca        1 BNE     -0.196000
     22 C22         2.1600    1.0610   -7.1710 ca        1 BNE     -0.030000
     23 C23         0.2800   -0.4920   -7.4380 c1        1 BNE     -0.138000
     24 C24         2.4330    2.2880   -5.1310 ca        1 BNE     -0.143000
     25 C25         2.8620    1.9690   -6.4080 ca        1 BNE     -0.100000
     26 N26        -0.3110   -1.2270   -8.0710 n1        1 BNE      0.025000
     27 C27         3.2080    3.2840   -4.3070 c3        1 BNE     -0.063000
     28 C28         3.7020    4.3950   -5.1960 c2        1 BNE     -0.427000
     29 C29         4.4020    2.5850   -3.6520 c3        1 BNE     -0.072000
     30 N30         2.3360    3.8420   -3.2650 nz        1 BNE      0.698000
     31 N31         2.9480    5.1540   -6.0500 na        1 BNE      0.317000
     32 C32         4.9730    4.8290   -5.3090 c2        1 BNE     -0.082000
     33 C33         3.7830    6.0310   -6.6490 c2        1 BNE     -0.195000
     34 C34         1.5030    5.0420   -6.2680 c3        1 BNE     -0.103000
     35 NZ          4.9920    5.8280   -6.2030 n2        1 BNE     -0.074000
     36 H41        -1.1020   -0.0850    1.6740 DU        1 BNE      0.143000
     37 H42        -1.1970    1.5750    1.0840 hc        1 BNE      0.149000
     38 H51         0.2680   -1.9560    0.5660 hc        1 BNE      0.094500
     39 H52        -0.4730   -1.8820   -0.9850 hc        1 BNE      0.094500
     40 H61         0.5540   -0.5640   -2.4720 ha        1 BNE      0.168000
     41 H71        -1.1060    2.8220   -0.5690 ha        1 BNE      0.133000
     42 H101       -0.5430    0.1740    3.3370 ha        1 BNE      0.079000
     43 H102       -1.5570   -0.9310    2.5660 ha        1 BNE      0.079000
     44 H111       -2.2190   -2.4790   -0.4740 hc        1 BNE      0.062333
     45 H112       -2.2250   -0.5010   -0.6590 hc        1 BNE      0.062333
     46 H113       -2.3370   -1.3910    0.8510 hc        1 BNE      0.062333
     47 H131       -2.1230    3.4660   -2.0210 ha        1 BNE      0.119000
     48 H141        2.4520    0.0940    3.2640 h1        1 BNE      0.008000
     49 H142        1.0360   -0.7010    2.5190 h1        1 BNE      0.008000
     50 H151        4.1390    0.0210    1.9040 h1        1 BNE      0.056667
     51 H152        3.8110   -1.2070    0.9840 h1        1 BNE      0.056667
     52 H153        4.3410    0.0390    0.0590 h1        1 BNE      0.056667
     53 H161        0.9660   -0.7990    3.7170 hc        1 BNE      0.045500
     54 H162        0.7050   -1.8140    2.0770 hc        1 BNE      0.045500
     55 H181       -1.9680    2.5540   -4.2460 ha        1 BNE      0.129000
     56 H211        1.3570    2.1480   -3.6220 ha        1 BNE      0.101000
     57 H221        2.5290    0.6420   -8.0990 ha        1 BNE      0.137000
     58 H251        3.7270    2.3880   -6.9080 ha        1 BNE      0.135000
     59 H291        3.6610    1.9560   -3.1750 hc        1 BNE      0.081333
     60 H292        4.8400    3.3220   -2.9910 hc        1 BNE      0.081333
     61 H293        4.9400    2.0300   -4.4110 hc        1 BNE      0.081333
     62 H301        1.4100    4.0530   -3.5790 hn        1 BNE      0.059000
     63 H302        2.7720    4.5180   -2.6690 hn        1 BNE      0.059000
     64 H321        5.9140    4.2980   -5.2310 h4        1 BNE      0.166000
     65 H331        3.4470    6.8830   -7.2270 h5        1 BNE      0.176000
     66 H341        1.0960    5.7350   -6.9930 h1        1 BNE      0.068000
     67 H342        1.0600    5.1530   -5.2850 h1        1 BNE      0.068000
     68 H343        1.3990    3.9660   -6.3480 h1        1 BNE      0.068000
     69 H303        2.6350    3.4940   -2.3750 hn        1 BNE      0.059000
@<TRIPOS>BOND
     1    1    2 1   
     2    1    3 1   
     3    1    4 1   
     4    1    5 1   
     5    2    6 1   
     6    2    7 1   
     7    3    8 1   
     8    3    9 1   
     9    4   10 1   
    10    4   36 1   
    11    4   37 1   
    12    5   11 1   
    13    5   38 1   
    14    5   39 1   
    15    6   12 1   
    16    6   40 1   
    17    7   13 1   
    18    7   41 1   
    19    8   14 1   
    20    8   15 1   
    21   10   16 1   
    22   10   36 1   
    23   10   42 1   
    24   10   43 1   
    25   11   44 1   
    26   11   45 1   
    27   11   46 1   
    28   12   17 1   
    29   12   18 1   
    30   13   18 1   
    31   13   47 1   
    32   14   16 1   
    33   14   48 1   
    34   14   49 1   
    35   15   50 1   
    36   15   51 1   
    37   15   52 1   
    38   16   53 1   
    39   16   54 1   
    40   17   19 1   
    41   18   55 1   
    42   19   20 1   
    43   19   21 1   
    44   20   22 1   
    45   20   23 1   
    46   21   24 1   
    47   21   56 1   
    48   22   25 1   
    49   22   57 1   
    50   23   26 1   
    51   24   25 1   
    52   24   27 1   
    53   25   58 1   
    54   27   28 1   
    55   27   29 1   
    56   27   30 1   
    57   28   31 1   
    58   28   32 1   
    59   29   59 1   
    60   29   60 1   
    61   29   61 1   
    62   30   62 1   
    63   30   63 1   
    64   30   69 1   
    65   31   33 1   
    66   31   34 1   
    67   32   35 1   
    68   32   64 1   
    69   33   35 1   
    70   33   65 1   
    71   34   66 1   
    72   34   67 1   
    73   34   68 1   
@<TRIPOS>SUBSTRUCTURE
     1 BNE         1 TEMP              0 ****  ****    0 ROOT
