@<TRIPOS>MOLECULE
BNE
   68    64     1     0     0
SMALL
bcc


@<TRIPOS>ATOM
      1 C1          0.7430    1.9580    3.4680 c3        1 BNE      0.003000
      2 C2          0.3670    1.6200    2.0000 c2        1 BNE     -0.054000
      3 C3          1.7020    1.2170    3.7210 c2        1 BNE      0.316000
      4 C4          1.3200    3.4770    3.3990 c3        1 BNE     -0.154000
      5 C5         -0.5700    1.7230    4.2500 c3        1 BNE     -0.153000
      6 C6         -0.1170    0.3490    1.7180 c2        1 BNE     -0.107000
      7 C7          0.1870    2.6590    1.0780 c1        1 BNE     -0.123000
      8 N8          1.9500    1.2650    4.9670 n         1 BNE     -0.327000
      9 O9          2.5790    1.0330    2.9090 o         1 BNE     -0.409000
     10 C10         2.7510    3.6830    4.5140 c3        1 BNE     -0.159000
     11 C11        -1.2180    3.0910    4.5960 c3        1 BNE     -0.214000
     12 C12        -0.7830    0.1060    0.5150 c1        1 BNE      0.031000
     13 C13        -0.4800    2.4180   -0.1290 c1        1 BNE     -0.127000
     14 C14         3.0080    1.1520    5.1450 c3        1 BNE     -0.016000
     15 C15         0.9570    1.2620    5.9890 c3        1 BNE     -0.084000
     16 C16         3.7310    2.2540    4.5400 c3        1 BNE     -0.177000
     17 O17        -1.4430   -1.1620    0.3050 o         1 BNE     -0.156000
     18 C18        -0.9640    1.1520   -0.4120 c2        1 BNE     -0.115000
     19 C19        -0.9300   -1.7830   -0.8960 c2        1 BNE      0.115000
     20 C20        -0.0320   -2.8310   -0.8010 c2        1 BNE     -0.043000
     21 C21        -1.4250   -1.4070   -2.1350 c1        1 BNE     -0.195000
     22 C22         0.3740   -3.5030   -1.9470 c1        1 BNE     -0.070000
     23 C23         0.4520   -3.3000    0.5680 c1        1 BNE     -0.078000
     24 C24        -1.0150   -2.0840   -3.2860 c1        1 BNE     -0.047000
     25 C25        -0.1230   -3.1240   -3.1890 c1        1 BNE     -0.157000
     26 N26         0.8250   -3.6620    1.6160 n1        1 BNE     -0.044000
     27 C27        -1.5800   -1.6920   -4.6480 c3        1 BNE      0.138000
     28 C28        -1.5800   -2.9010   -5.5620 c2        1 BNE     -0.114000
     29 C29        -0.7290   -0.6170   -5.2470 c3        1 BNE     -0.208000
     30 N30        -2.9160   -1.2090   -4.4940 n3        1 BNE     -0.345000
     31 N31        -1.3410   -3.3330   -6.8110 n2        1 BNE     -0.135000
     32 C32        -2.0900   -3.9650   -4.8350 c1        1 BNE     -0.170000
     33 C33        -1.6910   -4.6440   -6.8770 c1        1 BNE     -0.112000
     34 C34        -0.8900   -2.5250   -7.9100 c2        1 BNE     -0.079000
     35 NZ         -2.1550   -5.0220   -5.6430 n2        1 BNE     -0.142000
     36 H41         0.6110    4.1050    3.6610 hc        1 BNE      0.094000
     37 H42         1.6000    3.6730    2.4780 hc        1 BNE      0.094000
     38 H51        -0.3750    1.2390    5.0720 hc        1 BNE      0.088500
     39 H52        -1.1860    1.1980    3.7030 hc        1 BNE      0.088500
     40 H61         0.0290   -0.3780    2.3480 ha        1 BNE      0.154000
     41 H71         0.5240    3.5420    1.2750 ha        1 BNE      0.135000
     42 H101        3.2980    4.4490    4.2030 hc        1 BNE      0.086500
     43 H102        2.4310    3.8650    5.4130 hc        1 BNE      0.086500
     44 H111       -1.2230    3.6430    3.8230 hc        1 BNE      0.081333
     45 H112       -0.6930    3.5350    5.3190 hc        1 BNE      0.081333
     46 H113       -2.1560    2.9460    4.9070 hc        1 BNE      0.081333
     47 H131       -0.6090    3.1650   -0.7900 ha        1 BNE      0.139000
     48 H141        3.1740    1.1440    6.0990 h1        1 BNE      0.087000
     49 H142        3.3130    0.3100    4.7560 h1        1 BNE      0.087000
     50 H151        1.3960    1.1500    6.8840 h1        1 BNE      0.088000
     51 H152        0.4640    2.1150    5.9690 h1        1 BNE      0.088000
     52 H153        0.3410    0.5280    5.8370 h1        1 BNE      0.088000
     53 H161        3.9790    2.0080    3.5970 hc        1 BNE      0.093000
     54 H162        4.5700    2.4340    5.0690 hc        1 BNE      0.093000
     55 H181       -1.4320    0.9820   -1.2590 ha        1 BNE      0.154000
     56 H211       -2.0780   -0.6450   -2.2050 ha        1 BNE      0.176000
     57 H221        1.0080   -4.2420   -1.8810 ha        1 BNE      0.148000
     58 H251        0.1570   -3.5860   -3.9740 ha        1 BNE      0.150000
     59 H291       -1.2890    0.1480   -5.4830 hc        1 BNE      0.084667
     60 H292       -0.2750   -0.9700   -6.0730 hc        1 BNE      0.084667
     61 H293       -0.0380   -0.3330   -4.5850 hc        1 BNE      0.084667
     62 H301       -3.0210   -0.4480   -4.9790 hn        1 BNE      0.166000
     63 H302       -3.0780   -1.0320   -3.6090 hn        1 BNE      0.166000
     64 H321       -2.3550   -3.9440   -3.8970 DU        1 BNE      0.188500
     65 H331       -1.6250   -5.2200   -7.6710 DU        1 BNE      0.188500
     66 H341       -1.0500   -1.5900   -7.7100 ha        1 BNE      0.096667
     67 H342       -1.3800   -2.7740   -8.7200 ha        1 BNE      0.096667
     68 H343        0.0950   -2.6730   -8.0530 ha        1 BNE      0.096667
@<TRIPOS>BOND
     1    1    2 1   
     2    1    3 1   
     3    1    4 1   
     4    1    5 1   
     5    2    6 1   
     6    2    7 1   
     7    3    8 1   
     8    3    9 1   
     9    4   10 1   
    10    4   36 1   
    11    4   37 1   
    12    5   11 1   
    13    5   38 1   
    14    5   39 1   
    15    6   12 1   
    16    6   40 1   
    17    7   41 1   
    18    8   14 1   
    19    8   15 1   
    20   10   16 1   
    21   10   42 1   
    22   10   43 1   
    23   11   44 1   
    24   11   45 1   
    25   11   46 1   
    26   12   18 1   
    27   13   18 1   
    28   13   47 1   
    29   14   16 1   
    30   14   48 1   
    31   14   49 1   
    32   15   50 1   
    33   15   51 1   
    34   15   52 1   
    35   16   53 1   
    36   16   54 1   
    37   17   19 1   
    38   18   55 1   
    39   19   20 1   
    40   19   21 1   
    41   20   22 1   
    42   20   23 1   
    43   21   56 1   
    44   22   57 1   
    45   23   26 1   
    46   24   25 1   
    47   24   27 1   
    48   25   58 1   
    49   27   28 1   
    50   27   29 1   
    51   27   30 1   
    52   28   31 1   
    53   28   32 1   
    54   29   59 1   
    55   29   60 1   
    56   29   61 1   
    57   30   62 1   
    58   30   63 1   
    59   31   33 1   
    60   32   35 1   
    61   33   35 1   
    62   34   66 1   
    63   34   67 1   
    64   34   68 1   
@<TRIPOS>SUBSTRUCTURE
     1 BNE         1 TEMP              0 ****  ****    0 ROOT
