@<TRIPOS>MOLECULE
BNE
   68    71     1     0     0
SMALL
bcc


@<TRIPOS>ATOM
      1 C1         -3.6080    0.3250    0.1520 c3        1 BNE     -0.041700
      2 C2         -2.7520    1.0020    1.2050 ca        1 BNE     -0.053300
      3 C3         -2.7900   -0.8850   -0.3550 c         1 BNE      0.695500
      4 C4         -4.9680   -0.0530    0.7290 c3        1 BNE     -0.076400
      5 C5         -3.7890    1.2610   -1.0570 c3        1 BNE     -0.073400
      6 C6         -1.4740    1.4600    0.8470 ca        1 BNE     -0.152000
      7 C7         -3.1910    1.1990    2.5190 ca        1 BNE     -0.136000
      8 N8         -3.0790   -2.1950    0.0590 n         1 BNE     -0.454800
      9 O9         -1.7790   -0.6820   -1.0580 o         1 BNE     -0.645500
     10 C10        -5.9340   -0.7030   -0.2360 c3        1 BNE     -0.079400
     11 C11        -4.5410    2.5260   -0.7360 c3        1 BNE     -0.094100
     12 C12        -0.6730    2.0950    1.7980 ca        1 BNE      0.094100
     13 C13        -2.3810    1.8400    3.4580 ca        1 BNE     -0.118000
     14 C14        -4.4290   -2.7180   -0.0170 c3        1 BNE      0.090000
     15 C15        -2.0420   -3.1790   -0.1520 c3        1 BNE      0.059300
     16 C16        -5.3880   -1.9400   -0.9120 c3        1 BNE     -0.101400
     17 O17         0.5580    2.6730    1.4840 os        1 BNE     -0.243200
     18 C18        -1.1120    2.2940    3.1150 ca        1 BNE     -0.131000
     19 C19         1.3860    1.9720    0.6190 ca        1 BNE      0.142100
     20 C20         2.2710    2.7500   -0.1540 ca        1 BNE     -0.037000
     21 C21         1.4200    0.5720    0.5650 ca        1 BNE     -0.159000
     22 C22         3.1860    2.0910   -0.9880 ca        1 BNE     -0.077000
     23 C23         2.2480    4.1670   -0.0990 cg        1 BNE      0.248800
     24 C24         2.3430   -0.0670   -0.2650 ca        1 BNE     -0.036300
     25 C25         3.2170    0.7020   -1.0470 ca        1 BNE     -0.153000
     26 N26         2.2290    5.3300   -0.0540 n1        1 BNE     -0.364800
     27 C27         2.3580   -1.5860   -0.3940 c3        1 BNE      0.307800
     28 C28         3.7500   -2.0510   -0.7580 cc        1 BNE     -0.262900
     29 C29         1.4210   -1.9290   -1.5740 c3        1 BNE     -0.093100
     30 N30         1.8810   -2.2360    0.8310 n3        1 BNE     -0.904800
     31 N31         4.8850   -1.9280    0.0610 na        1 BNE     -0.199900
     32 C32         4.1880   -2.7280   -1.9180 cd        1 BNE      0.305200
     33 C33         5.9470   -2.5250   -0.6360 cc        1 BNE      0.388400
     34 C34         4.9750   -1.3020    1.3380 c3        1 BNE      0.014600
     35 NZ          5.5470   -3.0130   -1.8290 nd        1 BNE     -0.666000
     36 H41        -4.8190   -0.7300    1.6130 hc        1 BNE      0.054200
     37 H42        -5.4520    0.8890    1.1110 hc        1 BNE      0.054200
     38 H51        -4.3250    0.6940   -1.8630 hc        1 BNE      0.056700
     39 H52        -2.7730    1.5210   -1.4600 hc        1 BNE      0.056700
     40 H61        -1.0890    1.3000   -0.1750 ha        1 BNE      0.175000
     41 H71        -4.1820    0.8540    2.8500 ha        1 BNE      0.136000
     42 H101       -6.8580   -0.9770    0.3420 hc        1 BNE      0.045700
     43 H102       -6.2490    0.0380   -1.0180 hc        1 BNE      0.045700
     44 H111       -5.6230    2.3160   -0.5550 hc        1 BNE      0.038700
     45 H112       -4.1180    3.0190    0.1720 hc        1 BNE      0.038700
     46 H113       -4.4640    3.2380   -1.5940 hc        1 BNE      0.038700
     47 H131       -2.7510    1.9860    4.4840 ha        1 BNE      0.137000
     48 H141       -4.8450   -2.7650    1.0310 h1        1 BNE      0.046200
     49 H142       -4.3840   -3.7800   -0.4020 h1        1 BNE      0.046200
     50 H151       -2.2160   -4.0340    0.5520 h1        1 BNE      0.045700
     51 H152       -2.0330   -3.5650   -1.2070 h1        1 BNE      0.045700
     52 H153       -1.0400   -2.7190    0.0650 h1        1 BNE      0.045700
     53 H161       -6.2400   -2.6180   -1.1820 hc        1 BNE      0.052200
     54 H162       -4.8780   -1.6570   -1.8710 hc        1 BNE      0.052200
     55 H181       -0.4660    2.8070    3.8410 ha        1 BNE      0.152000
     56 H211        0.6950   -0.0050    1.1630 ha        1 BNE      0.176000
     57 H221        3.8790    2.6830   -1.6050 ha        1 BNE      0.148000
     58 H251        3.9300    0.2050   -1.7250 ha        1 BNE      0.155000
     59 H291        1.7900   -1.4140   -2.4920 hc        1 BNE      0.058033
     60 H292        1.4060   -3.0290   -1.7560 hc        1 BNE      0.058033
     61 H293        0.3830   -1.5770   -1.3510 hc        1 BNE      0.058033
     62 H301        1.8400   -3.2260    0.6930 hn        1 BNE      0.355800
     63 H302        2.4850   -2.0270    1.6000 hn        1 BNE      0.355800
     64 H321        3.6010   -3.0140   -2.7900 h4        1 BNE      0.045100
     65 H331        6.9630   -2.5700   -0.2310 h5        1 BNE      0.061100
     66 H341        4.2610   -0.4350    1.3890 h1        1 BNE      0.058033
     67 H342        4.7220   -2.0360    2.1510 h1        1 BNE      0.058033
     68 H343        6.0210   -0.9290    1.5030 h1        1 BNE      0.058033
@<TRIPOS>BOND
     1    1    2 1   
     2    1    3 1   
     3    1    4 1   
     4    1    5 1   
     5    2    6 ar  
     6    2    7 ar  
     7    3    8 1   
     8    3    9 2   
     9    4   10 1   
    10    4   36 1   
    11    4   37 1   
    12    5   11 1   
    13    5   38 1   
    14    5   39 1   
    15    6   12 ar  
    16    6   40 1   
    17    7   13 ar  
    18    7   41 1   
    19    8   14 1   
    20    8   15 1   
    21   10   16 1   
    22   10   42 1   
    23   10   43 1   
    24   11   44 1   
    25   11   45 1   
    26   11   46 1   
    27   12   17 1   
    28   12   18 ar  
    29   13   18 ar  
    30   13   47 1   
    31   14   16 1   
    32   14   48 1   
    33   14   49 1   
    34   15   50 1   
    35   15   51 1   
    36   15   52 1   
    37   16   53 1   
    38   16   54 1   
    39   17   19 1   
    40   18   55 1   
    41   19   20 ar  
    42   19   21 ar  
    43   20   22 ar  
    44   20   23 1   
    45   21   24 ar  
    46   21   56 1   
    47   22   25 ar  
    48   22   57 1   
    49   23   26 3   
    50   24   25 ar  
    51   24   27 1   
    52   25   58 1   
    53   27   28 1   
    54   27   29 1   
    55   27   30 1   
    56   28   31 1   
    57   28   32 2   
    58   29   59 1   
    59   29   60 1   
    60   29   61 1   
    61   30   62 1   
    62   30   63 1   
    63   31   33 1   
    64   31   34 1   
    65   32   35 1   
    66   32   64 1   
    67   33   35 2   
    68   33   65 1   
    69   34   66 1   
    70   34   67 1   
    71   34   68 1   
@<TRIPOS>SUBSTRUCTURE
     1 BNE         1 TEMP              0 ****  ****    0 ROOT
