@<TRIPOS>MOLECULE
BNE
   69    71     1     0     0
SMALL
bcc


@<TRIPOS>ATOM
      1 C1         -0.2620    0.3100    0.0560 c3        1 BNE     -0.025700
      2 C2         -1.0770    1.0190   -1.0020 ca        1 BNE     -0.119300
      3 C3          0.3320    1.4420    0.9140 c         1 BNE      0.644100
      4 C4         -1.1760   -0.5150    0.9840 c3        1 BNE     -0.081400
      5 C5          0.8390   -0.5930   -0.5040 c3        1 BNE     -0.076400
      6 C6         -0.7430    0.9470   -2.3590 ca        1 BNE     -0.184000
      7 C7         -2.1970    1.7710   -0.6180 ca        1 BNE     -0.137000
      8 N8          1.6620    2.0090    0.5330 n         1 BNE     -0.228400
      9 O9         -0.1850    1.9620    1.8910 o         1 BNE     -0.420100
     10 C10        -0.4920   -1.0750    2.2190 c3        1 BNE     -0.081400
     11 C11         0.3170   -1.8080   -1.2360 c3        1 BNE     -0.106100
     12 C12        -1.5400    1.6060   -3.3030 ca        1 BNE      0.111100
     13 C13        -2.9960    2.4040   -1.5710 ca        1 BNE     -0.094000
     14 C14         1.9360    2.3990   -0.6750 c2        1 BNE      0.338400
     15 C15         2.6090    2.1290    1.6330 c3        1 BNE     -0.003700
     16 C16        -0.2280   -2.5570    2.1510 c3        1 BNE     -0.102100
     17 O17        -1.3090    1.5150   -4.6720 os        1 BNE     -0.225200
     18 C18        -2.6800    2.3320   -2.9240 ca        1 BNE     -0.107000
     19 C19         0.0230    1.4620   -5.0710 ca        1 BNE      0.126100
     20 C20         0.3200    0.6700   -6.1960 ca        1 BNE     -0.004000
     21 C21         1.0120    2.2320   -4.4440 ca        1 BNE     -0.192000
     22 C22         1.6350    0.6750   -6.6840 ca        1 BNE     -0.065000
     23 C23        -0.6810   -0.1100   -6.8290 cg        1 BNE      0.220800
     24 C24         2.3200    2.2120   -4.9290 ca        1 BNE     -0.052300
     25 C25         2.6210    1.4290   -6.0540 ca        1 BNE     -0.132000
     26 N26        -1.5040   -0.7510   -7.3450 n1        1 BNE     -0.313800
     27 C27         3.4540    2.9710   -4.2500 c3        1 BNE      0.302800
     28 C28         4.3340    3.5880   -5.3050 cc        1 BNE     -0.295900
     29 C29         4.2970    1.9190   -3.4920 c3        1 BNE     -0.080100
     30 N30         2.9630    3.9790   -3.2960 n3        1 BNE     -0.936800
     31 N31         3.9360    4.5950   -6.2020 na        1 BNE     -0.196900
     32 C32         5.6920    3.3290   -5.5950 cd        1 BNE      0.324200
     33 C33         5.0600    4.8920   -6.9870 cc        1 BNE      0.415400
     34 C34         2.6520    5.2010   -6.3200 c3        1 BNE      0.011600
     35 NZ          6.1260    4.1410   -6.6350 nd        1 BNE     -0.652000
     36 H41        -1.6190   -1.3430    0.3680 hc        1 BNE      0.080700
     37 H42        -2.0280    0.1350    1.3200 hc        1 BNE      0.080700
     38 H51         1.4980   -0.0130   -1.2040 hc        1 BNE      0.040200
     39 H52         1.4800   -0.9380    0.3530 hc        1 BNE      0.040200
     40 H61         0.1180    0.3620   -2.7200 ha        1 BNE      0.156000
     41 H71        -2.4580    1.8750    0.4480 ha        1 BNE      0.154000
     42 H101       -1.1550   -0.8710    3.1050 hc        1 BNE      0.042700
     43 H102        0.4720   -0.5330    2.4130 hc        1 BNE      0.042700
     44 H111       -0.0410   -2.5860   -0.5170 hc        1 BNE      0.060033
     45 H112        1.1380   -2.2540   -1.8490 hc        1 BNE      0.060033
     46 H113       -0.5330   -1.5490   -1.9130 hc        1 BNE      0.060033
     47 H131       -3.8850    2.9690   -1.2470 ha        1 BNE      0.163000
     48 H141        0.6040   -2.7870    1.4420 hc        1 BNE      0.046700
     49 H142        2.9290    2.8290   -0.9400 h4        1 BNE      0.080300
     50 H151        2.1360    2.7460    2.4490 h1        1 BNE      0.106033
     51 H152        2.8310    1.1010    2.0300 h1        1 BNE      0.106033
     52 H153        3.5600    2.6180    1.2940 h1        1 BNE      0.106033
     53 H161        0.0650   -2.9370    3.1610 hc        1 BNE      0.046700
     54 H162       -1.1400   -3.1110    1.8210 hc        1 BNE      0.046700
     55 H181       -3.3050    2.8170   -3.6910 ha        1 BNE      0.176000
     56 H211        0.7180    2.8470   -3.5810 ha        1 BNE      0.139000
     57 H221        1.8860    0.0720   -7.5720 ha        1 BNE      0.168000
     58 H251        3.6510    1.4180   -6.4500 ha        1 BNE      0.168000
     59 H291        5.1840    2.3970   -3.0120 hc        1 BNE      0.045367
     60 H292        4.6510    1.1440   -4.2130 hc        1 BNE      0.045367
     61 H293        3.6770    1.4240   -2.7060 hc        1 BNE      0.045367
     62 H301        1.1800    2.3100   -1.4920 h4        1 BNE      0.080300
     63 H302        3.7410    4.5270   -2.9770 hn        1 BNE      0.362800
     64 H321        6.3620    2.6140   -5.1170 h4        1 BNE      0.046100
     65 H331        5.0420    5.6480   -7.7810 h5        1 BNE      0.075100
     66 H341        1.8480    4.4420   -6.1150 h1        1 BNE      0.060367
     67 H342        2.5190    5.6040   -7.3600 h1        1 BNE      0.060367
     68 H343        2.5520    6.0500   -5.5890 h1        1 BNE      0.060367
     69 H303        2.3120    4.5890   -3.7540 hn        1 BNE      0.362800
@<TRIPOS>BOND
     1    1    2 1   
     2    1    3 1   
     3    1    4 1   
     4    1    5 1   
     5    2    6 ar  
     6    2    7 ar  
     7    3    8 1   
     8    3    9 2   
     9    4   10 1   
    10    4   36 1   
    11    4   37 1   
    12    5   11 1   
    13    5   38 1   
    14    5   39 1   
    15    6   12 ar  
    16    6   40 1   
    17    7   13 ar  
    18    7   41 1   
    19    8   14 2   
    20    8   15 1   
    21   10   16 1   
    22   10   42 1   
    23   10   43 1   
    24   11   44 1   
    25   11   45 1   
    26   11   46 1   
    27   12   17 1   
    28   12   18 ar  
    29   13   18 ar  
    30   13   47 1   
    31   14   49 1   
    32   14   62 1   
    33   15   50 1   
    34   15   51 1   
    35   15   52 1   
    36   16   48 1   
    37   16   53 1   
    38   16   54 1   
    39   17   19 1   
    40   18   55 1   
    41   19   20 ar  
    42   19   21 ar  
    43   20   22 ar  
    44   20   23 1   
    45   21   24 ar  
    46   21   56 1   
    47   22   25 ar  
    48   22   57 1   
    49   23   26 3   
    50   24   25 ar  
    51   24   27 1   
    52   25   58 1   
    53   27   28 1   
    54   27   29 1   
    55   27   30 1   
    56   28   31 1   
    57   28   32 2   
    58   29   59 1   
    59   29   60 1   
    60   29   61 1   
    61   30   63 1   
    62   30   69 1   
    63   31   33 1   
    64   31   34 1   
    65   32   35 1   
    66   32   64 1   
    67   33   35 2   
    68   33   65 1   
    69   34   66 1   
    70   34   67 1   
    71   34   68 1   
@<TRIPOS>SUBSTRUCTURE
     1 BNE         1 TEMP              0 ****  ****    0 ROOT
