@<TRIPOS>MOLECULE
BNF
   20    20     1     0     0
SMALL
bcc


@<TRIPOS>ATOM
      1 C1          0.0060   -0.0350   -0.0400 ca        1 BNF     -0.117000
      2 C2          1.4020   -0.0540   -0.0380 ca        1 BNF     -0.073000
      3 C3          2.1010   -0.0270    1.1710 ca        1 BNF     -0.117000
      4 C4          1.4070    0.0220    2.3780 ca        1 BNF     -0.099000
      5 C5          0.0070    0.0450    2.3770 ca        1 BNF     -0.198300
      6 C6         -0.6940    0.0150    1.1640 ca        1 BNF     -0.099000
      7 C12        -0.7370    0.0500    3.6640 c3        1 BNF      0.175100
      8 N13        -1.0030    1.4610    4.1170 ny        1 BNF     -0.699800
      9 C14        -1.7540    1.5570    5.4150 c         1 BNF      0.539900
     10 O16        -2.0800    0.5370    5.9870 o         1 BNF     -0.366100
     11 H1         -0.5450   -0.0660   -0.9940 ha        1 BNF      0.162000
     12 H2          1.9540   -0.0990   -0.9920 ha        1 BNF      0.164000
     13 H3          3.2030   -0.0540    1.1720 ha        1 BNF      0.162000
     14 H4          1.9630    0.0210    3.3290 ha        1 BNF      0.139000
     15 H6         -1.7950    0.0080    1.1570 ha        1 BNF      0.139000
     16 H121       -1.7360   -0.4670    3.5650 hx        1 BNF      0.115700
     17 H122       -0.1510   -0.4620    4.4810 hx        1 BNF      0.115700
     18 H13        -0.1030    1.9500    4.2140 hn        1 BNF      0.462800
     19 H14        -1.9350    2.6120    5.7250 hx        1 BNF      0.130200
     20 H132       -1.5390    1.9450    3.3850 hn        1 BNF      0.462800
@<TRIPOS>BOND
     1    1    2 ar  
     2    1    6 ar  
     3    1   11 1   
     4    2    3 ar  
     5    2   12 1   
     6    3    4 ar  
     7    3   13 1   
     8    4    5 ar  
     9    4   14 1   
    10    5    6 ar  
    11    5    7 1   
    12    6   15 1   
    13    7    8 1   
    14    7   16 1   
    15    7   17 1   
    16    8    9 1   
    17    8   18 1   
    18    8   20 1   
    19    9   10 2   
    20    9   19 1   
@<TRIPOS>SUBSTRUCTURE
     1 BNF         1 TEMP              0 ****  ****    0 ROOT
