@<TRIPOS>MOLECULE
BNF
   20    20     1     0     0
SMALL
bcc


@<TRIPOS>ATOM
      1 C1          0.0080   -0.0350   -0.0400 ca        1 BNF     -0.117000
      2 C2          1.4040   -0.0560   -0.0360 ca        1 BNF     -0.073000
      3 C3          2.1020   -0.0290    1.1730 ca        1 BNF     -0.117000
      4 C4          1.4070    0.0210    2.3790 ca        1 BNF     -0.099000
      5 C5          0.0070    0.0450    2.3770 ca        1 BNF     -0.198300
      6 C6         -0.6930    0.0150    1.1640 ca        1 BNF     -0.099000
      7 C12        -0.7380    0.0500    3.6640 c3        1 BNF      0.175100
      8 N13        -1.0040    1.4620    4.1160 n4        1 BNF     -0.699800
      9 C14        -1.7550    1.5580    5.4140 c         1 BNF      0.539900
     10 O16        -2.0830    0.5380    5.9850 o         1 BNF     -0.366100
     11 H1         -0.5420   -0.0660   -0.9940 ha        1 BNF      0.162000
     12 H2          1.9560   -0.1010   -0.9900 ha        1 BNF      0.164000
     13 H3          3.2040   -0.0560    1.1740 ha        1 BNF      0.162000
     14 H4          1.9620    0.0190    3.3300 ha        1 BNF      0.139000
     15 H6         -1.7940    0.0090    1.1560 ha        1 BNF      0.139000
     16 H121       -1.7370   -0.4660    3.5640 hx        1 BNF      0.115700
     17 H122       -0.1520   -0.4620    4.4810 hx        1 BNF      0.115700
     18 H13        -0.1040    1.9500    4.2140 hn        1 BNF      0.462800
     19 H14        -1.9370    2.6140    5.7230 hx        1 BNF      0.130200
     20 H132       -1.5390    1.9460    3.3830 hn        1 BNF      0.462800
@<TRIPOS>BOND
     1    1    2 ar  
     2    1    6 ar  
     3    1   11 1   
     4    2    3 ar  
     5    2   12 1   
     6    3    4 ar  
     7    3   13 1   
     8    4    5 ar  
     9    4   14 1   
    10    5    6 ar  
    11    5    7 1   
    12    6   15 1   
    13    7    8 1   
    14    7   16 1   
    15    7   17 1   
    16    8    9 1   
    17    8   18 1   
    18    8   20 1   
    19    9   10 2   
    20    9   19 1   
@<TRIPOS>SUBSTRUCTURE
     1 BNF         1 TEMP              0 ****  ****    0 ROOT
