@<TRIPOS>MOLECULE
BNF
   19    16     1     0     0
SMALL
bcc


@<TRIPOS>ATOM
      1 C1          0.0820   -0.3710   -2.5280 c1        1 BNF     -0.065750
      2 C2          1.4690   -0.3190   -2.5280 c1        1 BNF     -0.065750
      3 C3          2.1680   -0.3010   -1.3190 c1        1 BNF     -0.065750
      4 C4          1.4780   -0.3350   -0.1190 c1        1 BNF     -0.060500
      5 C5          0.0850   -0.3870   -0.1170 c1        1 BNF     -0.090100
      6 C6         -0.6110   -0.4050   -1.3240 c1        1 BNF     -0.065750
      7 C12        -0.6800   -0.4430    1.2190 c3        1 BNF      0.101100
      8 N13        -0.9400    0.8990    1.6910 n         1 BNF     -0.573900
      9 C14        -1.6990    1.0960    2.8860 c         1 BNF      0.653900
     10 O16        -2.6020    1.9070    2.9050 o         1 BNF     -0.601100
     11 H1         -0.4010   -0.3830   -3.3630 ha        1 BNF      0.076250
     12 H2          1.9460   -0.2970   -3.3560 ha        1 BNF      0.076250
     13 H3          3.1330   -0.2640   -1.3180 ha        1 BNF      0.076250
     14 H4          1.9630   -0.3230    0.7180 ha        1 BNF      0.073500
     15 H6         -1.5770   -0.4410   -1.3240 ha        1 BNF      0.076250
     16 H121       -1.5320   -0.9140    1.0880 h1        1 BNF      0.057700
     17 H122       -0.1400   -0.9210    1.8860 h1        1 BNF      0.057700
     18 H13        -0.6560    1.6090    1.2130 hn        1 BNF      0.309500
     19 H14        -1.4840    0.5910    3.6880 h5        1 BNF      0.030200
@<TRIPOS>BOND
     1    1    6 3   
     2    1   11 1   
     3    2    3 3   
     4    2   12 1   
     5    3   13 1   
     6    4    5 3   
     7    4   14 1   
     8    5    7 1   
     9    6   15 1   
    10    7    8 1   
    11    7   16 1   
    12    7   17 1   
    13    8    9 1   
    14    8   18 1   
    15    9   10 2   
    16    9   19 1   
@<TRIPOS>SUBSTRUCTURE
     1 BNF         1 TEMP              0 ****  ****    0 ROOT
