@<TRIPOS>MOLECULE
BNF
   19    19     1     0     0
SMALL
bcc


@<TRIPOS>ATOM
      1 C1         -1.2080   -0.0890    2.5180 ca        1 BNF     -0.133000
      2 C2          0.0000   -0.2090    3.2050 ca        1 BNF     -0.121000
      3 C3          1.2080   -0.0860    2.5180 ca        1 BNF     -0.133000
      4 C4          1.2090    0.1560    1.1450 ca        1 BNF     -0.114000
      5 C5         -0.0010    0.2790    0.4540 ca        1 BNF     -0.113300
      6 C6         -1.2100    0.1540    1.1450 ca        1 BNF     -0.114000
      7 C12        -0.0010    0.5660   -1.0180 c3        1 BNF      0.136300
      8 N13         0.0000   -0.6280   -1.8260 n         1 BNF     -0.587900
      9 C14         0.0010   -0.5730   -3.1960 c         1 BNF      0.654900
     10 O16        -0.0010    0.4960   -3.8300 o         1 BNF     -0.607100
     11 H1         -2.1600   -0.1830    3.0600 ha        1 BNF      0.134000
     12 H2          0.0010   -0.4000    4.2890 ha        1 BNF      0.134000
     13 H3          2.1610   -0.1790    3.0590 ha        1 BNF      0.134000
     14 H4          2.1620    0.2570    0.6040 ha        1 BNF      0.137000
     15 H6         -2.1630    0.2530    0.6050 ha        1 BNF      0.137000
     16 H121        0.9060    1.1850   -1.2860 h1        1 BNF      0.057700
     17 H122       -0.9100    1.1830   -1.2860 h1        1 BNF      0.057700
     18 H13         0.0010   -1.5030   -1.3620 hn        1 BNF      0.315500
     19 H14         0.0020   -1.5720   -3.6910 h5        1 BNF      0.026200
@<TRIPOS>BOND
     1    1    2 ar  
     2    1    6 ar  
     3    1   11 1   
     4    2    3 ar  
     5    2   12 1   
     6    3    4 ar  
     7    3   13 1   
     8    4    5 ar  
     9    4   14 1   
    10    5    6 ar  
    11    5    7 1   
    12    6   15 1   
    13    7    8 1   
    14    7   16 1   
    15    7   17 1   
    16    8    9 1   
    17    8   18 1   
    18    9   10 2   
    19    9   19 1   
@<TRIPOS>SUBSTRUCTURE
     1 BNF         1 TEMP              0 ****  ****    0 ROOT
