@<TRIPOS>MOLECULE
BNG
   51    51     1     0     0
SMALL
bcc


@<TRIPOS>ATOM
      1 C1          2.1870    0.6040    2.3690 c3        1 BNG      0.345900
      2 C2          3.6720    0.3490    2.3850 c3        1 BNG      0.096100
      3 C3          4.2350    0.3690    3.7660 c3        1 BNG      0.058100
      4 C4          3.8520    1.6080    4.5140 c3        1 BNG      0.083100
      5 C5          2.3610    1.8600    4.4880 c3        1 BNG      0.111100
      6 C6          2.0840    3.2090    5.1070 c3        1 BNG      0.145400
      7 C1'         0.5070    0.0900    0.7900 c3        1 BNG      0.134400
      8 C2'         0.1510    0.2760   -0.6570 c3        1 BNG     -0.084400
      9 C3'        -1.2060   -0.4710   -0.9660 c3        1 BNG     -0.078400
     10 C4'        -1.4460   -0.4960   -2.4870 c3        1 BNG     -0.078400
     11 C5'        -2.8030   -1.1750   -2.7840 c3        1 BNG     -0.079400
     12 C6'        -3.0490   -1.1900   -4.3270 c3        1 BNG     -0.079400
     13 C7'        -4.3640   -1.9120   -4.6330 c3        1 BNG     -0.079400
     14 C8'        -4.5660   -1.9770   -6.1420 c3        1 BNG     -0.080400
     15 C9'        -5.9050   -2.6960   -6.4530 c3        1 BNG     -0.092100
     16 O1          1.7730    0.7390    1.0690 os        1 BNG     -0.403600
     17 O2          3.9240   -0.9290    1.8010 oh        1 BNG     -0.582800
     18 O3          5.6820    0.3030    3.6840 oh        1 BNG     -0.597800
     19 O4          4.2790    1.4830    5.8720 oh        1 BNG     -0.605800
     20 O5          1.8100    1.8350    3.1270 os        1 BNG     -0.436600
     21 O6          1.7980    3.0470    6.4920 oh        1 BNG     -0.596800
     22 H1          1.7160   -0.1890    2.7790 h2        1 BNG      0.062700
     23 H2          4.1280    1.0520    1.8380 h1        1 BNG      0.065700
     24 H3          3.8990   -0.4310    4.2650 h1        1 BNG      0.105700
     25 H4          4.3110    2.3770    4.1060 h1        1 BNG      0.053700
     26 H5          1.9200    1.1800    5.0140 h1        1 BNG      0.066700
     27 H61         2.8870    3.7960    5.0000 h1        1 BNG      0.058200
     28 H62         1.3030    3.6280    4.6530 h1        1 BNG      0.058200
     29 H1'1       -0.1690    0.4720    1.3310 h1        1 BNG      0.037700
     30 H1'2        0.5800   -0.8610    0.9850 h1        1 BNG      0.037700
     31 H2'1        0.8560   -0.0910   -1.2130 hc        1 BNG      0.055700
     32 H2'2        0.0500    1.2190   -0.8460 hc        1 BNG      0.055700
     33 H3'1       -1.1580   -1.3820   -0.6300 hc        1 BNG      0.041200
     34 H3'2       -1.9550    0.0070   -0.5210 hc        1 BNG      0.041200
     35 H4'1       -0.7170   -1.0060   -2.9290 hc        1 BNG      0.041700
     36 H4'2       -1.4580    0.4080   -2.8260 hc        1 BNG      0.041700
     37 H5'1       -3.5210   -0.6750   -2.3430 hc        1 BNG      0.039700
     38 H5'2       -2.7890   -2.0660   -2.4550 hc        1 BNG      0.039700
     39 H6'1       -2.3200   -1.6530   -4.7640 hc        1 BNG      0.039700
     40 H6'2       -3.0970   -0.2720   -4.6570 hc        1 BNG      0.039700
     41 H7'1       -5.0960   -1.4320   -4.2340 hc        1 BNG      0.039700
     42 H7'2       -4.3300   -2.8390   -4.2600 hc        1 BNG      0.039700
     43 H8'1       -3.8210   -2.4760   -6.5510 hc        1 BNG      0.038700
     44 H8'2       -4.5910   -1.0660   -6.5080 hc        1 BNG      0.038700
     45 H9'1       -5.8960   -3.5670   -6.0650 hc        1 BNG      0.032700
     46 H9'2       -6.6500   -2.1770   -6.0760 hc        1 BNG      0.032700
     47 H9'3       -6.0170   -2.7710   -7.4100 hc        1 BNG      0.032700
     48 HO2         4.6240   -0.8670    1.2300 ho        1 BNG      0.416000
     49 HO3         5.9840    1.0220    3.2860 ho        1 BNG      0.405000
     50 HO4         4.9960    1.9740    5.9980 ho        1 BNG      0.425000
     51 HO6         1.3530    3.7600    6.7880 ho        1 BNG      0.419000
@<TRIPOS>BOND
     1    1    2 1   
     2    1   16 1   
     3    1   20 1   
     4    1   22 1   
     5    2    3 1   
     6    2   17 1   
     7    2   23 1   
     8    3    4 1   
     9    3   18 1   
    10    3   24 1   
    11    4    5 1   
    12    4   19 1   
    13    4   25 1   
    14    5    6 1   
    15    5   20 1   
    16    5   26 1   
    17    6   21 1   
    18    6   27 1   
    19    6   28 1   
    20    7    8 1   
    21    7   16 1   
    22    7   29 1   
    23    7   30 1   
    24    8    9 1   
    25    8   31 1   
    26    8   32 1   
    27    9   10 1   
    28    9   33 1   
    29    9   34 1   
    30   10   11 1   
    31   10   35 1   
    32   10   36 1   
    33   11   12 1   
    34   11   37 1   
    35   11   38 1   
    36   12   13 1   
    37   12   39 1   
    38   12   40 1   
    39   13   14 1   
    40   13   41 1   
    41   13   42 1   
    42   14   15 1   
    43   14   43 1   
    44   14   44 1   
    45   15   45 1   
    46   15   46 1   
    47   15   47 1   
    48   17   48 1   
    49   18   49 1   
    50   19   50 1   
    51   21   51 1   
@<TRIPOS>SUBSTRUCTURE
     1 BNG         1 TEMP              0 ****  ****    0 ROOT
