@<TRIPOS>MOLECULE
BNG
   51    51     1     0     0
SMALL
bcc


@<TRIPOS>ATOM
      1 C1          0.4740    0.4670   -2.2850 c3        1 BNG      0.307900
      2 C2          1.4780   -0.0730   -3.3230 c3        1 BNG      0.089100
      3 C3          0.9340    0.1950   -4.7330 c3        1 BNG      0.108100
      4 C4         -0.4810   -0.3970   -4.8590 c3        1 BNG      0.122100
      5 C5         -1.3810    0.1600   -3.7440 c3        1 BNG      0.108100
      6 C6         -2.7470   -0.5330   -3.7490 c3        1 BNG      0.140400
      7 C2'         0.7150   -0.1130    1.3240 c3        1 BNG     -0.085400
      8 C3'        -0.0210    0.3850    2.5480 c3        1 BNG     -0.078400
      9 C4'         0.5570   -0.2150    3.8120 c3        1 BNG     -0.078400
     10 C5'        -0.1780    0.2810    5.0390 c3        1 BNG     -0.079400
     11 C6'         0.4000   -0.3190    6.3030 c3        1 BNG     -0.079400
     12 C7'        -0.3340    0.1760    7.5310 c3        1 BNG     -0.079400
     13 C8'         0.2420   -0.4230    8.7960 c3        1 BNG     -0.080400
     14 C9'        -0.4860    0.0670   10.0210 c3        1 BNG     -0.093100
     15 O1          0.8790   -0.0290   -1.0300 os        1 BNG     -0.424600
     16 O2          2.7120    0.6140   -3.2240 oh        1 BNG     -0.603800
     17 O3          1.7270   -0.4490   -5.7140 oh        1 BNG     -0.605800
     18 O4         -1.0660   -0.0180   -6.0910 oh        1 BNG     -0.594800
     19 O5         -0.8150   -0.1110   -2.4600 os        1 BNG     -0.449600
     20 O6         -3.6060    0.0280   -2.7820 oh        1 BNG     -0.594800
     21 H1          0.4120    1.5900   -2.3020 h2        1 BNG      0.053700
     22 H2          1.6330   -1.1750   -3.1640 h1        1 BNG      0.077700
     23 H3          0.9140    1.3020   -4.9330 h1        1 BNG      0.064700
     24 H4         -0.4230   -1.5190   -4.7920 h1        1 BNG      0.063700
     25 H5         -1.5080    1.2700   -3.8700 h1        1 BNG      0.068700
     26 H61        -3.2440   -0.3540   -4.7390 h1        1 BNG      0.064700
     27 H62        -2.6180   -1.6330   -3.5690 h1        1 BNG      0.064700
     28 H1'1       -0.9550    0.2160   -0.0550 h1        1 BNG      0.038200
     29 H1'2        0.2160    1.6170    0.0760 h1        1 BNG      0.038200
     30 H2'1        1.8030    0.1510    1.3920 hc        1 BNG      0.055200
     31 H2'2        0.6480   -1.2310    1.2590 hc        1 BNG      0.055200
     32 H3'1       -1.1090    0.1200    2.4690 hc        1 BNG      0.041700
     33 H3'2        0.0440    1.5040    2.5990 hc        1 BNG      0.041700
     34 H4'1        1.6440    0.0490    3.8910 hc        1 BNG      0.041700
     35 H4'2        0.4910   -1.3340    3.7600 hc        1 BNG      0.041700
     36 H5'1       -1.2650    0.0160    4.9600 hc        1 BNG      0.040200
     37 H5'2       -0.1130    1.3990    5.0900 hc        1 BNG      0.040200
     38 H6'1        1.4870   -0.0550    6.3830 hc        1 BNG      0.039700
     39 H6'2        0.3350   -1.4380    6.2530 hc        1 BNG      0.039700
     40 H7'1       -1.4220   -0.0890    7.4520 hc        1 BNG      0.039700
     41 H7'2       -0.2700    1.2950    7.5820 hc        1 BNG      0.039700
     42 H8'1        1.3300   -0.1590    8.8730 hc        1 BNG      0.038700
     43 H8'2        0.1780   -1.5420    8.7430 hc        1 BNG      0.038700
     44 H9'1       -0.0450   -0.3870   10.9420 hc        1 BNG      0.032700
     45 H9'2       -0.4120    1.1780   10.1060 hc        1 BNG      0.032700
     46 H9'3       -1.5670   -0.2090    9.9750 hc        1 BNG      0.032700
     47 HO2         3.0490    0.4460   -2.3330 ho        1 BNG      0.425000
     48 HO3         2.6340   -0.1400   -5.5820 ho        1 BNG      0.427000
     49 HO4        -0.4470   -0.2920   -6.7820 ho        1 BNG      0.426000
     50 HO6        -3.1810   -0.0920   -1.9230 ho        1 BNG      0.409000
     51 C1'         0.1230    0.4990    0.0680 c3        1 BNG      0.136400
@<TRIPOS>BOND
     1    1    2 1   
     2    1   15 1   
     3    1   19 1   
     4    1   21 1   
     5    2    3 1   
     6    2   16 1   
     7    2   22 1   
     8    3    4 1   
     9    3   17 1   
    10    3   23 1   
    11    4    5 1   
    12    4   18 1   
    13    4   24 1   
    14    5    6 1   
    15    5   19 1   
    16    5   25 1   
    17    6   20 1   
    18    6   26 1   
    19    6   27 1   
    20    7    8 1   
    21    7   30 1   
    22    7   31 1   
    23    7   51 1   
    24    8    9 1   
    25    8   32 1   
    26    8   33 1   
    27    9   10 1   
    28    9   34 1   
    29    9   35 1   
    30   10   11 1   
    31   10   36 1   
    32   10   37 1   
    33   11   12 1   
    34   11   38 1   
    35   11   39 1   
    36   12   13 1   
    37   12   40 1   
    38   12   41 1   
    39   13   14 1   
    40   13   42 1   
    41   13   43 1   
    42   14   44 1   
    43   14   45 1   
    44   14   46 1   
    45   15   51 1   
    46   16   47 1   
    47   17   48 1   
    48   18   49 1   
    49   20   50 1   
    50   28   51 1   
    51   29   51 1   
@<TRIPOS>SUBSTRUCTURE
     1 BNG         1 TEMP              0 ****  ****    0 ROOT
