@<TRIPOS>MOLECULE
BNI
   45    47     1     0     0
SMALL
bcc


@<TRIPOS>ATOM
      1 C1         -1.8010   -0.3370   -0.3300 c         1 BNI      0.668100
      2 C10        -0.4810   -1.0910   -0.3140 c3        1 BNI     -0.152400
      3 C9          0.6810   -0.1390   -0.5060 c3        1 BNI     -0.075400
      4 C8          1.9910   -0.8960   -0.5430 c3        1 BNI     -0.082400
      5 C7          3.1590    0.0600   -0.7000 c3        1 BNI     -0.071400
      6 C2          4.4740   -0.6830   -0.6980 c3        1 BNI     -0.009600
      7 C6          6.5410   -1.3630    0.7800 c3        1 BNI     -0.043300
      8 C4          5.6970    0.1420   -1.1040 c3        1 BNI      0.062700
      9 C5          6.9590   -0.3120   -0.2410 c3        1 BNI      0.058700
     10 C3          6.6120    1.9980    0.0130 c         1 BNI      0.750500
     11 O2         -1.8670    0.8750   -0.5890 o         1 BNI     -0.570100
     12 O3          6.7250    3.1530    0.4570 o         1 BNI     -0.612500
     13 N1          7.5130    0.9260    0.2980 n         1 BNI     -0.513900
     14 N2          5.6350    1.5880   -0.9420 n         1 BNI     -0.519900
     15 S1          4.7820   -1.3660    0.9230 ss        1 BNI     -0.295200
     16 N17        -2.9290   -1.1070   -0.0420 n         1 BNI     -0.476100
     17 C18        -4.2610   -0.6910    0.0100 ca        1 BNI      0.121600
     18 C20        -4.6710    0.6400   -0.2380 ca        1 BNI     -0.191000
     19 C21        -6.0120    0.9910   -0.1730 ca        1 BNI     -0.036000
     20 C22        -6.9780    0.0220    0.1420 ca        1 BNI     -0.215200
     21 C23        -6.5930   -1.3050    0.3930 ca        1 BNI     -0.036000
     22 C24        -5.2550   -1.6560    0.3280 ca        1 BNI     -0.191000
     23 N25        -8.4090    0.3990    0.2110 no        1 BNI      0.319200
     24 O26        -9.2220   -0.4460    0.4820 o         1 BNI     -0.213500
     25 O27        -8.7250    1.5380   -0.0070 o         1 BNI     -0.213500
     26 H101       -0.3660   -1.6350    0.6600 hc        1 BNI      0.069200
     27 H102       -0.4910   -1.8530   -1.1380 hc        1 BNI      0.069200
     28 H91         0.5400    0.4370   -1.4600 hc        1 BNI      0.064700
     29 H92         0.6910    0.6110    0.3280 hc        1 BNI      0.064700
     30 H81         2.1190   -1.4870    0.4040 hc        1 BNI      0.049700
     31 H82         1.9830   -1.6260   -1.3950 hc        1 BNI      0.049700
     32 H71         3.0490    0.6210   -1.6670 hc        1 BNI      0.059700
     33 H72         3.1320    0.8090    0.1370 hc        1 BNI      0.059700
     34 H21A        4.3990   -1.5420   -1.4180 h1        1 BNI      0.081700
     35 H61         6.9700   -1.1780    1.7960 h1        1 BNI      0.083200
     36 H62         6.8970   -2.3680    0.4470 h1        1 BNI      0.083200
     37 HC4         5.9150   -0.0530   -2.1940 h1        1 BNI      0.087700
     38 HC5         7.7340   -0.7490   -0.9320 h1        1 BNI      0.089700
     39 HN11        7.8860    0.9030    1.2190 hn        1 BNI      0.313500
     40 HN21        4.7420    2.0200   -0.8760 hn        1 BNI      0.317500
     41 H171       -2.7740   -2.0720    0.1570 hn        1 BNI      0.320500
     42 H20        -3.9310    1.4210   -0.4880 ha        1 BNI      0.164500
     43 H21        -6.3170    2.0340   -0.3690 ha        1 BNI      0.171500
     44 H23        -7.3540   -2.0660    0.6410 ha        1 BNI      0.171500
     45 H24        -4.9740   -2.7020    0.5280 ha        1 BNI      0.164500
@<TRIPOS>BOND
     1    1    2 1   
     2    1   11 2   
     3    1   16 1   
     4    2    3 1   
     5    2   26 1   
     6    2   27 1   
     7    3    4 1   
     8    3   28 1   
     9    3   29 1   
    10    4    5 1   
    11    4   30 1   
    12    4   31 1   
    13    5    6 1   
    14    5   32 1   
    15    5   33 1   
    16    6    8 1   
    17    6   15 1   
    18    6   34 1   
    19    7    9 1   
    20    7   15 1   
    21    7   35 1   
    22    7   36 1   
    23    8    9 1   
    24    8   14 1   
    25    8   37 1   
    26    9   13 1   
    27    9   38 1   
    28   10   12 2   
    29   10   13 1   
    30   10   14 1   
    31   13   39 1   
    32   14   40 1   
    33   16   17 1   
    34   16   41 1   
    35   17   18 ar  
    36   17   22 ar  
    37   18   19 ar  
    38   18   42 1   
    39   19   20 ar  
    40   19   43 1   
    41   20   21 ar  
    42   20   23 1   
    43   21   22 ar  
    44   21   44 1   
    45   22   45 1   
    46   23   24 1   
    47   23   25 1   
@<TRIPOS>SUBSTRUCTURE
     1 BNI         1 TEMP              0 ****  ****    0 ROOT
