@<TRIPOS>MOLECULE
BNI
   45    47     1     0     0
SMALL
bcc


@<TRIPOS>ATOM
      1 C1         -0.1650    0.1800    0.4200 c         1 BNI      0.668100
      2 C10         1.3420   -0.0010    0.3310 c3        1 BNI     -0.152400
      3 C9          1.9710    0.0610    1.7070 c3        1 BNI     -0.075400
      4 C8          3.4750   -0.0670    1.6140 c3        1 BNI     -0.082400
      5 C7          4.1030   -0.0400    2.9950 c3        1 BNI     -0.071400
      6 C2          5.6020   -0.2070    2.9140 c3        1 BNI     -0.009600
      7 C6          7.5760   -1.9280    3.1600 c3        1 BNI     -0.043300
      8 C4          6.3660    0.0600    4.2130 c3        1 BNI      0.062700
      9 C5          7.5920   -0.9530    4.3300 c3        1 BNI      0.058700
     10 C3          6.2250   -1.1370    6.2320 c         1 BNI      0.750500
     11 O2         -0.7350    0.4590    1.4870 o         1 BNI     -0.570100
     12 O3          5.7600   -1.5780    7.2970 o         1 BNI     -0.612500
     13 N1          7.4710   -1.5390    5.6610 n         1 BNI     -0.513900
     14 N2          5.6470   -0.0780    5.4730 n         1 BNI     -0.519900
     15 S1          6.0000   -1.8600    2.3690 ss        1 BNI     -0.295200
     16 N17        -0.8550    0.0200   -0.7830 n         1 BNI     -0.476100
     17 C18        -2.2300    0.1320   -1.0040 ca        1 BNI      0.121600
     18 C20        -3.1590    0.4420    0.0150 ca        1 BNI     -0.191000
     19 C21        -4.5140    0.5410   -0.2700 ca        1 BNI     -0.036000
     20 C22        -4.9750    0.3330   -1.5790 ca        1 BNI     -0.215200
     21 C23        -4.0690    0.0230   -2.6070 ca        1 BNI     -0.036000
     22 C24        -2.7160   -0.0760   -2.3230 ca        1 BNI     -0.191000
     23 N25        -6.4210    0.4400   -1.8810 no        1 BNI      0.319200
     24 O26        -6.7960    0.2570   -3.0100 o         1 BNI     -0.213500
     25 O27        -7.1860    0.7060   -0.9920 o         1 BNI     -0.213500
     26 H101        1.5780   -0.9890   -0.1480 hc        1 BNI      0.069200
     27 H102        1.7650    0.8090   -0.3200 hc        1 BNI      0.069200
     28 H91         1.5510   -0.7600    2.3460 hc        1 BNI      0.064700
     29 H92         1.6950    1.0310    2.2010 hc        1 BNI      0.064700
     30 H81         3.8890    0.7710    0.9940 hc        1 BNI      0.049700
     31 H82         3.7470   -1.0290    1.1010 hc        1 BNI      0.049700
     32 H71         3.6520   -0.8590    3.6170 hc        1 BNI      0.059700
     33 H72         3.8630    0.9400    3.4900 hc        1 BNI      0.059700
     34 H21A        6.0000    0.5070    2.1430 h1        1 BNI      0.081700
     35 H61         8.3780   -1.6510    2.4330 h1        1 BNI      0.083200
     36 H62         7.7610   -2.9860    3.4720 h1        1 BNI      0.083200
     37 HC4         6.7680    1.1130    4.1830 h1        1 BNI      0.087700
     38 HC5         8.5530   -0.3640    4.3140 h1        1 BNI      0.089700
     39 HN11        7.7100   -2.4990    5.7660 hn        1 BNI      0.313500
     40 HN21        4.6540   -0.0320    5.4600 hn        1 BNI      0.317500
     41 H171       -0.3080   -0.2060   -1.5860 hn        1 BNI      0.320500
     42 H20        -2.8230    0.6100    1.0530 ha        1 BNI      0.164500
     43 H21        -5.2280    0.7840    0.5370 ha        1 BNI      0.171500
     44 H23        -4.4330   -0.1410   -3.6360 ha        1 BNI      0.171500
     45 H24        -2.0220   -0.3200   -3.1430 ha        1 BNI      0.164500
@<TRIPOS>BOND
     1    1    2 1   
     2    1   11 2   
     3    1   16 1   
     4    2    3 1   
     5    2   26 1   
     6    2   27 1   
     7    3    4 1   
     8    3   28 1   
     9    3   29 1   
    10    4    5 1   
    11    4   30 1   
    12    4   31 1   
    13    5    6 1   
    14    5   32 1   
    15    5   33 1   
    16    6    8 1   
    17    6   15 1   
    18    6   34 1   
    19    7    9 1   
    20    7   15 1   
    21    7   35 1   
    22    7   36 1   
    23    8    9 1   
    24    8   14 1   
    25    8   37 1   
    26    9   13 1   
    27    9   38 1   
    28   10   12 2   
    29   10   13 1   
    30   10   14 1   
    31   13   39 1   
    32   14   40 1   
    33   16   17 1   
    34   16   41 1   
    35   17   18 ar  
    36   17   22 ar  
    37   18   19 ar  
    38   18   42 1   
    39   19   20 ar  
    40   19   43 1   
    41   20   21 ar  
    42   20   23 1   
    43   21   22 ar  
    44   21   44 1   
    45   22   45 1   
    46   23   24 1   
    47   23   25 1   
@<TRIPOS>SUBSTRUCTURE
     1 BNI         1 TEMP              0 ****  ****    0 ROOT
