@<TRIPOS>MOLECULE
BNI
   45    47     1     0     0
SMALL
bcc


@<TRIPOS>ATOM
      1 C1         -0.1610    0.1870    0.4130 c         1 BNI      0.668100
      2 C10         1.3430   -0.0200    0.3260 c3        1 BNI     -0.152400
      3 C9          1.9760    0.0680    1.6990 c3        1 BNI     -0.075400
      4 C8          3.4790   -0.0830    1.6060 c3        1 BNI     -0.082400
      5 C7          4.1100   -0.0330    2.9840 c3        1 BNI     -0.071400
      6 C2          5.6060   -0.2220    2.9050 c3        1 BNI     -0.009600
      7 C6          7.5580   -1.9630    3.1840 c3        1 BNI     -0.043300
      8 C4          6.3760    0.0630    4.1960 c3        1 BNI      0.062700
      9 C5          7.5890   -0.9630    4.3320 c3        1 BNI      0.058700
     10 C3          6.2240   -1.0870    6.2410 c         1 BNI      0.750500
     11 O2         -0.7230    0.5130    1.4710 o         1 BNI     -0.570100
     12 O3          5.7550   -1.4990    7.3160 o         1 BNI     -0.612500
     13 N1          7.4630   -1.5180    5.6760 n         1 BNI     -0.513900
     14 N2          5.6580   -0.0370    5.4600 n         1 BNI     -0.519900
     15 S1          5.9810   -1.8920    2.3950 ss        1 BNI     -0.295200
     16 N17        -0.8580   -0.0050   -0.7810 n         1 BNI     -0.476100
     17 C18        -2.2310    0.1200   -1.0020 ca        1 BNI      0.121600
     18 C20        -3.1510    0.4840    0.0080 ca        1 BNI     -0.191000
     19 C21        -4.5060    0.5940   -0.2760 ca        1 BNI     -0.036000
     20 C22        -4.9750    0.3430   -1.5750 ca        1 BNI     -0.215200
     21 C23        -4.0780   -0.0200   -2.5930 ca        1 BNI     -0.036000
     22 C24        -2.7260   -0.1300   -2.3100 ca        1 BNI     -0.191000
     23 N25        -6.4210    0.4620   -1.8760 no        1 BNI      0.319200
     24 O26        -6.8030    0.2420   -2.9950 o         1 BNI     -0.213500
     25 O27        -7.1770    0.7750   -0.9960 o         1 BNI     -0.213500
     26 H101        1.5630   -1.0230   -0.1280 hc        1 BNI      0.069700
     27 H102        1.7770    0.7670   -0.3460 hc        1 BNI      0.069700
     28 H91         1.7140    1.0530    2.1690 hc        1 BNI      0.064200
     29 H92         1.5470   -0.7310    2.3590 hc        1 BNI      0.064200
     30 H81         3.7360   -1.0600    1.1140 hc        1 BNI      0.049700
     31 H82         3.9020    0.7350    0.9650 hc        1 BNI      0.049700
     32 H71         3.6490   -0.8320    3.6260 hc        1 BNI      0.059700
     33 H72         3.8840    0.9610    3.4570 hc        1 BNI      0.059700
     34 H21A        6.0110    0.4700    2.1170 h1        1 BNI      0.081700
     35 H61         7.7290   -3.0160    3.5190 h1        1 BNI      0.083200
     36 H62         8.3620   -1.7130    2.4500 h1        1 BNI      0.083200
     37 HC4         6.7920    1.1100    4.1410 h1        1 BNI      0.087700
     38 HC5         8.5570   -0.3870    4.3020 h1        1 BNI      0.089700
     39 HN11        7.6900   -2.4790    5.8020 hn        1 BNI      0.313500
     40 HN21        4.6660    0.0220    5.4480 hn        1 BNI      0.317500
     41 H171       -0.3180   -0.2700   -1.5770 hn        1 BNI      0.320500
     42 H20        -2.8090    0.6870    1.0380 ha        1 BNI      0.164500
     43 H21        -5.2130    0.8800    0.5230 ha        1 BNI      0.171500
     44 H23        -4.4490   -0.2180   -3.6140 ha        1 BNI      0.171500
     45 H24        -2.0400   -0.4170   -3.1220 ha        1 BNI      0.164500
@<TRIPOS>BOND
     1    1    2 1   
     2    1   11 2   
     3    1   16 1   
     4    2    3 1   
     5    2   26 1   
     6    2   27 1   
     7    3    4 1   
     8    3   28 1   
     9    3   29 1   
    10    4    5 1   
    11    4   30 1   
    12    4   31 1   
    13    5    6 1   
    14    5   32 1   
    15    5   33 1   
    16    6    8 1   
    17    6   15 1   
    18    6   34 1   
    19    7    9 1   
    20    7   15 1   
    21    7   35 1   
    22    7   36 1   
    23    8    9 1   
    24    8   14 1   
    25    8   37 1   
    26    9   13 1   
    27    9   38 1   
    28   10   12 2   
    29   10   13 1   
    30   10   14 1   
    31   13   39 1   
    32   14   40 1   
    33   16   17 1   
    34   16   41 1   
    35   17   18 ar  
    36   17   22 ar  
    37   18   19 ar  
    38   18   42 1   
    39   19   20 ar  
    40   19   43 1   
    41   20   21 ar  
    42   20   23 1   
    43   21   22 ar  
    44   21   44 1   
    45   22   45 1   
    46   23   24 1   
    47   23   25 1   
@<TRIPOS>SUBSTRUCTURE
     1 BNI         1 TEMP              0 ****  ****    0 ROOT
