@<TRIPOS>MOLECULE
BNI
   45    43     1     0     0
SMALL
bcc


@<TRIPOS>ATOM
      1 C1         -1.9440   -0.0640   -1.5140 c1        1 BNI      0.312000
      2 C10        -0.4270   -0.3720   -1.5200 c2        1 BNI     -0.187000
      3 C9          0.1120   -0.3500   -0.0670 c3        1 BNI     -0.156000
      4 C8          1.6630   -0.4700   -0.0880 c3        1 BNI     -0.164000
      5 C7          2.2020   -0.4260    1.3510 c3        1 BNI     -0.140000
      6 C2          3.6840    0.1620    1.3420 c3        1 BNI     -0.208000
      7 C6          5.9850   -1.0010    1.9640 c3        1 BNI     -0.301000
      8 C4          4.1180    0.4790    2.7240 c3        1 BNI     -0.004000
      9 C5          5.7270    0.1710    2.8120 c3        1 BNI     -0.019000
     10 C3          4.6330   -0.6450    4.6680 c1        1 BNI      0.347000
     11 O2         -2.5270    0.1290   -0.4520 o         1 BNI     -0.330000
     12 O3          4.4450   -0.9900    5.8170 o         1 BNI     -0.335000
     13 N1          5.9800   -0.1430    4.0710 n2        1 BNI     -0.314000
     14 N2          3.5330   -0.2850    3.6260 n3        1 BNI     -0.353000
     15 S1          4.7340   -0.9620    0.8030 ss        1 BNI      0.083000
     16 N17        -2.6800   -0.0080   -2.7700 n3        1 BNI     -0.327000
     17 C18        -4.0710    0.2690   -2.7660 c2        1 BNI      0.129000
     18 C20        -4.9800   -0.7640   -2.6330 c2        1 BNI     -0.176000
     19 C21        -6.3430   -0.4970   -2.6680 c1        1 BNI     -0.036000
     20 C22        -6.7900    0.8060   -2.8370 c1        1 BNI     -0.171000
     21 C23        -5.8740    1.8430   -2.9710 c1        1 BNI     -0.036000
     22 C24        -4.5210    1.5780   -2.9360 c1        1 BNI     -0.206000
     23 N25        -8.1910    1.0690   -2.9650 no        1 BNI      0.574000
     24 O26        -8.5890    2.2170   -3.0580 o         1 BNI     -0.364500
     25 O27        -9.0920    0.0320   -2.9220 o         1 BNI     -0.364500
     26 H101        0.0380    0.3020   -2.0490 ha        1 BNI      0.119000
     27 H102       -0.2760   -1.2500   -1.9090 ha        1 BNI      0.119000
     28 H91        -0.1450    0.4870    0.3620 hc        1 BNI      0.089500
     29 H92        -0.2680   -1.1050    0.4350 hc        1 BNI      0.089500
     30 H81         1.9190   -1.3180   -0.5070 hc        1 BNI      0.091500
     31 H82         2.0430    0.2790   -0.6030 hc        1 BNI      0.091500
     32 H71         1.6180    0.1530    1.9060 hc        1 BNI      0.100000
     33 H72         2.2130   -1.3220    1.7190 hc        1 BNI      0.100000
     34 H21A        3.7280    0.9520    0.7890 h1        1 BNI      0.113000
     35 H61         6.8340   -0.8300    1.4800 h1        1 BNI      0.121500
     36 H62         5.8340   -1.7990    2.5230 h1        1 BNI      0.121500
     37 HC4         3.9490    1.4100    2.9190 h1        1 BNI      0.100000
     38 HC5         6.2580    0.9500    2.5210 h1        1 BNI      0.125000
     39 HN11        6.8040   -0.2530    4.4420 hn        1 BNI      0.223000
     40 HN21        2.6260   -0.4050    3.7290 hn        1 BNI      0.237000
     41 H171       -2.2550   -0.1980   -3.5560 hn        1 BNI      0.234000
     42 H20        -4.6640   -1.6850   -2.5130 ha        1 BNI      0.188000
     43 H21        -6.9840   -1.2230   -2.5740 ha        1 BNI      0.173000
     44 H23        -6.1900    2.7650   -3.0910 ha        1 BNI      0.170000
     45 H24        -3.8730    2.3120   -3.0320 ha        1 BNI      0.142000
@<TRIPOS>BOND
     1    1   11 1   
     2    1   16 1   
     3    2    3 1   
     4    2   26 1   
     5    2   27 1   
     6    3    4 1   
     7    3   28 1   
     8    3   29 1   
     9    4    5 1   
    10    4   30 1   
    11    4   31 1   
    12    5    6 1   
    13    5   32 1   
    14    5   33 1   
    15    6    8 1   
    16    6   15 1   
    17    6   34 1   
    18    7    9 1   
    19    7   15 1   
    20    7   35 1   
    21    7   36 1   
    22    8    9 1   
    23    8   14 1   
    24    8   37 1   
    25    9   13 1   
    26    9   38 1   
    27   10   12 1   
    28   10   14 1   
    29   13   39 1   
    30   14   40 1   
    31   16   17 1   
    32   16   41 1   
    33   17   18 1   
    34   17   22 1   
    35   18   19 1   
    36   18   42 1   
    37   19   43 1   
    38   20   21 1   
    39   20   23 1   
    40   21   44 1   
    41   22   45 1   
    42   23   24 1   
    43   23   25 1   
@<TRIPOS>SUBSTRUCTURE
     1 BNI         1 TEMP              0 ****  ****    0 ROOT
