@<TRIPOS>MOLECULE
BNI
   45    47     1     0     0
SMALL
bcc


@<TRIPOS>ATOM
      1 C1         -0.1640    0.1830    0.4180 c         1 BNI      0.668100
      2 C10         1.3410   -0.0140    0.3290 c3        1 BNI     -0.152400
      3 C9          1.9740    0.0630    1.7020 c3        1 BNI     -0.075400
      4 C8          3.4770   -0.0800    1.6080 c3        1 BNI     -0.082400
      5 C7          4.1080   -0.0380    2.9860 c3        1 BNI     -0.071400
      6 C2          5.6060   -0.2190    2.9050 c3        1 BNI     -0.009600
      7 C6          7.5660   -1.9540    3.1710 c3        1 BNI     -0.043300
      8 C4          6.3740    0.0590    4.1990 c3        1 BNI      0.062700
      9 C5          7.5920   -0.9620    4.3270 c3        1 BNI      0.058700
     10 C3          6.2280   -1.1090    6.2350 c         1 BNI      0.750500
     11 O2         -0.7280    0.4860    1.4810 o         1 BNI     -0.570100
     12 O3          5.7620   -1.5310    7.3060 o         1 BNI     -0.612500
     13 N1          7.4700   -1.5290    5.6660 ns        1 BNI     -0.513900
     14 N2          5.6570   -0.0550    5.4620 ns        1 BNI     -0.519900
     15 S1          5.9880   -1.8830    2.3830 ss        1 BNI     -0.295200
     16 N17        -0.8580    0.0080   -0.7810 ns        1 BNI     -0.476100
     17 C18        -2.2320    0.1290   -1.0000 ca        1 BNI      0.121600
     18 C20        -3.1560    0.4670    0.0160 ca        1 BNI     -0.191000
     19 C21        -4.5110    0.5730   -0.2680 ca        1 BNI     -0.036000
     20 C22        -4.9770    0.3450   -1.5720 ca        1 BNI     -0.215200
     21 C23        -4.0770    0.0080   -2.5960 ca        1 BNI     -0.036000
     22 C24        -2.7250   -0.0990   -2.3140 ca        1 BNI     -0.191000
     23 N25        -6.4230    0.4600   -1.8720 no        1 BNI      0.319200
     24 O26        -6.8030    0.2600   -2.9960 o         1 BNI     -0.213500
     25 O27        -7.1830    0.7500   -0.9860 o         1 BNI     -0.213500
     26 H101        1.5670   -1.0100   -0.1360 hc        1 BNI      0.069700
     27 H102        1.7700    0.7840   -0.3350 hc        1 BNI      0.069700
     28 H91         1.7070    1.0420    2.1830 hc        1 BNI      0.064700
     29 H92         1.5490   -0.7450    2.3540 hc        1 BNI      0.064700
     30 H81         3.7390   -1.0510    1.1070 hc        1 BNI      0.049700
     31 H82         3.8970    0.7460    0.9750 hc        1 BNI      0.049700
     32 H71         3.6510   -0.8450    3.6210 hc        1 BNI      0.059700
     33 H72         3.8780    0.9500    3.4680 hc        1 BNI      0.059700
     34 H21A        6.0070    0.4800    2.1230 h1        1 BNI      0.081700
     35 H61         8.3680   -1.6940    2.4390 h1        1 BNI      0.083200
     36 H62         7.7420   -3.0080    3.4970 h1        1 BNI      0.083200
     37 HC4         6.7850    1.1090    4.1520 h1        1 BNI      0.087700
     38 HC5         8.5580   -0.3810    4.3010 h1        1 BNI      0.089700
     39 HN11        7.7010   -2.4890    5.7850 hn        1 BNI      0.313500
     40 HN21        4.6650   -0.0010    5.4500 hn        1 BNI      0.317500
     41 H171       -0.3160   -0.2380   -1.5800 hn        1 BNI      0.320500
     42 H20        -2.8160    0.6510    1.0500 ha        1 BNI      0.164500
     43 H21        -5.2200    0.8380    0.5370 ha        1 BNI      0.171500
     44 H23        -4.4450   -0.1720   -3.6210 ha        1 BNI      0.171500
     45 H24        -2.0350   -0.3640   -3.1300 ha        1 BNI      0.164500
@<TRIPOS>BOND
     1    1    2 1   
     2    1   11 2   
     3    1   16 1   
     4    2    3 1   
     5    2   26 1   
     6    2   27 1   
     7    3    4 1   
     8    3   28 1   
     9    3   29 1   
    10    4    5 1   
    11    4   30 1   
    12    4   31 1   
    13    5    6 1   
    14    5   32 1   
    15    5   33 1   
    16    6    8 1   
    17    6   15 1   
    18    6   34 1   
    19    7    9 1   
    20    7   15 1   
    21    7   35 1   
    22    7   36 1   
    23    8    9 1   
    24    8   14 1   
    25    8   37 1   
    26    9   13 1   
    27    9   38 1   
    28   10   12 2   
    29   10   13 1   
    30   10   14 1   
    31   13   39 1   
    32   14   40 1   
    33   16   17 1   
    34   16   41 1   
    35   17   18 ar  
    36   17   22 ar  
    37   18   19 ar  
    38   18   42 1   
    39   19   20 ar  
    40   19   43 1   
    41   20   21 ar  
    42   20   23 1   
    43   21   22 ar  
    44   21   44 1   
    45   22   45 1   
    46   23   24 1   
    47   23   25 1   
@<TRIPOS>SUBSTRUCTURE
     1 BNI         1 TEMP              0 ****  ****    0 ROOT
