@<TRIPOS>MOLECULE
BNJ
   38    40     1     0     0
SMALL
bcc


@<TRIPOS>ATOM
      1 CAK         0.6060    1.0330    1.2710 c3        1 BNJ     -0.096400
      2 CAI         2.0260    0.7620    1.7460 c3        1 BNJ     -0.081900
      3 CAJ         2.1910   -0.7460    1.8820 c3        1 BNJ     -0.081900
      4 CAL         0.8490   -1.3930    1.5660 c3        1 BNJ     -0.096400
      5 CAT        -0.1850   -0.2500    1.5910 c3        1 BNJ      0.116500
      6 NAM        -1.3510   -0.4770    0.6920 n4        1 BNJ     -0.702900
      7 SAU        -2.8930    0.5280    1.1790 sy        1 BNJ      1.480200
      8 OAB        -3.6440   -0.4660    1.7760 o         1 BNJ     -0.568800
      9 OAC        -2.3740    1.5770    1.9100 o         1 BNJ     -0.568800
     10 CAQ        -3.3640    0.9160   -0.3110 ca        1 BNJ     -0.528500
     11 CAH        -4.2430    0.0800   -1.0310 ca        1 BNJ      0.008000
     12 CAF        -2.9820    2.1400   -0.8990 ca        1 BNJ      0.005000
     13 CAD        -3.4540    2.5080   -2.1520 ca        1 BNJ     -0.139000
     14 CAE        -4.3210    1.6670   -2.8520 ca        1 BNJ     -0.002000
     15 CAP        -4.7210    0.4410   -2.2920 ca        1 BNJ     -0.033800
     16 CAR        -5.6430   -0.4470   -2.9890 cc        1 BNJ      0.000400
     17 CAG        -6.6150   -1.2100   -2.3860 cd        1 BNJ     -0.171400
     18 SAO        -7.5110   -2.1080   -3.4890 ss        1 BNJ      0.022800
     19 CAS        -6.5820   -1.4920   -4.8690 c         1 BNJ      0.672100
     20 OAA        -6.7040   -1.7580   -6.0670 o         1 BNJ     -0.545500
     21 NAN        -5.6140   -0.5940   -4.3830 n         1 BNJ     -0.474100
     22 H1          0.1520    1.9100    1.8010 hc        1 BNJ      0.067700
     23 H2          0.6060    1.2510    0.1730 hc        1 BNJ      0.067700
     24 H3          2.2060    1.2640    2.7320 hc        1 BNJ      0.071950
     25 H4          2.7660    1.1830    1.0200 hc        1 BNJ      0.071950
     26 H5          2.5160   -1.0110    2.9200 hc        1 BNJ      0.071950
     27 H6          2.9770   -1.1270    1.1820 hc        1 BNJ      0.071950
     28 H7          0.8860   -1.8860    0.5610 hc        1 BNJ      0.067700
     29 H8          0.5850   -2.1740    2.3220 hc        1 BNJ      0.067700
     30 H9         -0.6090   -0.1660    2.6380 hx        1 BNJ      0.107700
     31 H10        -1.5830   -1.4710    0.7370 hn        1 BNJ      0.447300
     32 H11        -4.5790   -0.8740   -0.5790 ha        1 BNJ      0.172000
     33 H12        -2.3150    2.8250   -0.3420 ha        1 BNJ      0.170000
     34 H13        -3.1530    3.4750   -2.5920 ha        1 BNJ      0.178000
     35 H14        -4.7060    1.9810   -3.8390 ha        1 BNJ      0.174000
     36 H15        -6.8230   -1.2300   -1.3160 h4        1 BNJ      0.186000
     37 H16        -4.9600   -0.1330   -4.9660 hn        1 BNJ      0.346500
     38 HAM2       -1.0670   -0.2790   -0.2650 hn        1 BNJ      0.447300
@<TRIPOS>BOND
     1    1    2 1   
     2    1    5 1   
     3    1   22 1   
     4    1   23 1   
     5    2    3 1   
     6    2   24 1   
     7    2   25 1   
     8    3    4 1   
     9    3   26 1   
    10    3   27 1   
    11    4    5 1   
    12    4   28 1   
    13    4   29 1   
    14    5    6 1   
    15    5   30 1   
    16    6    7 1   
    17    6   31 1   
    18    6   38 1   
    19    7    8 2   
    20    7    9 2   
    21    7   10 1   
    22   10   11 ar  
    23   10   12 ar  
    24   11   15 ar  
    25   11   32 1   
    26   12   13 ar  
    27   12   33 1   
    28   13   14 ar  
    29   13   34 1   
    30   14   15 ar  
    31   14   35 1   
    32   15   16 1   
    33   16   17 2   
    34   16   21 1   
    35   17   18 1   
    36   17   36 1   
    37   18   19 1   
    38   19   20 2   
    39   19   21 1   
    40   21   37 1   
@<TRIPOS>SUBSTRUCTURE
     1 BNJ         1 TEMP              0 ****  ****    0 ROOT
