@<TRIPOS>MOLECULE
BNJ
   38    40     1     0     0
SMALL
bcc


@<TRIPOS>ATOM
      1 CAK         0.6310    1.0440    1.2200 c3        1 BNJ     -0.096400
      2 CAI         2.0690    0.7900    1.6490 c3        1 BNJ     -0.081900
      3 CAJ         2.2660   -0.7170    1.7420 c3        1 BNJ     -0.081900
      4 CAL         0.9290   -1.3830    1.4470 c3        1 BNJ     -0.096400
      5 CAT        -0.1260   -0.2620    1.5280 c3        1 BNJ      0.116500
      6 NAM        -1.3120   -0.4900    0.6560 ny        1 BNJ     -0.702900
      7 SAU        -2.8590    0.4720    1.2090 sy        1 BNJ      1.480200
      8 OAB        -3.5750   -0.5520    1.7990 o         1 BNJ     -0.568800
      9 OAC        -2.3410    1.5110    1.9530 o         1 BNJ     -0.568800
     10 CAQ        -3.3760    0.8880   -0.2580 ca        1 BNJ     -0.528500
     11 CAH        -4.2580    0.0540   -0.9760 ca        1 BNJ      0.008000
     12 CAF        -3.0320    2.1340   -0.8240 ca        1 BNJ      0.005000
     13 CAD        -3.5440    2.5240   -2.0540 ca        1 BNJ     -0.139000
     14 CAE        -4.4140    1.6850   -2.7530 ca        1 BNJ     -0.002000
     15 CAP        -4.7760    0.4380   -2.2150 ca        1 BNJ     -0.033800
     16 CAR        -5.6990   -0.4500   -2.9100 cc        1 BNJ      0.000400
     17 CAG        -6.6410   -1.2470   -2.3020 cd        1 BNJ     -0.171400
     18 SAO        -7.5490   -2.1340   -3.4050 ss        1 BNJ      0.022800
     19 CAS        -6.6680   -1.4640   -4.7910 c         1 BNJ      0.672100
     20 OAA        -6.8170   -1.7020   -5.9930 o         1 BNJ     -0.545500
     21 NAN        -5.7040   -0.5600   -4.3080 ns        1 BNJ     -0.474100
     22 H1          0.1750    1.8980    1.7830 hc        1 BNJ      0.067700
     23 H2          0.5960    1.2890    0.1280 hc        1 BNJ      0.067700
     24 H3          2.7800    1.2440    0.9140 hc        1 BNJ      0.071950
     25 H4          2.2660    1.2710    2.6420 hc        1 BNJ      0.071950
     26 H5          2.6250   -1.0010    2.7640 hc        1 BNJ      0.071950
     27 H6          3.0400   -1.0650    1.0120 hc        1 BNJ      0.071950
     28 H7          0.7010   -2.1870    2.1900 hc        1 BNJ      0.067700
     29 H8          0.9480   -1.8510    0.4290 hc        1 BNJ      0.067700
     30 H9         -0.5230   -0.2120    2.5880 hx        1 BNJ      0.107700
     31 H10        -1.0580   -0.2640   -0.3040 hn        1 BNJ      0.447300
     32 H11        -4.5640   -0.9170   -0.5410 ha        1 BNJ      0.172000
     33 H12        -2.3640    2.8180   -0.2670 ha        1 BNJ      0.170000
     34 H13        -3.2730    3.5080   -2.4760 ha        1 BNJ      0.178000
     35 H14        -4.8300    2.0170   -3.7210 ha        1 BNJ      0.174000
     36 H15        -6.8190   -1.2980   -1.2280 h4        1 BNJ      0.186000
     37 H16        -5.0750   -0.0720   -4.8960 hn        1 BNJ      0.346500
     38 HAM2       -1.5230   -1.4900    0.6820 hn        1 BNJ      0.447300
@<TRIPOS>BOND
     1    1    2 1   
     2    1    5 1   
     3    1   22 1   
     4    1   23 1   
     5    2    3 1   
     6    2   24 1   
     7    2   25 1   
     8    3    4 1   
     9    3   26 1   
    10    3   27 1   
    11    4    5 1   
    12    4   28 1   
    13    4   29 1   
    14    5    6 1   
    15    5   30 1   
    16    6    7 1   
    17    6   31 1   
    18    6   38 1   
    19    7    8 2   
    20    7    9 2   
    21    7   10 1   
    22   10   11 ar  
    23   10   12 ar  
    24   11   15 ar  
    25   11   32 1   
    26   12   13 ar  
    27   12   33 1   
    28   13   14 ar  
    29   13   34 1   
    30   14   15 ar  
    31   14   35 1   
    32   15   16 1   
    33   16   17 2   
    34   16   21 1   
    35   17   18 1   
    36   17   36 1   
    37   18   19 1   
    38   19   20 2   
    39   19   21 1   
    40   21   37 1   
@<TRIPOS>SUBSTRUCTURE
     1 BNJ         1 TEMP              0 ****  ****    0 ROOT
