@<TRIPOS>MOLECULE
BNK
   38    40     1     0     0
SMALL
bcc


@<TRIPOS>ATOM
      1 CAK         0.0610    0.7660    0.2200 c3        1 BNK     -0.105400
      2 CAI         1.3420    1.4270    0.7090 c3        1 BNK     -0.092400
      3 CAJ         2.3000    0.3150    1.1190 c3        1 BNK     -0.092400
      4 CAL         1.5780   -1.0090    0.9120 c3        1 BNK     -0.105400
      5 CAU         0.0810   -0.6780    0.7590 c3        1 BNK      0.113500
      6 NAM        -0.6710   -0.8070    2.0490 ny        1 BNK     -0.710900
      7 SAV        -2.5320   -0.8490    1.8110 sy        1 BNK      1.469200
      8 OAB        -2.8510    0.4910    1.7770 o         1 BNK     -0.563800
      9 OAC        -2.6960   -1.6350    0.6830 o         1 BNK     -0.563800
     10 CAS        -2.9030   -1.6420    3.1860 ca        1 BNK     -0.502500
     11 CAH        -3.4930   -2.9190    3.0470 ca        1 BNK      0.004000
     12 CAP        -2.7690   -1.1370    4.4980 ca        1 BNK      0.127400
     13 Cl         -2.0040    0.3530    4.7610 cl        1 BNK     -0.038400
     14 CAE        -3.2450   -1.8440    5.6020 ca        1 BNK     -0.130000
     15 CAF        -3.8470   -3.0890    5.4290 ca        1 BNK     -0.004000
     16 CAQ        -3.9630   -3.6440    4.1430 ca        1 BNK     -0.026800
     17 CAR        -4.5820   -4.9460    3.9300 cc        1 BNK     -0.000600
     18 CAG        -5.3450   -5.2920    2.8380 cd        1 BNK     -0.168400
     19 SAO        -5.9190   -6.8680    2.9210 ss        1 BNK      0.026800
     20 CAT        -5.1230   -7.1620    4.4790 c         1 BNK      0.672100
     21 OAA        -5.1130   -8.1890    5.1630 o         1 BNK     -0.543500
     22 NAN        -4.4550   -5.9850    4.8630 ns        1 BNK     -0.474100
     23 H1         -0.8470    1.3430    0.5280 hc        1 BNK      0.082200
     24 H2          0.0550    0.7080   -0.9010 hc        1 BNK      0.082200
     25 H3          1.1300    2.1030    1.5750 hc        1 BNK      0.069200
     26 H4          1.7850    2.0610   -0.1010 hc        1 BNK      0.069200
     27 H5          3.2350    0.3470    0.5030 hc        1 BNK      0.069200
     28 H6          2.6080    0.4360    2.1880 hc        1 BNK      0.069200
     29 H7          1.7860   -1.7280    1.7420 hc        1 BNK      0.082200
     30 H8          1.9190   -1.4940   -0.0400 hc        1 BNK      0.082200
     31 H9         -0.4090   -1.3940    0.0340 hx        1 BNK      0.119700
     32 H10        -0.4110   -0.0110    2.6350 hn        1 BNK      0.451300
     33 H11        -3.5960   -3.3600    2.0330 ha        1 BNK      0.186000
     34 H12        -3.1520   -1.4160    6.6160 ha        1 BNK      0.188000
     35 H13        -4.2400   -3.6270    6.3110 ha        1 BNK      0.178000
     36 H14        -5.5850   -4.6300    2.0060 h4        1 BNK      0.186000
     37 H15        -3.9040   -5.9170    5.6820 hn        1 BNK      0.346500
     38 HAM2       -0.3430   -1.6470    2.5220 hn        1 BNK      0.451300
@<TRIPOS>BOND
     1    1    2 1   
     2    1    5 1   
     3    1   23 1   
     4    1   24 1   
     5    2    3 1   
     6    2   25 1   
     7    2   26 1   
     8    3    4 1   
     9    3   27 1   
    10    3   28 1   
    11    4    5 1   
    12    4   29 1   
    13    4   30 1   
    14    5    6 1   
    15    5   31 1   
    16    6    7 1   
    17    6   32 1   
    18    6   38 1   
    19    7    8 2   
    20    7    9 2   
    21    7   10 1   
    22   10   11 ar  
    23   10   12 ar  
    24   11   16 ar  
    25   11   33 1   
    26   12   13 1   
    27   12   14 ar  
    28   14   15 ar  
    29   14   34 1   
    30   15   16 ar  
    31   15   35 1   
    32   16   17 1   
    33   17   18 2   
    34   17   22 1   
    35   18   19 1   
    36   18   36 1   
    37   19   20 1   
    38   20   21 2   
    39   20   22 1   
    40   22   37 1   
@<TRIPOS>SUBSTRUCTURE
     1 BNK         1 TEMP              0 ****  ****    0 ROOT
