@<TRIPOS>MOLECULE
BNK
   38    40     1     0     0
SMALL
bcc


@<TRIPOS>ATOM
      1 CAK         0.1560    0.7170    0.2380 c3        1 BNK     -0.105400
      2 CAI         1.4270    1.3730    0.7560 c3        1 BNK     -0.092400
      3 CAJ         2.3630    0.2600    1.2100 c3        1 BNK     -0.092400
      4 CAL         1.6350   -1.0610    1.0010 c3        1 BNK     -0.105400
      5 CAU         0.1470   -0.7200    0.7970 c3        1 BNK      0.113500
      6 NAM        -0.6450   -0.8240    2.0660 n4        1 BNK     -0.710900
      7 SAV        -2.4980   -0.8540    1.7720 sy        1 BNK      1.469200
      8 OAB        -2.8040    0.4890    1.7100 o         1 BNK     -0.563800
      9 OAC        -2.6350   -1.6540    0.6510 o         1 BNK     -0.563800
     10 CAS        -2.9180   -1.6230    3.1460 ca        1 BNK     -0.502500
     11 CAH        -3.5140   -2.8970    3.0080 ca        1 BNK      0.004000
     12 CAP        -2.8200   -1.1000    4.4550 ca        1 BNK      0.127400
     13 CL         -2.0490    0.3860    4.7190 cl        1 BNK     -0.038400
     14 CAE        -3.3350   -1.7870    5.5530 ca        1 BNK     -0.130000
     15 CAF        -3.9420   -3.0300    5.3800 ca        1 BNK     -0.004000
     16 CAQ        -4.0240   -3.6020    4.0990 ca        1 BNK     -0.026800
     17 CAR        -4.6480   -4.9010    3.8860 cc        1 BNK     -0.000600
     18 CAG        -5.3800   -5.2570    2.7760 cd        1 BNK     -0.168400
     19 SAO        -5.9710   -6.8270    2.8640 ss        1 BNK      0.026800
     20 CAT        -5.2250   -7.1050    4.4500 c         1 BNK      0.672100
     21 OAA        -5.2450   -8.1210    5.1490 o         1 BNK     -0.543500
     22 NAN        -4.5590   -5.9280    4.8370 n         1 BNK     -0.474100
     23 H1          0.1830    0.6420   -0.8820 hc        1 BNK      0.082200
     24 H2         -0.7560    1.3060    0.5110 hc        1 BNK      0.082200
     25 H3          1.9010    1.9910   -0.0490 hc        1 BNK      0.069200
     26 H4          1.1950    2.0640    1.6060 hc        1 BNK      0.069200
     27 H5          2.6390    0.3930    2.2870 hc        1 BNK      0.069200
     28 H6          3.3160    0.2750    0.6230 hc        1 BNK      0.069200
     29 H7          1.8120   -1.7690    1.8470 hc        1 BNK      0.082200
     30 H8          2.0000   -1.5630    0.0660 hc        1 BNK      0.082200
     31 H9         -0.3280   -1.4420    0.0680 hx        1 BNK      0.119700
     32 H10        -0.3960   -0.0210    2.6480 hn        1 BNK      0.451300
     33 H11        -3.5910   -3.3510    1.9980 ha        1 BNK      0.186000
     34 H12        -3.2690   -1.3450    6.5640 ha        1 BNK      0.188000
     35 H13        -4.3660   -3.5510    6.2570 ha        1 BNK      0.178000
     36 H14        -5.5890   -4.6050    1.9280 h4        1 BNK      0.186000
     37 H15        -4.0320   -5.8530    5.6720 hn        1 BNK      0.346500
     38 HAM2       -0.3390   -1.6600    2.5610 hn        1 BNK      0.451300
@<TRIPOS>BOND
     1    1    2 1   
     2    1    5 1   
     3    1   23 1   
     4    1   24 1   
     5    2    3 1   
     6    2   25 1   
     7    2   26 1   
     8    3    4 1   
     9    3   27 1   
    10    3   28 1   
    11    4    5 1   
    12    4   29 1   
    13    4   30 1   
    14    5    6 1   
    15    5   31 1   
    16    6    7 1   
    17    6   32 1   
    18    6   38 1   
    19    7    8 2   
    20    7    9 2   
    21    7   10 1   
    22   10   11 ar  
    23   10   12 ar  
    24   11   16 ar  
    25   11   33 1   
    26   12   13 1   
    27   12   14 ar  
    28   14   15 ar  
    29   14   34 1   
    30   15   16 ar  
    31   15   35 1   
    32   16   17 1   
    33   17   18 2   
    34   17   22 1   
    35   18   19 1   
    36   18   36 1   
    37   19   20 1   
    38   20   21 2   
    39   20   22 1   
    40   22   37 1   
@<TRIPOS>SUBSTRUCTURE
     1 BNK         1 TEMP              0 ****  ****    0 ROOT
