@<TRIPOS>MOLECULE
BNL
   22    23     1     0     0
SMALL
bcc


@<TRIPOS>ATOM
      1 C1          1.4040    1.1330    0.5340 ca        1 BNL     -0.119000
      2 C2          0.7290    0.0000    0.0570 cp        1 BNL     -0.037000
      3 C3          1.4700   -1.1330   -0.3100 ca        1 BNL     -0.119000
      4 C4          2.8590   -1.1290   -0.2020 ca        1 BNL     -0.131000
      5 C5          3.5230    0.0000    0.2750 ca        1 BNL     -0.128000
      6 C6          2.7930    1.1300    0.6430 ca        1 BNL     -0.131000
      7 C12        -2.7930    1.1320   -0.6370 ca        1 BNL     -0.131000
      8 C13        -3.5230   -0.0000   -0.2760 ca        1 BNL     -0.128000
      9 C14        -2.8580   -1.1330    0.1940 ca        1 BNL     -0.131000
     10 C15        -1.4690   -1.1350    0.3020 ca        1 BNL     -0.119000
     11 C16        -0.7290   -0.0000   -0.0570 cp        1 BNL     -0.037000
     12 C17        -1.4050    1.1350   -0.5280 ca        1 BNL     -0.119000
     13 H1          0.8310    2.0240    0.8310 ha        1 BNL      0.135000
     14 H3          0.9500   -2.0240   -0.6920 ha        1 BNL      0.135000
     15 H4          3.4320   -2.0210   -0.4950 ha        1 BNL      0.132000
     16 H5          4.6200    0.0000    0.3610 ha        1 BNL      0.131000
     17 H6          3.3130    2.0220    1.0220 ha        1 BNL      0.132000
     18 H13        -4.6200   -0.0000   -0.3620 ha        1 BNL      0.131000
     19 H14        -3.4310   -2.0270    0.4810 ha        1 BNL      0.132000
     20 H15        -0.9490   -2.0290    0.6780 ha        1 BNL      0.135000
     21 H17        -0.8320    2.0290   -0.8180 ha        1 BNL      0.135000
     22 H12        -3.3140    2.0260   -1.0100 ha        1 BNL      0.132000
@<TRIPOS>BOND
     1    1    2 ar  
     2    1    6 ar  
     3    1   13 1   
     4    2    3 ar  
     5    2   11 1   
     6    3    4 ar  
     7    3   14 1   
     8    4    5 ar  
     9    4   15 1   
    10    5    6 ar  
    11    5   16 1   
    12    6   17 1   
    13    7    8 ar  
    14    7   12 ar  
    15    7   22 1   
    16    8    9 ar  
    17    8   18 1   
    18    9   10 ar  
    19    9   19 1   
    20   10   11 ar  
    21   10   20 1   
    22   11   12 ar  
    23   12   21 1   
@<TRIPOS>SUBSTRUCTURE
     1 BNL         1 TEMP              0 ****  ****    0 ROOT
