@<TRIPOS>MOLECULE
BNL
   22    16     1     0     0
SMALL
bcc


@<TRIPOS>ATOM
      1 C1         -1.7410    0.0650    0.6230 c1        1 BNL     -0.127250
      2 C2         -0.3570   -0.0150    0.5940 c1        1 BNL     -0.037000
      3 C3          0.3580   -0.0710    1.7800 c1        1 BNL     -0.119000
      4 C4         -0.3100   -0.0470    2.9940 c1        1 BNL     -0.127250
      5 C5         -1.6930    0.0330    3.0230 c1        1 BNL     -0.127250
      6 C6         -2.4090    0.0890    1.8370 c1        1 BNL     -0.127250
      7 C12         1.4170    1.1870   -2.3810 c1        1 BNL     -0.127250
      8 C13         1.7260   -0.0120   -3.0040 c1        1 BNL     -0.127250
      9 C14         1.3280   -1.2120   -2.4350 c1        1 BNL     -0.127250
     10 C15         0.6210   -1.2120   -1.2420 c1        1 BNL     -0.127250
     11 C16         0.3120   -0.0130   -0.6190 c1        1 BNL     -0.037000
     12 C17         0.7110    1.1870   -1.1890 c1        1 BNL     -0.119000
     13 H1         -2.2440    0.1050   -0.2120 ha        1 BNL      0.132500
     14 H3          1.3320   -0.1270    1.7600 ha        1 BNL      0.135000
     15 H4          0.1940   -0.0870    3.8290 ha        1 BNL      0.132500
     16 H5         -2.1640    0.0490    3.8780 ha        1 BNL      0.132500
     17 H6         -3.3830    0.1450    1.8570 ha        1 BNL      0.132500
     18 H12         1.6980    2.0310   -2.7820 ha        1 BNL      0.132500
     19 H13         2.2240   -0.0120   -3.8440 ha        1 BNL      0.132500
     20 H14         1.5450   -2.0560   -2.8730 ha        1 BNL      0.132500
     21 H15         0.3410   -2.0570   -0.8410 ha        1 BNL      0.132500
     22 H17         0.4930    2.0310   -0.7500 ha        1 BNL      0.135000
@<TRIPOS>BOND
     1    1    6 1   
     2    1   13 1   
     3    2    3 1   
     4    3   14 1   
     5    4    5 1   
     6    4   15 1   
     7    5   16 1   
     8    6   17 1   
     9    7    8 1   
    10    7   18 1   
    11    8   19 1   
    12    9   10 1   
    13    9   20 1   
    14   10   21 1   
    15   11   12 1   
    16   12   22 1   
@<TRIPOS>SUBSTRUCTURE
     1 BNL         1 TEMP              0 ****  ****    0 ROOT
