@<TRIPOS>MOLECULE
BNM
   49    52     1     0     0
SMALL
bcc


@<TRIPOS>ATOM
      1 O01         0.0080   -1.2410   -0.2110 o         1 BNM     -0.580100
      2 C02         0.8890   -0.3960   -0.4460 c         1 BNM      0.711100
      3 N03         1.3950    0.4130    0.5860 n         1 BNM     -0.484100
      4 C04         0.9710    0.4040    1.9140 ca        1 BNM      0.090600
      5 C05        -0.2940   -0.1090    2.3070 ca        1 BNM     -0.041000
      6 C06        -0.6840   -0.0950    3.6490 ca        1 BNM     -0.010800
      7 C07        -1.9840   -0.6190    4.0570 cc        1 BNM      0.006400
      8 C08        -2.7620   -0.1010    5.0660 cd        1 BNM     -0.175400
      9 S09        -4.2030   -0.9450    5.2680 ss        1 BNM      0.007800
     10 C10        -3.8140   -2.0810    3.9610 c         1 BNM      0.674100
     11 O11        -4.4780   -3.0350    3.5440 o         1 BNM     -0.547500
     12 N12        -2.5590   -1.7330    3.4320 n         1 BNM     -0.470100
     13 C13         0.1670    0.4440    4.6200 ca        1 BNM     -0.023000
     14 C14         1.4200    0.9670    4.2630 ca        1 BNM     -0.491500
     15 S15         2.3710    1.6520    5.3720 sy        1 BNM      1.479200
     16 O16         3.4060    2.4050    4.8510 o         1 BNM     -0.572800
     17 O17         1.7250    2.0180    6.5370 o         1 BNM     -0.572800
     18 N18         3.2440    0.0620    5.9200 n4        1 BNM     -0.703900
     19 C19         4.5660    0.3100    6.5750 c3        1 BNM      0.113500
     20 C20         4.4090    0.7870    8.0330 c3        1 BNM     -0.104900
     21 C21         4.5290   -0.4520    8.9080 c3        1 BNM     -0.092400
     22 C22         5.1890   -1.5400    8.0700 c3        1 BNM     -0.092400
     23 C23         5.4250   -0.9640    6.6810 c3        1 BNM     -0.104900
     24 C24         1.8110    0.9380    2.9120 ca        1 BNM     -0.086000
     25 C25         1.4740   -0.1830   -1.8010 cx        1 BNM     -0.248700
     26 C26         0.5690   -0.4170   -2.9930 cx        1 BNM     -0.086400
     27 C27         1.6500   -1.3990   -2.6850 cx        1 BNM     -0.086400
     28 H1          2.1520    1.0220    0.3660 hn        1 BNM      0.332500
     29 H2         -0.9860   -0.5090    1.5390 ha        1 BNM      0.204000
     30 H3         -2.5120    0.7730    5.6660 h4        1 BNM      0.185000
     31 H4         -0.1650    0.4770    5.6740 ha        1 BNM      0.169000
     32 H5          2.6580   -0.4410    6.5860 hn        1 BNM      0.446800
     33 H6          5.0900    1.0880    5.9450 hx        1 BNM      0.116700
     34 H7          5.2490    1.5000    8.2470 hc        1 BNM      0.080700
     35 H8          3.4510    1.3350    8.2200 hc        1 BNM      0.080700
     36 H9          3.5190   -0.7840    9.2600 hc        1 BNM      0.068450
     37 H10         5.1360   -0.2250    9.8210 hc        1 BNM      0.068450
     38 H11         4.5350   -2.4460    8.0170 hc        1 BNM      0.068450
     39 H12         6.1590   -1.8620    8.5260 hc        1 BNM      0.068450
     40 H13         5.2010   -1.7120    5.8800 hc        1 BNM      0.080700
     41 H14         6.4990   -0.6630    6.5620 hc        1 BNM      0.080700
     42 H15         2.7910    1.3730    2.6380 ha        1 BNM      0.163000
     43 H16         2.2260    0.6270   -1.8740 hc        1 BNM      0.097700
     44 H17         0.6720    0.2600   -3.8610 hc        1 BNM      0.094450
     45 H18        -0.4820   -0.7070   -2.8050 hc        1 BNM      0.094450
     46 H19         1.3680   -2.3890   -2.2790 hc        1 BNM      0.094450
     47 H20         2.5490   -1.4470   -3.3270 hc        1 BNM      0.094450
     48 H21        -2.1370   -2.2100    2.6710 hn        1 BNM      0.353500
     49 H182        3.3940   -0.5580    5.1250 hn        1 BNM      0.446800
@<TRIPOS>BOND
     1    1    2 2   
     2    2    3 1   
     3    2   25 1   
     4    3    4 1   
     5    3   28 1   
     6    4    5 ar  
     7    4   24 ar  
     8    5    6 ar  
     9    5   29 1   
    10    6    7 1   
    11    6   13 ar  
    12    7    8 2   
    13    7   12 1   
    14    8    9 1   
    15    8   30 1   
    16    9   10 1   
    17   10   11 2   
    18   10   12 1   
    19   12   48 1   
    20   13   14 ar  
    21   13   31 1   
    22   14   15 1   
    23   14   24 ar  
    24   15   16 2   
    25   15   17 2   
    26   15   18 1   
    27   18   19 1   
    28   18   32 1   
    29   18   49 1   
    30   19   20 1   
    31   19   23 1   
    32   19   33 1   
    33   20   21 1   
    34   20   34 1   
    35   20   35 1   
    36   21   22 1   
    37   21   36 1   
    38   21   37 1   
    39   22   23 1   
    40   22   38 1   
    41   22   39 1   
    42   23   40 1   
    43   23   41 1   
    44   24   42 1   
    45   25   26 1   
    46   25   27 1   
    47   25   43 1   
    48   26   27 1   
    49   26   44 1   
    50   26   45 1   
    51   27   46 1   
    52   27   47 1   
@<TRIPOS>SUBSTRUCTURE
     1 BNM         1 TEMP              0 ****  ****    0 ROOT
