@<TRIPOS>MOLECULE
BNM
   49    52     1     0     0
SMALL
bcc


@<TRIPOS>ATOM
      1 O01        -0.0150   -1.2510   -0.1990 o         1 BNM     -0.580100
      2 C02         0.8650   -0.4070   -0.4410 c         1 BNM      0.711100
      3 N03         1.3770    0.4050    0.5860 ns        1 BNM     -0.484100
      4 C04         0.9610    0.3990    1.9170 ca        1 BNM      0.090600
      5 C05        -0.3020   -0.1120    2.3180 ca        1 BNM     -0.041000
      6 C06        -0.6840   -0.0950    3.6620 ca        1 BNM     -0.010800
      7 C07        -1.9820   -0.6170    4.0790 cc        1 BNM      0.006400
      8 C08        -2.7550   -0.0970    5.0900 cd        1 BNM     -0.175400
      9 S09        -4.1950   -0.9400    5.3030 ss        1 BNM      0.007800
     10 C10        -3.8130   -2.0790    3.9960 c         1 BNM      0.674100
     11 O11        -4.4790   -3.0340    3.5870 o         1 BNM     -0.547500
     12 N12        -2.5600   -1.7330    3.4600 ns        1 BNM     -0.470100
     13 C13         0.1720    0.4460    4.6270 ca        1 BNM     -0.023000
     14 C14         1.4230    0.9680    4.2620 ca        1 BNM     -0.491500
     15 S15         2.3800    1.6560    5.3630 sy        1 BNM      1.479200
     16 O16         3.4130    2.4070    4.8350 o         1 BNM     -0.572800
     17 O17         1.7410    2.0260    6.5310 o         1 BNM     -0.572800
     18 N18         3.2560    0.0670    5.9100 ny        1 BNM     -0.703900
     19 C19         4.5820    0.3170    6.5580 c3        1 BNM      0.113500
     20 C20         4.4330    0.7970    8.0150 c3        1 BNM     -0.104900
     21 C21         4.5580   -0.4390    8.8930 c3        1 BNM     -0.092400
     22 C22         5.2130   -1.5290    8.0540 c3        1 BNM     -0.092400
     23 C23         5.4420   -0.9580    6.6620 c3        1 BNM     -0.104900
     24 C24         1.8070    0.9360    2.9080 ca        1 BNM     -0.086000
     25 C25         1.4420   -0.1980   -1.8000 cx        1 BNM     -0.248700
     26 C26         0.5300   -0.4310   -2.9860 cx        1 BNM     -0.086400
     27 C27         1.6110   -1.4160   -2.6830 cx        1 BNM     -0.086400
     28 H1          2.1340    1.0130    0.3600 hn        1 BNM      0.332500
     29 H2         -0.9980   -0.5150    1.5550 ha        1 BNM      0.204000
     30 H3         -2.5010    0.7780    5.6870 h4        1 BNM      0.185000
     31 H4         -0.1540    0.4820    5.6830 ha        1 BNM      0.169000
     32 H5          3.4020   -0.5550    5.1170 hn        1 BNM      0.446800
     33 H6          5.1020    1.0930    5.9230 hx        1 BNM      0.116700
     34 H7          5.2740    1.5100    8.2230 hc        1 BNM      0.080700
     35 H8          3.4770    1.3460    8.2060 hc        1 BNM      0.080700
     36 H9          5.1700   -0.2110    9.8020 hc        1 BNM      0.068450
     37 H10         3.5500   -0.7710    9.2510 hc        1 BNM      0.068450
     38 H11         4.5580   -2.4360    8.0060 hc        1 BNM      0.068450
     39 H12         6.1860   -1.8510    8.5050 hc        1 BNM      0.068450
     40 H13         5.2130   -1.7070    5.8640 hc        1 BNM      0.080700
     41 H14         6.5150   -0.6560    6.5360 hc        1 BNM      0.080700
     42 H15         2.7850    1.3700    2.6270 ha        1 BNM      0.163000
     43 H16         2.1960    0.6100   -1.8790 hc        1 BNM      0.097700
     44 H17        -0.5210   -0.7180   -2.7920 hc        1 BNM      0.094450
     45 H18         0.6300    0.2440   -3.8560 hc        1 BNM      0.094450
     46 H19         2.5050   -1.4670   -3.3300 hc        1 BNM      0.094450
     47 H20         1.3290   -2.4050   -2.2740 hc        1 BNM      0.094450
     48 H21        -2.1430   -2.2120    2.6980 hn        1 BNM      0.353500
     49 H182        2.6740   -0.4340    6.5810 hn        1 BNM      0.446800
@<TRIPOS>BOND
     1    1    2 2   
     2    2    3 1   
     3    2   25 1   
     4    3    4 1   
     5    3   28 1   
     6    4    5 ar  
     7    4   24 ar  
     8    5    6 ar  
     9    5   29 1   
    10    6    7 1   
    11    6   13 ar  
    12    7    8 2   
    13    7   12 1   
    14    8    9 1   
    15    8   30 1   
    16    9   10 1   
    17   10   11 2   
    18   10   12 1   
    19   12   48 1   
    20   13   14 ar  
    21   13   31 1   
    22   14   15 1   
    23   14   24 ar  
    24   15   16 2   
    25   15   17 2   
    26   15   18 1   
    27   18   19 1   
    28   18   32 1   
    29   18   49 1   
    30   19   20 1   
    31   19   23 1   
    32   19   33 1   
    33   20   21 1   
    34   20   34 1   
    35   20   35 1   
    36   21   22 1   
    37   21   36 1   
    38   21   37 1   
    39   22   23 1   
    40   22   38 1   
    41   22   39 1   
    42   23   40 1   
    43   23   41 1   
    44   24   42 1   
    45   25   26 1   
    46   25   27 1   
    47   25   43 1   
    48   26   27 1   
    49   26   44 1   
    50   26   45 1   
    51   27   46 1   
    52   27   47 1   
@<TRIPOS>SUBSTRUCTURE
     1 BNM         1 TEMP              0 ****  ****    0 ROOT
