@<TRIPOS>MOLECULE
BNN
   32    32     1     0     0
SMALL
bcc


@<TRIPOS>ATOM
      1 N          -2.1120    0.9460    0.2040 n         1 BNN     -0.504900
      2 CA         -2.0460   -0.5010    0.1320 c3        1 BNN     -0.063300
      3 C          -3.3990   -1.1770    0.5920 c         1 BNN      0.907600
      4 O          -4.2520   -0.4610    1.1860 o         1 BNN     -0.826300
      5 O1         -1.4300    1.3590   -1.9700 o         1 BNN     -0.659100
      6 CH         -2.4860    3.1670   -0.8030 c3        1 BNN     -0.177100
      7 C11        -1.9900    1.7400   -0.9150 c         1 BNN      0.642100
      8 N16         5.1730   -0.5840   -1.1320 nh        1 BNN     -0.898800
      9 N17         5.3190    0.9200    0.6850 n2        1 BNN     -0.865100
     10 C1          0.4530   -0.7500    0.7150 ca        1 BNN     -0.024300
     11 C2          1.4220   -0.9110    1.7190 ca        1 BNN     -0.137500
     12 C3          2.7630   -0.6370    1.4710 ca        1 BNN     -0.114000
     13 C4          3.1630   -0.1970    0.2060 ca        1 BNN     -0.223900
     14 C5          2.2070   -0.0290   -0.7990 ca        1 BNN     -0.114000
     15 C6          0.8640   -0.3010   -0.5470 ca        1 BNN     -0.137500
     16 C7         -0.9560   -1.1010    1.0270 c3        1 BNN     -0.043100
     17 C15         4.6030    0.1160   -0.0490 ce        1 BNN      0.653800
     18 OXT        -3.5180   -2.4020    0.3350 o         1 BNN     -0.826300
     19 H          -2.7740    1.2550    0.8920 hn        1 BNN      0.314500
     20 HA         -1.8630   -0.8130   -0.9360 h1        1 BNN      0.071700
     21 HH11       -2.0030    3.6870    0.0590 hc        1 BNN      0.052700
     22 HH12       -2.2380    3.7130   -1.7440 hc        1 BNN      0.052700
     23 HH13       -3.5930    3.1750   -0.6570 hc        1 BNN      0.052700
     24 H161        6.0260   -0.2130   -1.4870 hn        1 BNN      0.393800
     25 H162        4.5130   -0.8250   -1.8380 hn        1 BNN      0.393800
     26 H17         4.8250    1.2830    1.4720 hn        1 BNN      0.389400
     27 H2          1.1130   -1.2600    2.7160 ha        1 BNN      0.154500
     28 H3          3.5100   -0.7740    2.2670 ha        1 BNN      0.121500
     29 H5          2.5030    0.3360   -1.7940 ha        1 BNN      0.121500
     30 H6          0.1160   -0.1390   -1.3440 ha        1 BNN      0.154500
     31 H71        -1.1750   -0.8300    2.0950 hc        1 BNN      0.068700
     32 H72        -1.0710   -2.2200    0.9380 hc        1 BNN      0.068700
@<TRIPOS>BOND
     1    1    2 1   
     2    1    7 1   
     3    1   19 1   
     4    2    3 1   
     5    2   16 1   
     6    2   20 1   
     7    3    4 1   
     8    3   18 1   
     9    5    7 2   
    10    6    7 1   
    11    6   21 1   
    12    6   22 1   
    13    6   23 1   
    14    8   17 1   
    15    8   24 1   
    16    8   25 1   
    17    9   17 2   
    18    9   26 1   
    19   10   11 ar  
    20   10   15 ar  
    21   10   16 1   
    22   11   12 ar  
    23   11   27 1   
    24   12   13 ar  
    25   12   28 1   
    26   13   14 ar  
    27   13   17 1   
    28   14   15 ar  
    29   14   29 1   
    30   15   30 1   
    31   16   31 1   
    32   16   32 1   
@<TRIPOS>SUBSTRUCTURE
     1 BNN         1 TEMP              0 ****  ****    0 ROOT
