@<TRIPOS>MOLECULE
BNP
   71    75     1     0     0
SMALL
bcc


@<TRIPOS>ATOM
      1 O1          4.3300    0.8520    0.2830 os        1 BNP     -0.418600
      2 C1          4.2060    2.2220    0.6790 c3        1 BNP      0.149100
      3 C2          3.4190    2.9390   -0.4290 c3        1 BNP     -0.015400
      4 C3          2.0000    2.4730   -0.4960 ca        1 BNP     -0.102300
      5 C4          1.5210    1.8660   -1.6670 ca        1 BNP     -0.091500
      6 C5          0.2040    1.4350   -1.7600 ca        1 BNP     -0.179000
      7 C6         -0.6570    1.6110   -0.6600 ca        1 BNP      0.126100
      8 O2         -1.9460    1.1540   -0.8590 os        1 BNP     -0.327900
      9 C8         -2.8320    1.2800    0.2590 c3        1 BNP      0.130400
     10 C9         -4.1530    0.6880   -0.1980 c3        1 BNP     -0.090400
     11 C10        -5.1620    0.7680    0.9330 c3        1 BNP      0.133400
     12 O3         -6.3750    0.2140    0.4280 os        1 BNP     -0.418600
     13 C11        -7.4120    0.2260    1.4100 c3        1 BNP      0.175700
     14 C12        -8.6520   -0.3580    0.8180 ca        1 BNP     -0.089300
     15 C13        -9.8570   -0.2050    1.5150 ca        1 BNP     -0.116000
     16 C14       -11.0330   -0.7520    1.0060 ca        1 BNP     -0.131500
     17 C15       -11.0140   -1.4520   -0.2010 ca        1 BNP     -0.129000
     18 C16        -8.6360   -1.0590   -0.3910 ca        1 BNP     -0.116000
     19 C17        -9.8160   -1.6030   -0.8980 ca        1 BNP     -0.131500
     20 C18        -0.1940    2.2120    0.5150 ca        1 BNP     -0.179000
     21 C19         1.1320    2.6370    0.5860 ca        1 BNP     -0.091500
     22 C20         3.4730    4.4450   -0.2020 c3        1 BNP     -0.073400
     23 C21         4.9100    4.9400   -0.0640 c3        1 BNP      0.158800
     24 N0          5.6450    4.2390    0.9700 n3        1 BNP     -0.818200
     25 C22         5.6300    2.8000    0.8100 c3        1 BNP      0.132800
     26 C23         4.4500   -0.0350    1.3960 c3        1 BNP      0.177700
     27 C24         4.6410   -1.4260    0.8880 ca        1 BNP     -0.090300
     28 C33         4.3440   -1.7870   -0.4060 ca        1 BNP     -0.087000
     29 C25         5.1290   -2.3980    1.8030 ca        1 BNP     -0.125000
     30 C26         5.3070   -3.6990    1.4070 ca        1 BNP     -0.119000
     31 C27         5.0080   -4.0980    0.0740 ca        1 BNP     -0.037000
     32 C28         5.1850   -5.4380   -0.3630 ca        1 BNP     -0.119000
     33 C29         4.8880   -5.7940   -1.6570 ca        1 BNP     -0.127000
     34 C30         4.5230   -3.1290   -0.8410 ca        1 BNP     -0.039000
     35 C31         4.2240   -3.5250   -2.1740 ca        1 BNP     -0.113000
     36 C32         4.4030   -4.8270   -2.5700 ca        1 BNP     -0.130000
     37 H1          3.6570    2.3070    1.6560 h1        1 BNP      0.054700
     38 H2          3.9300    2.7020   -1.4060 hc        1 BNP      0.065700
     39 H4          2.1970    1.7230   -2.5240 ha        1 BNP      0.133500
     40 H5         -0.1770    0.9580   -2.6740 ha        1 BNP      0.142000
     41 H81        -2.9450    2.3640    0.5260 h1        1 BNP      0.039200
     42 H82        -2.4160    0.7170    1.1350 h1        1 BNP      0.039200
     43 H91        -4.0080   -0.3790   -0.5080 hc        1 BNP      0.072700
     44 H92        -4.5350    1.2440   -1.0920 hc        1 BNP      0.072700
     45 H101       -4.8180    0.1770    1.8240 h1        1 BNP      0.027700
     46 H102       -5.3350    1.8330    1.2460 h1        1 BNP      0.027700
     47 H111       -7.0880   -0.3820    2.3000 h1        1 BNP      0.036200
     48 H112       -7.5980    1.2850    1.7410 h1        1 BNP      0.036200
     49 H13        -9.8740    0.3490    2.4650 ha        1 BNP      0.140000
     50 H14       -11.9770   -0.6310    1.5570 ha        1 BNP      0.131000
     51 H15       -11.9430   -1.8830   -0.6020 ha        1 BNP      0.130000
     52 H16        -7.6880   -1.1750   -0.9400 ha        1 BNP      0.140000
     53 H17        -9.7980   -2.1530   -1.8500 ha        1 BNP      0.131000
     54 H18        -0.8550    2.3540    1.3810 ha        1 BNP      0.142000
     55 H19         1.4940    3.1100    1.5120 ha        1 BNP      0.133500
     56 H201        2.9950    4.9680   -1.0700 hc        1 BNP      0.053700
     57 H202        2.8910    4.7090    0.7190 hc        1 BNP      0.053700
     58 H211        5.4120    4.8560   -1.0740 h1        1 BNP      0.030200
     59 H212        4.8940    6.0310    0.2170 h1        1 BNP      0.030200
     60 HN0         6.5930    4.5660    0.9990 hn        1 BNP      0.364800
     61 H221        6.2180    2.4560   -0.0920 h1        1 BNP      0.038200
     62 H222        6.1170    2.3530    1.7220 h1        1 BNP      0.038200
     63 H231        5.3260    0.2730    2.0290 h1        1 BNP      0.037700
     64 H232        3.5130    0.0190    2.0170 h1        1 BNP      0.037700
     65 H33         3.9670   -1.0380   -1.1210 ha        1 BNP      0.153000
     66 H25         5.3620   -2.0900    2.8330 ha        1 BNP      0.129000
     67 H26         5.6830   -4.4560    2.1110 ha        1 BNP      0.132000
     68 H28         5.5620   -6.1820    0.3540 ha        1 BNP      0.131000
     69 H29         5.0240   -6.8300   -1.9980 ha        1 BNP      0.131000
     70 H31         3.8460   -2.7670   -2.8760 ha        1 BNP      0.134000
     71 H32         4.1720   -5.1360   -3.6010 ha        1 BNP      0.131000
@<TRIPOS>BOND
     1    1    2 1   
     2    1   26 1   
     3    2    3 1   
     4    2   25 1   
     5    2   37 1   
     6    3    4 1   
     7    3   22 1   
     8    3   38 1   
     9    4    5 ar  
    10    4   21 ar  
    11    5    6 ar  
    12    5   39 1   
    13    6    7 ar  
    14    6   40 1   
    15    7    8 1   
    16    7   20 ar  
    17    8    9 1   
    18    9   10 1   
    19    9   41 1   
    20    9   42 1   
    21   10   11 1   
    22   10   43 1   
    23   10   44 1   
    24   11   12 1   
    25   11   45 1   
    26   11   46 1   
    27   12   13 1   
    28   13   14 1   
    29   13   47 1   
    30   13   48 1   
    31   14   15 ar  
    32   14   18 ar  
    33   15   16 ar  
    34   15   49 1   
    35   16   17 ar  
    36   16   50 1   
    37   17   19 ar  
    38   17   51 1   
    39   18   19 ar  
    40   18   52 1   
    41   19   53 1   
    42   20   21 ar  
    43   20   54 1   
    44   21   55 1   
    45   22   23 1   
    46   22   56 1   
    47   22   57 1   
    48   23   24 1   
    49   23   58 1   
    50   23   59 1   
    51   24   25 1   
    52   24   60 1   
    53   25   61 1   
    54   25   62 1   
    55   26   27 1   
    56   26   63 1   
    57   26   64 1   
    58   27   28 ar  
    59   27   29 ar  
    60   28   34 ar  
    61   28   65 1   
    62   29   30 ar  
    63   29   66 1   
    64   30   31 ar  
    65   30   67 1   
    66   31   32 ar  
    67   31   34 ar  
    68   32   33 ar  
    69   32   68 1   
    70   33   36 ar  
    71   33   69 1   
    72   34   35 ar  
    73   35   36 ar  
    74   35   70 1   
    75   36   71 1   
@<TRIPOS>SUBSTRUCTURE
     1 BNP         1 TEMP              0 ****  ****    0 ROOT
