@<TRIPOS>MOLECULE
BNP
   71    75     1     0     0
SMALL
bcc


@<TRIPOS>ATOM
      1 O1         -0.0310   -0.0110   -0.0970 os        1 BNP     -0.418600
      2 C1          1.3920    0.1310   -0.0580 c3        1 BNP      0.149100
      3 C2          1.8230   -0.0910    1.4000 c3        1 BNP     -0.015400
      4 C3          1.6090   -1.5060    1.8360 ca        1 BNP     -0.102300
      5 C4          0.7390   -1.7820    2.9000 ca        1 BNP     -0.091500
      6 C5          0.5320   -3.0860    3.3320 ca        1 BNP     -0.179000
      7 C6          1.2060   -4.1400    2.6880 ca        1 BNP      0.126100
      8 O2          0.9360   -5.3950    3.1990 os        1 BNP     -0.327900
      9 C8          1.5720   -6.4910    2.5320 c3        1 BNP      0.130400
     10 C9          1.0940   -7.7400    3.2490 c3        1 BNP     -0.090400
     11 C10         1.7250   -8.9640    2.6110 c3        1 BNP      0.133400
     12 O3          1.2380  -10.0910    3.3370 os        1 BNP     -0.419600
     13 C11         1.7610  -11.3170    2.8260 c3        1 BNP      0.175700
     14 C12         1.2130  -12.4540    3.6230 ca        1 BNP     -0.089300
     15 C13         1.4390  -13.7570    3.1620 ca        1 BNP     -0.116500
     16 C14         0.9580  -14.8470    3.8830 ca        1 BNP     -0.131000
     17 C15         0.2460  -14.6450    5.0660 ca        1 BNP     -0.129000
     18 C16         0.5000  -12.2540    4.8080 ca        1 BNP     -0.116500
     19 C17         0.0180  -13.3480    5.5260 ca        1 BNP     -0.131000
     20 C18         2.0760   -3.8810    1.6220 ca        1 BNP     -0.179000
     21 C19         2.2690   -2.5640    1.2060 ca        1 BNP     -0.091500
     22 C20         3.2870    0.2990    1.5660 c3        1 BNP     -0.073400
     23 C21         3.5490    1.7180    1.0680 c3        1 BNP      0.158800
     24 N0          3.1160    1.9180   -0.3010 n3        1 BNP     -0.818200
     25 C22         1.7300    1.5630   -0.5230 c3        1 BNP      0.132800
     26 C23        -0.5070   -0.4510   -1.3700 c3        1 BNP      0.177700
     27 C24        -1.9980   -0.5030   -1.3390 ca        1 BNP     -0.090300
     28 C33        -2.7130   -0.5090   -0.1630 ca        1 BNP     -0.087000
     29 C25        -2.6800   -0.5710   -2.5850 ca        1 BNP     -0.125000
     30 C26        -4.0490   -0.6430   -2.6260 ca        1 BNP     -0.119000
     31 C27        -4.8100   -0.6490   -1.4250 ca        1 BNP     -0.037000
     32 C28        -6.2300   -0.7220   -1.4390 ca        1 BNP     -0.119000
     33 C29        -6.9380   -0.7260   -0.2620 ca        1 BNP     -0.127000
     34 C30        -4.1330   -0.5810   -0.1810 ca        1 BNP     -0.039000
     35 C31        -4.8920   -0.5870    1.0220 ca        1 BNP     -0.113000
     36 C32        -6.2630   -0.6580    0.9800 ca        1 BNP     -0.130000
     37 H1          1.8880   -0.6250   -0.7240 h1        1 BNP      0.054700
     38 H2          1.1930    0.5900    2.0410 hc        1 BNP      0.065700
     39 H4          0.2070   -0.9580    3.3990 ha        1 BNP      0.133500
     40 H5         -0.1490   -3.3090    4.1650 ha        1 BNP      0.142000
     41 H81         1.2690   -6.5020    1.4520 h1        1 BNP      0.038700
     42 H82         2.6860   -6.3800    2.6090 h1        1 BNP      0.038700
     43 H91         1.3690   -7.6890    4.3340 hc        1 BNP      0.072700
     44 H92        -0.0230   -7.8110    3.1930 hc        1 BNP      0.072700
     45 H101        1.4300   -9.0530    1.5310 h1        1 BNP      0.027200
     46 H102        2.8450   -8.9250    2.6820 h1        1 BNP      0.027200
     47 H111        2.8840  -11.3010    2.9020 h1        1 BNP      0.036200
     48 H112        1.4720  -11.4230    1.7440 h1        1 BNP      0.036200
     49 H13         1.9970  -13.9180    2.2280 ha        1 BNP      0.140000
     50 H14         1.1380  -15.8690    3.5180 ha        1 BNP      0.131000
     51 H15        -0.1340  -15.5060    5.6340 ha        1 BNP      0.130000
     52 H16         0.3180  -11.2290    5.1680 ha        1 BNP      0.140000
     53 H17        -0.5440  -13.1860    6.4570 ha        1 BNP      0.131000
     54 H18         2.6070   -4.6940    1.1100 ha        1 BNP      0.142000
     55 H19         2.9540   -2.3630    0.3670 ha        1 BNP      0.133500
     56 H201        3.9370   -0.4240    1.0080 hc        1 BNP      0.053700
     57 H202        3.5660    0.2430    2.6500 hc        1 BNP      0.053700
     58 H211        4.6570    1.9180    1.1010 h1        1 BNP      0.030200
     59 H212        3.0510    2.4410    1.7810 h1        1 BNP      0.030200
     60 HN0         3.2690    2.8710   -0.5730 hn        1 BNP      0.364800
     61 H221        1.5360    1.6360   -1.6290 h1        1 BNP      0.038200
     62 H222        1.0120    2.2650   -0.0040 h1        1 BNP      0.038200
     63 H231       -0.1580    0.2610   -2.1680 h1        1 BNP      0.037700
     64 H232       -0.0930   -1.4740   -1.5880 h1        1 BNP      0.037700
     65 H33        -2.1910   -0.4560    0.8060 ha        1 BNP      0.153000
     66 H25        -2.0910   -0.5640   -3.5140 ha        1 BNP      0.129000
     67 H26        -4.5810   -0.6960   -3.5870 ha        1 BNP      0.132000
     68 H28        -6.7460   -0.7740   -2.4090 ha        1 BNP      0.131000
     69 H29        -8.0370   -0.7820   -0.2700 ha        1 BNP      0.131000
     70 H31        -4.3570   -0.5340    1.9820 ha        1 BNP      0.134000
     71 H32        -6.8520   -0.6630    1.9090 ha        1 BNP      0.131000
@<TRIPOS>BOND
     1    1    2 1   
     2    1   26 1   
     3    2    3 1   
     4    2   25 1   
     5    2   37 1   
     6    3    4 1   
     7    3   22 1   
     8    3   38 1   
     9    4    5 ar  
    10    4   21 ar  
    11    5    6 ar  
    12    5   39 1   
    13    6    7 ar  
    14    6   40 1   
    15    7    8 1   
    16    7   20 ar  
    17    8    9 1   
    18    9   10 1   
    19    9   41 1   
    20    9   42 1   
    21   10   11 1   
    22   10   43 1   
    23   10   44 1   
    24   11   12 1   
    25   11   45 1   
    26   11   46 1   
    27   12   13 1   
    28   13   14 1   
    29   13   47 1   
    30   13   48 1   
    31   14   15 ar  
    32   14   18 ar  
    33   15   16 ar  
    34   15   49 1   
    35   16   17 ar  
    36   16   50 1   
    37   17   19 ar  
    38   17   51 1   
    39   18   19 ar  
    40   18   52 1   
    41   19   53 1   
    42   20   21 ar  
    43   20   54 1   
    44   21   55 1   
    45   22   23 1   
    46   22   56 1   
    47   22   57 1   
    48   23   24 1   
    49   23   58 1   
    50   23   59 1   
    51   24   25 1   
    52   24   60 1   
    53   25   61 1   
    54   25   62 1   
    55   26   27 1   
    56   26   63 1   
    57   26   64 1   
    58   27   28 ar  
    59   27   29 ar  
    60   28   34 ar  
    61   28   65 1   
    62   29   30 ar  
    63   29   66 1   
    64   30   31 ar  
    65   30   67 1   
    66   31   32 ar  
    67   31   34 ar  
    68   32   33 ar  
    69   32   68 1   
    70   33   36 ar  
    71   33   69 1   
    72   34   35 ar  
    73   35   36 ar  
    74   35   70 1   
    75   36   71 1   
@<TRIPOS>SUBSTRUCTURE
     1 BNP         1 TEMP              0 ****  ****    0 ROOT
