@<TRIPOS>MOLECULE
BNP
   71    75     1     0     0
SMALL
bcc


@<TRIPOS>ATOM
      1 O1         -0.0480   -0.0080   -0.1210 os        1 BNP     -0.418600
      2 C1          1.3570    0.1940    0.0560 c3        1 BNP      0.149100
      3 C2          1.6540   -0.0090    1.5500 c3        1 BNP     -0.015400
      4 C3          1.4560   -1.4300    1.9700 ca        1 BNP     -0.102300
      5 C4          0.4990   -1.7410    2.9480 ca        1 BNP     -0.091000
      6 C5          0.3040   -3.0510    3.3640 ca        1 BNP     -0.179500
      7 C6          1.0790   -4.0780    2.7930 ca        1 BNP      0.126100
      8 O2          0.8100   -5.3420    3.2810 os        1 BNP     -0.327900
      9 C8          1.5490   -6.4130    2.6820 c3        1 BNP      0.130400
     10 C9          1.0530   -7.6790    3.3550 c3        1 BNP     -0.090400
     11 C10         1.7770   -8.8800    2.7730 c3        1 BNP      0.133400
     12 O3          1.2750  -10.0230    3.4610 os        1 BNP     -0.418600
     13 C11         1.8790  -11.2300    2.9950 c3        1 BNP      0.175700
     14 C12         1.3170  -12.3840    3.7570 ca        1 BNP     -0.089300
     15 C13         0.1740  -12.2600    4.5510 ca        1 BNP     -0.116000
     16 C14        -0.3270  -13.3700    5.2320 ca        1 BNP     -0.131500
     17 C15         0.3080  -14.6060    5.1210 ca        1 BNP     -0.129000
     18 C16         1.9550  -13.6270    3.6500 ca        1 BNP     -0.116000
     19 C17         1.4500  -14.7330    4.3290 ca        1 BNP     -0.131500
     20 C18         2.0350   -3.7860    1.8140 ca        1 BNP     -0.179500
     21 C19         2.2150   -2.4630    1.4120 ca        1 BNP     -0.091000
     22 C20         3.0780    0.4410    1.8550 c3        1 BNP     -0.073400
     23 C21         3.3290    1.8690    1.3790 c3        1 BNP      0.158800
     24 N0          3.0220    2.0500   -0.0270 n3        1 BNP     -0.818200
     25 C22         1.6800    1.6380   -0.3800 c3        1 BNP      0.132800
     26 C23        -0.3790   -0.4610   -1.4340 c3        1 BNP      0.177700
     27 C24        -1.8620   -0.5940   -1.5410 ca        1 BNP     -0.090300
     28 C33        -2.6790   -0.6600   -0.4360 ca        1 BNP     -0.087000
     29 C25        -2.4230   -0.6740   -2.8450 ca        1 BNP     -0.125000
     30 C26        -3.7760   -0.8190   -3.0130 ca        1 BNP     -0.119000
     31 C27        -4.6420   -0.8890   -1.8870 ca        1 BNP     -0.036000
     32 C28        -6.0480   -1.0380   -2.0310 ca        1 BNP     -0.119000
     33 C29        -6.8600   -1.1020   -0.9250 ca        1 BNP     -0.127000
     34 C30        -4.0860   -0.8070   -0.5850 ca        1 BNP     -0.039000
     35 C31        -4.9490   -0.8770    0.5430 ca        1 BNP     -0.113000
     36 C32        -6.3050   -1.0210    0.3750 ca        1 BNP     -0.130000
     37 H1          1.9470   -0.5420   -0.5550 h1        1 BNP      0.054700
     38 H2          0.9370    0.6460    2.1240 hc        1 BNP      0.065700
     39 H4         -0.1100   -0.9380    3.3900 ha        1 BNP      0.133500
     40 H5         -0.4440   -3.3010    4.1300 ha        1 BNP      0.142000
     41 H81         1.3510   -6.4360    1.5780 h1        1 BNP      0.039200
     42 H82         2.6450   -6.2590    2.8650 h1        1 BNP      0.039200
     43 H91         1.2330   -7.6230    4.4600 hc        1 BNP      0.072700
     44 H92        -0.0520   -7.7870    3.2040 hc        1 BNP      0.072700
     45 H101        2.8850   -8.8000    2.9320 h1        1 BNP      0.027700
     46 H102        1.5720   -8.9800    1.6730 h1        1 BNP      0.027700
     47 H111        1.6640  -11.3540    1.8970 h1        1 BNP      0.036200
     48 H112        2.9930  -11.1690    3.1430 h1        1 BNP      0.036200
     49 H13        -0.3240  -11.2820    4.6390 ha        1 BNP      0.140000
     50 H14        -1.2260  -13.2670    5.8570 ha        1 BNP      0.131000
     51 H15        -0.0880  -15.4800    5.6580 ha        1 BNP      0.130000
     52 H16         2.8570  -13.7270    3.0280 ha        1 BNP      0.140000
     53 H17         1.9540  -15.7060    4.2410 ha        1 BNP      0.131000
     54 H18         2.6450   -4.5770    1.3590 ha        1 BNP      0.142000
     55 H19         2.9680   -2.2350    0.6420 ha        1 BNP      0.133500
     56 H201        3.2520    0.3970    2.9610 hc        1 BNP      0.053700
     57 H202        3.8070   -0.2550    1.3660 hc        1 BNP      0.053700
     58 H211        4.4190    2.1140    1.5180 h1        1 BNP      0.030200
     59 H212        2.7350    2.5710    2.0370 h1        1 BNP      0.030200
     60 HN0         3.1610    3.0090   -0.2870 hn        1 BNP      0.364800
     61 H221        1.5910    1.7020   -1.5010 h1        1 BNP      0.038200
     62 H222        0.8870    2.3100    0.0630 h1        1 BNP      0.038200
     63 H231        0.1070   -1.4600   -1.6170 h1        1 BNP      0.037700
     64 H232        0.0030    0.2750   -2.1930 h1        1 BNP      0.037700
     65 H33        -2.2510   -0.5960    0.5770 ha        1 BNP      0.153000
     66 H25        -1.7530   -0.6180   -3.7160 ha        1 BNP      0.129000
     67 H26        -4.2150   -0.8830   -4.0190 ha        1 BNP      0.132000
     68 H28        -6.4700   -1.1000   -3.0460 ha        1 BNP      0.131000
     69 H29        -7.9480   -1.2170   -1.0340 ha        1 BNP      0.131000
     70 H31        -4.5080   -0.8130    1.5490 ha        1 BNP      0.134000
     71 H32        -6.9750   -1.0750    1.2450 ha        1 BNP      0.131000
@<TRIPOS>BOND
     1    1    2 1   
     2    1   26 1   
     3    2    3 1   
     4    2   25 1   
     5    2   37 1   
     6    3    4 1   
     7    3   22 1   
     8    3   38 1   
     9    4    5 ar  
    10    4   21 ar  
    11    5    6 ar  
    12    5   39 1   
    13    6    7 ar  
    14    6   40 1   
    15    7    8 1   
    16    7   20 ar  
    17    8    9 1   
    18    9   10 1   
    19    9   41 1   
    20    9   42 1   
    21   10   11 1   
    22   10   43 1   
    23   10   44 1   
    24   11   12 1   
    25   11   45 1   
    26   11   46 1   
    27   12   13 1   
    28   13   14 1   
    29   13   47 1   
    30   13   48 1   
    31   14   15 ar  
    32   14   18 ar  
    33   15   16 ar  
    34   15   49 1   
    35   16   17 ar  
    36   16   50 1   
    37   17   19 ar  
    38   17   51 1   
    39   18   19 ar  
    40   18   52 1   
    41   19   53 1   
    42   20   21 ar  
    43   20   54 1   
    44   21   55 1   
    45   22   23 1   
    46   22   56 1   
    47   22   57 1   
    48   23   24 1   
    49   23   58 1   
    50   23   59 1   
    51   24   25 1   
    52   24   60 1   
    53   25   61 1   
    54   25   62 1   
    55   26   27 1   
    56   26   63 1   
    57   26   64 1   
    58   27   28 ar  
    59   27   29 ar  
    60   28   34 ar  
    61   28   65 1   
    62   29   30 ar  
    63   29   66 1   
    64   30   31 ar  
    65   30   67 1   
    66   31   32 ar  
    67   31   34 ar  
    68   32   33 ar  
    69   32   68 1   
    70   33   36 ar  
    71   33   69 1   
    72   34   35 ar  
    73   35   36 ar  
    74   35   70 1   
    75   36   71 1   
@<TRIPOS>SUBSTRUCTURE
     1 BNP         1 TEMP              0 ****  ****    0 ROOT
