@<TRIPOS>MOLECULE
BNP
   71    68     1     0     0
SMALL
bcc


@<TRIPOS>ATOM
      1 O1          0.7640    1.6200   -3.3530 os        1 BNP     -0.273000
      2 C1          2.1910    1.6510   -3.3660 c3        1 BNP      0.035000
      3 C2          2.7160    1.4710   -1.9160 c3        1 BNP     -0.062000
      4 C3          2.3210    0.2370   -1.3590 c2        1 BNP     -0.106000
      5 C4          1.3270    0.2030   -0.3760 c2        1 BNP     -0.087000
      6 C5          1.0220   -0.9960    0.2680 c1        1 BNP     -0.202000
      7 C6          1.7040   -2.1560   -0.0660 c1        1 BNP      0.081000
      8 O2          1.3220   -3.4040    0.5240 os        1 BNP     -0.210000
      9 C8          1.9910   -3.6850    1.7910 c3        1 BNP     -0.020000
     10 C9          1.0590   -4.5300    2.7030 c3        1 BNP     -0.201000
     11 C10         1.1980   -4.0470    4.1630 c3        1 BNP     -0.016000
     12 O3         -0.0470   -4.2590    4.8590 os        1 BNP     -0.276000
     13 C11        -0.0430   -3.8160    6.1820 c3        1 BNP      0.018000
     14 C12        -1.3690   -4.1940    6.8520 c2        1 BNP     -0.082000
     15 C13        -1.4040   -5.2120    7.8080 c2        1 BNP     -0.130000
     16 C14        -2.5940   -5.5040    8.4700 c1        1 BNP     -0.130000
     17 C15        -3.7490   -4.7780    8.1770 c1        1 BNP     -0.126750
     18 C16        -2.5220   -3.4730    6.5620 c1        1 BNP     -0.102000
     19 C17        -3.7110   -3.7640    7.2230 c1        1 BNP     -0.126750
     20 C18         2.6880   -2.1240   -1.0400 c1        1 BNP     -0.155000
     21 C19         2.9960   -0.9100   -1.6910 c1        1 BNP     -0.099000
     22 C20         4.2320    1.4850   -2.2750 c3        1 BNP     -0.180000
     23 C21         4.6700    2.7890   -2.9050 c3        1 BNP     -0.086000
     24 N0          3.6600    3.4420   -3.3770 n3        1 BNP     -0.280000
     25 C22         2.6420    2.9570   -3.9920 c3        1 BNP     -0.104000
     26 C23         0.1620    2.2560   -4.4990 c3        1 BNP      0.015000
     27 C24        -1.2050    2.9300   -4.0750 c2        1 BNP     -0.074000
     28 C33        -2.2760    3.2040   -4.9260 c2        1 BNP     -0.117000
     29 C25        -1.2560    3.3250   -2.7360 c1        1 BNP     -0.103000
     30 C26        -2.3690    3.9890   -2.2510 c1        1 BNP     -0.123000
     31 C27        -3.4550    4.2670   -3.1120 c1        1 BNP     -0.035000
     32 C28        -4.5770    4.9360   -2.6270 c1        1 BNP     -0.126750
     33 C29        -5.6400    5.2080   -3.4710 c1        1 BNP     -0.126750
     34 C30        -3.4030    3.8750   -4.4380 c2        1 BNP     -0.036000
     35 C31        -4.4800    4.1520   -5.2930 c2        1 BNP     -0.117000
     36 C32        -5.5890    4.8130   -4.8130 c1        1 BNP     -0.129000
     37 H1          2.5290    0.8810   -3.9340 h1        1 BNP      0.088000
     38 H2          2.4750    2.2190   -1.3530 hc        1 BNP      0.119000
     39 H4          0.8460    1.0230   -0.1390 ha        1 BNP      0.136000
     40 H5          0.3200   -1.0190    0.9620 ha        1 BNP      0.139000
     41 H81         2.2050   -2.8380    2.2420 h1        1 BNP      0.096000
     42 H82         2.8240   -4.1840    1.6190 h1        1 BNP      0.096000
     43 H91         1.3130   -5.4740    2.6460 hc        1 BNP      0.110500
     44 H92         0.1380   -4.4250    2.4130 hc        1 BNP      0.110500
     45 H101        1.4210   -3.0850    4.1710 h1        1 BNP      0.066500
     46 H102        1.9270   -4.5620    4.6170 h1        1 BNP      0.066500
     47 H111        0.0660   -2.8240    6.2000 h1        1 BNP      0.075500
     48 H112        0.7120   -4.2440    6.6740 h1        1 BNP      0.075500
     49 H13        -0.6030   -5.7140    8.0090 ha        1 BNP      0.128000
     50 H14        -2.6210   -6.2180    9.1420 ha        1 BNP      0.131000
     51 H15        -4.5830   -4.9810    8.6380 ha        1 BNP      0.131500
     52 H16        -2.4960   -2.7400    5.8730 ha        1 BNP      0.151000
     53 H17        -4.5000   -3.2680    7.0220 ha        1 BNP      0.131500
     54 H18         3.1600   -2.9260   -1.2720 ha        1 BNP      0.149000
     55 H19         3.6840   -0.8870   -2.3710 ha        1 BNP      0.132000
     56 H201        4.7540    1.3400   -1.4570 hc        1 BNP      0.087500
     57 H202        4.4120    0.7580   -2.8950 hc        1 BNP      0.087500
     58 H211        5.3400    2.5890   -3.6770 h1        1 BNP      0.096500
     59 H212        5.1190    3.3390   -2.2230 h1        1 BNP      0.096500
     60 HN0         3.9580    4.1760   -3.8190 hn        1 BNP      0.146000
     61 H221        2.8720    2.8040   -4.9000 h1        1 BNP      0.074000
     62 H222        1.9200    3.5870   -3.9530 h1        1 BNP      0.074000
     63 H231        0.0010    1.6160   -5.1640 h1        1 BNP      0.083000
     64 H232        0.7910    2.9650   -4.8590 h1        1 BNP      0.083000
     65 H33        -2.2040    3.0070   -5.8640 ha        1 BNP      0.132000
     66 H25        -0.5020    3.1050   -2.1240 ha        1 BNP      0.147000
     67 H26        -2.4040    4.2600   -1.3330 ha        1 BNP      0.132000
     68 H28        -4.6130    5.2100   -1.6990 ha        1 BNP      0.131500
     69 H29        -6.4260    5.6770   -3.1300 ha        1 BNP      0.131500
     70 H31        -4.4430    3.8690   -6.2530 ha        1 BNP      0.131000
     71 H32        -6.3670    5.0120   -5.4300 ha        1 BNP      0.131000
@<TRIPOS>BOND
     1    1    2 1   
     2    1   26 1   
     3    2    3 1   
     4    2   25 1   
     5    2   37 1   
     6    3    4 1   
     7    3   22 1   
     8    3   38 1   
     9    4    5 1   
    10    4   21 1   
    11    5    6 1   
    12    5   39 1   
    13    6   40 1   
    14    7    8 1   
    15    7   20 1   
    16    8    9 1   
    17    9   10 1   
    18    9   41 1   
    19    9   42 1   
    20   10   11 1   
    21   10   43 1   
    22   10   44 1   
    23   11   12 1   
    24   11   45 1   
    25   11   46 1   
    26   12   13 1   
    27   13   14 1   
    28   13   47 1   
    29   13   48 1   
    30   14   15 1   
    31   14   18 1   
    32   15   16 1   
    33   15   49 1   
    34   16   50 1   
    35   17   19 1   
    36   17   51 1   
    37   18   52 1   
    38   19   53 1   
    39   20   54 1   
    40   21   55 1   
    41   22   23 1   
    42   22   56 1   
    43   22   57 1   
    44   23   24 1   
    45   23   58 1   
    46   23   59 1   
    47   24   25 1   
    48   24   60 1   
    49   25   61 1   
    50   25   62 1   
    51   26   27 1   
    52   26   63 1   
    53   26   64 1   
    54   27   28 1   
    55   27   29 1   
    56   28   34 1   
    57   28   65 1   
    58   29   66 1   
    59   30   31 1   
    60   30   67 1   
    61   31   34 1   
    62   32   33 1   
    63   32   68 1   
    64   33   69 1   
    65   34   35 1   
    66   35   36 1   
    67   35   70 1   
    68   36   71 1   
@<TRIPOS>SUBSTRUCTURE
     1 BNP         1 TEMP              0 ****  ****    0 ROOT
