@<TRIPOS>MOLECULE
BNP
   71    75     1     0     0
SMALL
bcc


@<TRIPOS>ATOM
      1 O1         -0.0660   -0.0150   -0.1160 os        1 BNP     -0.418600
      2 C1          1.3420    0.1840    0.0450 c3        1 BNP      0.149100
      3 C2          1.6550   -0.0210    1.5360 c3        1 BNP     -0.015400
      4 C3          1.4610   -1.4430    1.9560 ca        1 BNP     -0.102300
      5 C4          0.5150   -1.7540    2.9430 ca        1 BNP     -0.091500
      6 C5          0.3230   -3.0650    3.3600 ca        1 BNP     -0.179000
      7 C6          1.0910   -4.0920    2.7780 ca        1 BNP      0.126100
      8 O2          0.8260   -5.3560    3.2680 os        1 BNP     -0.327900
      9 C8          1.5620   -6.4260    2.6620 c3        1 BNP      0.130400
     10 C9          1.0740   -7.6930    3.3410 c3        1 BNP     -0.090400
     11 C10         1.7970   -8.8920    2.7550 c3        1 BNP      0.133400
     12 O3          1.3020  -10.0360    3.4480 os        1 BNP     -0.419600
     13 C11         1.9060  -11.2420    2.9790 c3        1 BNP      0.175700
     14 C12         1.3510  -12.3970    3.7450 ca        1 BNP     -0.089300
     15 C13         0.2150  -12.2740    4.5510 ca        1 BNP     -0.116000
     16 C14        -0.2780  -13.3840    5.2360 ca        1 BNP     -0.131500
     17 C15         0.3560  -14.6200    5.1180 ca        1 BNP     -0.129000
     18 C16         1.9890  -13.6390    3.6310 ca        1 BNP     -0.116000
     19 C17         1.4900  -14.7460    4.3150 ca        1 BNP     -0.131500
     20 C18         2.0370   -3.7980    1.7900 ca        1 BNP     -0.179000
     21 C19         2.2130   -2.4750    1.3870 ca        1 BNP     -0.091500
     22 C20         3.0830    0.4270    1.8250 c3        1 BNP     -0.073400
     23 C21         3.3300    1.8550    1.3480 c3        1 BNP      0.158800
     24 N0          3.0080    2.0380   -0.0540 n7        1 BNP     -0.818200
     25 C22         1.6620    1.6290   -0.3930 c3        1 BNP      0.132800
     26 C23        -0.4120   -0.4700   -1.4240 c3        1 BNP      0.177700
     27 C24        -1.8970   -0.5880   -1.5180 ca        1 BNP     -0.090300
     28 C33        -2.7070   -0.6320   -0.4070 ca        1 BNP     -0.087000
     29 C25        -2.4690   -0.6770   -2.8180 ca        1 BNP     -0.125000
     30 C26        -3.8240   -0.8090   -2.9740 ca        1 BNP     -0.119000
     31 C27        -4.6830   -0.8560   -1.8410 ca        1 BNP     -0.037000
     32 C28        -6.0920   -0.9900   -1.9740 ca        1 BNP     -0.119000
     33 C29        -6.8960   -1.0320   -0.8620 ca        1 BNP     -0.127000
     34 C30        -4.1160   -0.7650   -0.5440 ca        1 BNP     -0.039000
     35 C31        -4.9720   -0.8120    0.5900 ca        1 BNP     -0.113000
     36 C32        -6.3300   -0.9430    0.4330 ca        1 BNP     -0.130000
     37 H1          1.9230   -0.5510   -0.5740 h1        1 BNP      0.054700
     38 H2          0.9460    0.6340    2.1180 hc        1 BNP      0.065700
     39 H4         -0.0900   -0.9520    3.3920 ha        1 BNP      0.133500
     40 H5         -0.4170   -3.3160    4.1320 ha        1 BNP      0.142000
     41 H81         1.3530   -6.4500    1.5600 h1        1 BNP      0.039200
     42 H82         2.6600   -6.2710    2.8350 h1        1 BNP      0.039200
     43 H91         1.2620   -7.6350    4.4440 hc        1 BNP      0.072700
     44 H92        -0.0320   -7.8040    3.1980 hc        1 BNP      0.072700
     45 H101        1.5850   -8.9940    1.6570 h1        1 BNP      0.027700
     46 H102        2.9060   -8.8090    2.9070 h1        1 BNP      0.027700
     47 H111        3.0200  -11.1780    3.1190 h1        1 BNP      0.036200
     48 H112        1.6840  -11.3670    1.8830 h1        1 BNP      0.036200
     49 H13        -0.2820  -11.2960    4.6440 ha        1 BNP      0.140000
     50 H14        -1.1710  -13.2820    5.8700 ha        1 BNP      0.131000
     51 H15        -0.0350  -15.4950    5.6580 ha        1 BNP      0.130000
     52 H16         2.8850  -13.7390    3.0010 ha        1 BNP      0.140000
     53 H17         1.9930  -15.7190    4.2210 ha        1 BNP      0.131000
     54 H18         2.6410   -4.5900    1.3270 ha        1 BNP      0.142000
     55 H19         2.9580   -2.2460    0.6100 ha        1 BNP      0.133500
     56 H201        3.8060   -0.2700    1.3260 hc        1 BNP      0.053700
     57 H202        3.2700    0.3810    2.9290 hc        1 BNP      0.053700
     58 H211        2.7450    2.5570    2.0130 h1        1 BNP      0.030200
     59 H212        4.4230    2.0990    1.4750 h1        1 BNP      0.030200
     60 HN0         3.1460    2.9980   -0.3150 hn        1 BNP      0.364800
     61 H221        1.5600    1.6940   -1.5130 h1        1 BNP      0.038200
     62 H222        0.8750    2.3010    0.0600 h1        1 BNP      0.038200
     63 H231       -0.0290    0.2590   -2.1890 h1        1 BNP      0.037700
     64 H232        0.0620   -1.4740   -1.6060 h1        1 BNP      0.037700
     65 H33        -2.2710   -0.5620    0.6020 ha        1 BNP      0.153000
     66 H25        -1.8040   -0.6380   -3.6940 ha        1 BNP      0.129000
     67 H26        -4.2710   -0.8790   -3.9770 ha        1 BNP      0.132000
     68 H28        -6.5220   -1.0590   -2.9850 ha        1 BNP      0.131000
     69 H29        -7.9860   -1.1370   -0.9610 ha        1 BNP      0.131000
     70 H31        -4.5230   -0.7430    1.5920 ha        1 BNP      0.134000
     71 H32        -6.9950   -0.9800    1.3090 ha        1 BNP      0.131000
@<TRIPOS>BOND
     1    1    2 1   
     2    1   26 1   
     3    2    3 1   
     4    2   25 1   
     5    2   37 1   
     6    3    4 1   
     7    3   22 1   
     8    3   38 1   
     9    4    5 ar  
    10    4   21 ar  
    11    5    6 ar  
    12    5   39 1   
    13    6    7 ar  
    14    6   40 1   
    15    7    8 1   
    16    7   20 ar  
    17    8    9 1   
    18    9   10 1   
    19    9   41 1   
    20    9   42 1   
    21   10   11 1   
    22   10   43 1   
    23   10   44 1   
    24   11   12 1   
    25   11   45 1   
    26   11   46 1   
    27   12   13 1   
    28   13   14 1   
    29   13   47 1   
    30   13   48 1   
    31   14   15 ar  
    32   14   18 ar  
    33   15   16 ar  
    34   15   49 1   
    35   16   17 ar  
    36   16   50 1   
    37   17   19 ar  
    38   17   51 1   
    39   18   19 ar  
    40   18   52 1   
    41   19   53 1   
    42   20   21 ar  
    43   20   54 1   
    44   21   55 1   
    45   22   23 1   
    46   22   56 1   
    47   22   57 1   
    48   23   24 1   
    49   23   58 1   
    50   23   59 1   
    51   24   25 1   
    52   24   60 1   
    53   25   61 1   
    54   25   62 1   
    55   26   27 1   
    56   26   63 1   
    57   26   64 1   
    58   27   28 ar  
    59   27   29 ar  
    60   28   34 ar  
    61   28   65 1   
    62   29   30 ar  
    63   29   66 1   
    64   30   31 ar  
    65   30   67 1   
    66   31   32 ar  
    67   31   34 ar  
    68   32   33 ar  
    69   32   68 1   
    70   33   36 ar  
    71   33   69 1   
    72   34   35 ar  
    73   35   36 ar  
    74   35   70 1   
    75   36   71 1   
@<TRIPOS>SUBSTRUCTURE
     1 BNP         1 TEMP              0 ****  ****    0 ROOT
