@<TRIPOS>MOLECULE
BNS
   15    15     1     0     0
SMALL
bcc


@<TRIPOS>ATOM
      1 C1         -3.1280   -0.0000   -0.0530 ca        1 BNS     -0.127000
      2 C2         -2.4290   -1.2060   -0.0340 ca        1 BNS     -0.174000
      3 C3         -1.0340   -1.2000   -0.0020 ca        1 BNS     -0.044000
      4 C4         -0.3240    0.0000    0.0070 ca        1 BNS     -0.256500
      5 S1          1.4520    0.0000    0.0240 s6        1 BNS      1.458100
      6 O1          1.8040    1.1890    0.7060 o         1 BNS     -0.745533
      7 O2          1.8040   -1.1880    0.7080 o         1 BNS     -0.745533
      8 C5         -1.0340    1.2000   -0.0030 ca        1 BNS     -0.044000
      9 C6         -2.4290    1.2060   -0.0350 ca        1 BNS     -0.174000
     10 H1         -4.2260   -0.0000   -0.0800 ha        1 BNS      0.101000
     11 H2         -2.9760   -2.1590   -0.0420 ha        1 BNS      0.106000
     12 H3         -0.4730   -2.1500    0.0280 ha        1 BNS      0.143000
     13 H5         -0.4730    2.1500    0.0270 ha        1 BNS      0.143000
     14 H6         -2.9760    2.1590   -0.0440 ha        1 BNS      0.106000
     15 O3          1.8310   -0.0010   -1.3380 o         1 BNS     -0.745533
@<TRIPOS>BOND
     1    1    2 ar  
     2    1    9 ar  
     3    1   10 1   
     4    2    3 ar  
     5    2   11 1   
     6    3    4 ar  
     7    3   12 1   
     8    4    5 1   
     9    4    8 ar  
    10    5    6 1   
    11    5    7 1   
    12    5   15 1   
    13    8    9 ar  
    14    8   13 1   
    15    9   14 1   
@<TRIPOS>SUBSTRUCTURE
     1 BNS         1 TEMP              0 ****  ****    0 ROOT
