@<TRIPOS>MOLECULE
BNS
   15    14     1     0     0
SMALL
bcc


@<TRIPOS>ATOM
      1 C1          0.1350    0.1210   -0.0970 c3        1 BNS     -0.119000
      2 C2          1.6050    0.3570   -0.0910 c2        1 BNS     -0.548000
      3 C3          2.4060    0.3790    0.9630 c1        1 BNS      0.177000
      4 C4          1.3260   -0.4450    2.8280 c2        1 BNS     -0.725000
      5 S1          2.0760   -0.1590    4.4180 s6        1 BNS      2.869000
      6 O1          1.3490   -1.0210    5.2710 o         1 BNS     -1.064000
      7 O2          3.4270   -0.5300    4.2730 o         1 BNS     -1.064000
      8 C5          0.2980    0.3010    2.3710 c2        1 BNS     -0.150000
      9 C6         -0.4740    0.0430    1.2210 c1        1 BNS     -0.039000
     10 H1         -0.3830    0.9610   -0.6470 hc        1 BNS      0.118500
     11 H2         -0.1120   -0.8280   -0.6540 hc        1 BNS      0.118500
     12 H3          2.0480    0.5400   -1.0860 ha        1 BNS      0.158000
     13 H5          1.6350   -1.3800    2.3390 h4        1 BNS      0.145000
     14 H6         -0.0400    1.1720    2.9780 ha        1 BNS      0.186000
     15 O3          1.8510    1.2120    4.6780 o         1 BNS     -1.064000
@<TRIPOS>BOND
     1    1    2 1   
     2    1    9 1   
     3    1   10 1   
     4    1   11 1   
     5    2    3 1   
     6    2   12 1   
     7    4    5 1   
     8    4    8 1   
     9    4   13 1   
    10    5    6 1   
    11    5    7 1   
    12    5   15 1   
    13    8    9 1   
    14    8   14 1   
@<TRIPOS>SUBSTRUCTURE
     1 BNS         1 TEMP              0 ****  ****    0 ROOT
