@<TRIPOS>MOLECULE
BNS
   15    11     1     0     0
SMALL
bcc


@<TRIPOS>ATOM
      1 C1         -0.9970   -0.0710   -1.9360 c1        1 BNS     -0.072250
      2 C2          0.3850   -0.1490   -1.8650 c1        1 BNS     -0.072250
      3 C3          1.0200   -0.0900   -0.6350 c1        1 BNS     -0.072250
      4 C4          0.2740    0.0470    0.5250 c1        1 BNS     -0.242400
      5 S1          1.0840    0.0890    2.1010 s4        1 BNS      1.629200
      6 O1          0.2290   -0.5420    3.1740 o         1 BNS     -0.678400
      7 O2          2.2930   -0.8160    2.1200 o         1 BNS     -0.678400
      8 C5         -1.1080    0.1250    0.4540 c1        1 BNS      0.013500
      9 C6         -1.7440    0.0660   -0.7760 c1        1 BNS     -0.072250
     10 H1         -1.4440   -0.1130   -2.8020 ha        1 BNS      0.056500
     11 H2          0.9110   -0.2460   -2.6820 ha        1 BNS      0.056500
     12 H3          1.9940   -0.1450   -0.5850 ha        1 BNS      0.056500
     13 H5         -1.6340    0.2220    1.2710 ha        1 BNS      0.085500
     14 H6         -2.7170    0.1150   -0.8260 ha        1 BNS      0.056500
     15 O3          1.4560    1.5080    2.4610 os        1 BNS     -1.065000
@<TRIPOS>BOND
     1    1    9 3   
     2    1   10 1   
     3    2    3 3   
     4    2   11 1   
     5    3   12 1   
     6    4    5 1   
     7    4    8 3   
     8    5    6 1   
     9    5    7 1   
    10    8   13 1   
    11    9   14 1   
@<TRIPOS>SUBSTRUCTURE
     1 BNS         1 TEMP              0 ****  ****    0 ROOT
