@<TRIPOS>MOLECULE
BNS
   15    14     1     0     0
SMALL
bcc


@<TRIPOS>ATOM
      1 C1          0.1420    0.1210   -0.1000 c3        1 BNS     -0.119000
      2 C2          1.6150    0.3380   -0.0920 c2        1 BNS     -0.548000
      3 C3          2.4130    0.3560    0.9650 c1        1 BNS      0.177000
      4 C4          1.3170   -0.4410    2.8310 c2        1 BNS     -0.725000
      5 S1          2.0670   -0.1540    4.4220 s6        1 BNS      2.869000
      6 O1          1.3260   -1.0020    5.2790 o         1 BNS     -1.064000
      7 O2          3.4130   -0.5420    4.2840 o         1 BNS     -1.064000
      8 C5          0.3000    0.3150    2.3660 c2        1 BNS     -0.150000
      9 C6         -0.4710    0.0590    1.2160 c1        1 BNS     -0.039000
     10 H1         -0.3630    0.9630   -0.6570 hc        1 BNS      0.118500
     11 H2         -0.1160   -0.8290   -0.6520 hc        1 BNS      0.118500
     12 H3          2.0630    0.5080   -1.0870 ha        1 BNS      0.158000
     13 H5          1.6150   -1.3830    2.3500 h4        1 BNS      0.145000
     14 H6         -0.0290    1.1940    2.9670 ha        1 BNS      0.186000
     15 O3          1.8570    1.2220    4.6730 o         1 BNS     -1.064000
@<TRIPOS>BOND
     1    1    2 1   
     2    1    9 1   
     3    1   10 1   
     4    1   11 1   
     5    2    3 1   
     6    2   12 1   
     7    4    5 1   
     8    4    8 1   
     9    4   13 1   
    10    5    6 1   
    11    5    7 1   
    12    5   15 1   
    13    8    9 1   
    14    8   14 1   
@<TRIPOS>SUBSTRUCTURE
     1 BNS         1 TEMP              0 ****  ****    0 ROOT
