@<TRIPOS>MOLECULE
BNT
   24    24     1     0     0
SMALL
bcc


@<TRIPOS>ATOM
      1 CAA        -0.0590   -0.4550    0.1280 c3        1 BNT     -0.096100
      2 CAD         1.3960   -0.0860   -0.0960 c3        1 BNT     -0.035500
      3 CAC         2.0250    0.4170    1.1910 c3        1 BNT     -0.096100
      4 CAE         2.1720   -1.2440   -0.6390 cc        1 BNT     -0.079400
      5 CAF         1.9970   -2.5620    0.0460 c         1 BNT      0.568500
      6 OAB         1.8240   -2.6660    1.2600 o         1 BNT     -0.466100
      7 CAG         2.0930   -3.7300   -0.8700 cc        1 BNT     -0.135500
      8 BrAH        1.0310   -5.2180   -0.5050 br        1 BNT     -0.016700
      9 CAL         2.9380   -3.6650   -1.9200 cd        1 BNT     -0.088400
     10 CAM         3.1670   -4.7560   -2.8900 c3        1 BNT     -0.076900
     11 CAK         3.7190   -2.4100   -2.1350 c         1 BNT      0.561500
     12 OAN         4.8450   -2.4210   -2.6320 o         1 BNT     -0.464100
     13 CAJ         3.0180   -1.1760   -1.6890 cd        1 BNT     -0.130500
     14 BrAI        3.3630    0.3870   -2.6530 br        1 BNT     -0.017700
     15 HAA1       -0.5170   -0.8390   -0.8140 hc        1 BNT      0.048200
     16 HAA2       -0.1510   -1.2380    0.9200 hc        1 BNT      0.048200
     17 HAA3       -0.6250    0.4490    0.4570 hc        1 BNT      0.048200
     18 HAD         1.4220    0.7540   -0.8510 hc        1 BNT      0.071700
     19 HAC1        1.4430    1.2890    1.5750 hc        1 BNT      0.048200
     20 HAC2        2.0230   -0.3860    1.9680 hc        1 BNT      0.048200
     21 HAC3        3.0780    0.7420    1.0110 hc        1 BNT      0.048200
     22 HAM1        2.2630   -4.8870   -3.5380 hc        1 BNT      0.071367
     23 HAM2        4.0470   -4.5290   -3.5440 hc        1 BNT      0.071367
     24 HAM3        3.3610   -5.7230   -2.3600 hc        1 BNT      0.071367
@<TRIPOS>BOND
     1    1    2 1   
     2    1   15 1   
     3    1   16 1   
     4    1   17 1   
     5    2    3 1   
     6    2    4 1   
     7    2   18 1   
     8    3   19 1   
     9    3   20 1   
    10    3   21 1   
    11    4    5 1   
    12    4   13 2   
    13    5    6 2   
    14    5    7 1   
    15    7    8 1   
    16    7    9 2   
    17    9   10 1   
    18    9   11 1   
    19   10   22 1   
    20   10   23 1   
    21   10   24 1   
    22   11   12 2   
    23   11   13 1   
    24   13   14 1   
@<TRIPOS>SUBSTRUCTURE
     1 BNT         1 TEMP              0 ****  ****    0 ROOT
