@<TRIPOS>MOLECULE
BNT
   24    24     1     0     0
SMALL
bcc


@<TRIPOS>ATOM
      1 CAA         1.7660   -2.8830    1.1230 c3        1 BNT     -0.096100
      2 CAD         1.5980   -2.0260   -0.1180 c3        1 BNT     -0.035500
      3 CAC         1.0050   -2.8390   -1.2540 c3        1 BNT     -0.096100
      4 CAE         0.7590   -0.8260    0.1850 cc        1 BNT     -0.079400
      5 CAF        -0.7140   -1.0420    0.3220 c         1 BNT      0.568500
      6 OAB        -1.1970   -2.0630    0.8110 o         1 BNT     -0.466100
      7 CAG        -1.5350    0.1070   -0.1480 cc        1 BNT     -0.135500
      8 BRAH       -3.1810   -0.2600   -0.9400 br        1 BNT     -0.016700
      9 CAL        -1.0560    1.3580    0.0180 cd        1 BNT     -0.088400
     10 CAM        -1.7710    2.5930   -0.3640 c3        1 BNT     -0.076900
     11 CAK         0.2900    1.5340    0.6390 c         1 BNT      0.561500
     12 OAN         0.5660    2.5150    1.3300 o         1 BNT     -0.464100
     13 CAJ         1.2400    0.4250    0.3520 cd        1 BNT     -0.130500
     14 BRAI        3.0490    0.8730    0.2260 br        1 BNT     -0.017700
     15 HAA1        2.2550   -2.2990    1.9390 hc        1 BNT      0.048200
     16 HAA2        0.7730   -3.2470    1.4850 hc        1 BNT      0.048200
     17 HAA3        2.4060   -3.7670    0.8830 hc        1 BNT      0.048200
     18 HAD         2.6220   -1.6790   -0.4460 hc        1 BNT      0.071700
     19 HAC1        0.0160   -3.2680   -0.9590 hc        1 BNT      0.048200
     20 HAC2        0.8670   -2.2050   -2.1620 hc        1 BNT      0.048200
     21 HAC3        1.6940   -3.6810   -1.5080 hc        1 BNT      0.048200
     22 HAM1       -1.8110    2.6830   -1.4800 hc        1 BNT      0.071367
     23 HAM2       -2.8210    2.5790    0.0240 hc        1 BNT      0.071367
     24 HAM3       -1.2540    3.4960    0.0500 hc        1 BNT      0.071367
@<TRIPOS>BOND
     1    1    2 1   
     2    1   15 1   
     3    1   16 1   
     4    1   17 1   
     5    2    3 1   
     6    2    4 1   
     7    2   18 1   
     8    3   19 1   
     9    3   20 1   
    10    3   21 1   
    11    4    5 1   
    12    4   13 2   
    13    5    6 2   
    14    5    7 1   
    15    7    8 1   
    16    7    9 2   
    17    9   10 1   
    18    9   11 1   
    19   10   22 1   
    20   10   23 1   
    21   10   24 1   
    22   11   12 2   
    23   11   13 1   
    24   13   14 1   
@<TRIPOS>SUBSTRUCTURE
     1 BNT         1 TEMP              0 ****  ****    0 ROOT
