@<TRIPOS>MOLECULE
BNT
   24    24     1     0     0
SMALL
bcc


@<TRIPOS>ATOM
      1 CAA        -0.0450   -0.4070    0.0830 c3        1 BNT     -0.096100
      2 CAD         1.4290   -0.0830   -0.0730 c3        1 BNT     -0.035500
      3 CAC         2.0220    0.3620    1.2530 c3        1 BNT     -0.096100
      4 CAE         2.1860   -1.2520   -0.6180 cc        1 BNT     -0.079400
      5 CAF         1.9390   -2.5810    0.0200 c         1 BNT      0.568500
      6 OAB         1.7140   -2.7130    1.2230 o         1 BNT     -0.466100
      7 CAG         2.0320   -3.7260   -0.9260 cc        1 BNT     -0.135500
      8 BRAH        0.9060   -5.1850   -0.6460 br        1 BNT     -0.016700
      9 CAL         2.9210   -3.6610   -1.9390 cd        1 BNT     -0.088400
     10 CAM         3.1510   -4.7310   -2.9310 c3        1 BNT     -0.076900
     11 CAK         3.7530   -2.4290   -2.0850 c         1 BNT      0.561500
     12 OAN         4.8970   -2.4660   -2.5380 o         1 BNT     -0.464100
     13 CAJ         3.0760   -1.1840   -1.6310 cd        1 BNT     -0.130500
     14 BRAI        3.5130    0.3920   -2.5340 br        1 BNT     -0.017700
     15 HAA1       -0.4780   -0.7480   -0.8880 hc        1 BNT      0.048200
     16 HAA2       -0.1970   -1.2080    0.8480 hc        1 BNT      0.048200
     17 HAA3       -0.5940    0.5070    0.4150 hc        1 BNT      0.048200
     18 HAD         1.5140    0.7770   -0.8010 hc        1 BNT      0.071700
     19 HAC1        1.4540    1.2420    1.6390 hc        1 BNT      0.048200
     20 HAC2        1.9610   -0.4630    2.0050 hc        1 BNT      0.048200
     21 HAC3        3.0910    0.6540    1.1240 hc        1 BNT      0.048200
     22 HAM1        2.2710   -4.8120   -3.6180 hc        1 BNT      0.071367
     23 HAM2        4.0650   -4.5180   -3.5420 hc        1 BNT      0.071367
     24 HAM3        3.2910   -5.7200   -2.4220 hc        1 BNT      0.071367
@<TRIPOS>BOND
     1    1    2 1   
     2    1   15 1   
     3    1   16 1   
     4    1   17 1   
     5    2    3 1   
     6    2    4 1   
     7    2   18 1   
     8    3   19 1   
     9    3   20 1   
    10    3   21 1   
    11    4    5 1   
    12    4   13 2   
    13    5    6 2   
    14    5    7 1   
    15    7    8 1   
    16    7    9 2   
    17    9   10 1   
    18    9   11 1   
    19   10   22 1   
    20   10   23 1   
    21   10   24 1   
    22   11   12 2   
    23   11   13 1   
    24   13   14 1   
@<TRIPOS>SUBSTRUCTURE
     1 BNT         1 TEMP              0 ****  ****    0 ROOT
