@<TRIPOS>MOLECULE
BNT
   24    23     1     0     0
SMALL
bcc


@<TRIPOS>ATOM
      1 CAA        -2.0290    1.9150    0.8030 c3        1 BNT     -0.214000
      2 CAD        -0.5180    1.8600    0.8610 c3        1 BNT     -0.079000
      3 CAC        -0.0690    1.8260    2.3050 c3        1 BNT     -0.214000
      4 CAE        -0.0310    0.6160    0.1520 c2        1 BNT     -0.056000
      5 CAF        -0.5190   -0.7460    0.5940 c2        1 BNT      0.291000
      6 OAB        -1.2700   -0.8430    1.5440 o         1 BNT     -0.227000
      7 CAG        -0.0750   -1.9870   -0.1490 c2        1 BNT     -0.242000
      8 BRAH       -0.6910   -3.7080    0.4100 br        1 BNT      0.109000
      9 CAL         0.8690   -1.8670   -1.3250 c1        1 BNT     -0.065000
     10 CAM         1.2910   -3.1050   -2.0860 c2        1 BNT     -0.199000
     11 CAK         1.3720   -0.5070   -1.7560 c2        1 BNT      0.284000
     12 OAN         2.1360   -0.4110   -2.6950 o         1 BNT     -0.225000
     13 CAJ         0.9250    0.7340   -1.0150 c2        1 BNT     -0.237000
     14 BRAI        1.5860    2.4500   -1.5380 br        1 BNT      0.108000
     15 HAA1       -2.3280    2.8370    0.9520 hc        1 BNT      0.087500
     16 HAA2       -2.4030    1.3340    1.4980 hc        1 BNT      0.087500
     17 HAA3       -2.3330    1.6110   -0.0770 hc        1 BNT      0.087500
     18 HAD        -0.1460    2.6500    0.4230 hc        1 BNT      0.111000
     19 HAC1       -0.0280    2.7400    2.6560 hc        1 BNT      0.087500
     20 HAC2        0.8190    1.4150    2.3610 hc        1 BNT      0.087500
     21 HAC3       -0.7060    1.3010    2.8330 hc        1 BNT      0.087500
     22 HAM1        0.6220   -3.8100   -1.9600 ha        1 BNT      0.110667
     23 HAM2        1.3660   -2.8920   -3.0400 ha        1 BNT      0.110667
     24 HAM3        2.1590   -3.4150   -1.7510 ha        1 BNT      0.110667
@<TRIPOS>BOND
     1    1    2 1   
     2    1   15 1   
     3    1   16 1   
     4    1   17 1   
     5    2    3 1   
     6    2    4 1   
     7    2   18 1   
     8    3   19 1   
     9    3   20 1   
    10    3   21 1   
    11    4    5 1   
    12    4   13 1   
    13    5    6 1   
    14    5    7 1   
    15    7    8 1   
    16    7    9 1   
    17    9   11 1   
    18   10   22 1   
    19   10   23 1   
    20   10   24 1   
    21   11   12 1   
    22   11   13 1   
    23   13   14 1   
@<TRIPOS>SUBSTRUCTURE
     1 BNT         1 TEMP              0 ****  ****    0 ROOT
