@<TRIPOS>MOLECULE
BNU
   40    35     1     0     0
SMALL
bcc


@<TRIPOS>ATOM
      1 BR         -4.0690   -0.0690    0.0290 br        1 BNU      0.032000
      2 CAP        -2.1450   -0.0460    0.1650 c1        1 BNU     -0.211000
      3 CAF        -1.9810   -0.1350    1.5590 c1        1 BNU     -0.024000
      4 CAT        -0.6660   -0.0780    2.1300 c1        1 BNU     -0.197000
      5 CAS        -0.4950   -0.0220    3.6410 c1        1 BNU      0.350500
      6 OAC        -1.4670   -0.0350    4.3610 o         1 BNU     -0.442500
      7 CAQ         0.8340    0.0830    4.2140 c1        1 BNU     -0.226000
      8 CAO         1.0220   -0.0460    5.7070 c1        1 BNU      0.350500
      9 OAD         0.9590   -1.1750    6.2480 o         1 BNU     -0.442500
     10 OAB         1.0860    0.9760    6.4130 os        1 BNU     -0.527000
     11 CAH         2.0200    0.1330    3.3170 c1        1 BNU     -0.022000
     12 NAW         1.8370    0.0740    1.8790 n2        1 BNU     -0.211000
     13 CAI         2.9620    0.1220    1.0170 c3        1 BNU     -0.012000
     14 CAA         4.0020   -0.9590    1.4480 c3        1 BNU     -0.226000
     15 CAU         0.4530    0.0660    1.2950 c2        1 BNU      0.136000
     16 CAG         0.2830    0.1540   -0.1030 c2        1 BNU     -0.246000
     17 CAR        -1.0250    0.0970   -0.6680 c1        1 BNU      0.070000
     18 NAV        -1.6550    0.1290   -1.9800 n3        1 BNU     -0.221000
     19 CAL        -1.3340    1.3690   -2.6350 c3        1 BNU     -0.062000
     20 CAJ        -1.8390    1.4170   -4.0690 c3        1 BNU     -0.077000
     21 NAN        -1.4340    0.2750   -4.8280 n3        1 BNU     -0.299000
     22 CAK        -1.7550   -0.9620   -4.1770 c3        1 BNU     -0.077000
     23 CAM        -1.2500   -1.0100   -2.7330 c3        1 BNU     -0.062000
     24 H1         -2.7840   -0.0380    2.0270 ha        1 BNU      0.170000
     25 H3          2.9420    0.3310    3.7010 ha        1 BNU      0.175000
     26 H4          2.6780   -0.0500    0.1100 h1        1 BNU      0.072000
     27 H5          3.3630    0.9850    1.0670 h1        1 BNU      0.072000
     28 H6          4.6650   -0.5500    2.0850 hc        1 BNU      0.088000
     29 H7          3.5330   -1.7050    1.8930 hc        1 BNU      0.088000
     30 H8          4.4820   -1.3010    0.6430 hc        1 BNU      0.088000
     31 H9          0.9880    0.1040   -0.8340 ha        1 BNU      0.131000
     32 H10        -1.7190    2.0750   -2.1550 h1        1 BNU      0.082500
     33 H11        -0.3770    1.4800   -2.6390 h1        1 BNU      0.082500
     34 H12        -1.4790    2.2570   -4.5170 h1        1 BNU      0.070750
     35 H13        -2.8260    1.4580   -4.0580 h1        1 BNU      0.070750
     36 H14        -1.8330    0.3000   -5.6590 hn        1 BNU      0.149000
     37 H16        -1.3350   -1.7200   -4.6920 h1        1 BNU      0.070750
     38 H17        -2.7390   -1.0770   -4.1780 h1        1 BNU      0.070750
     39 H18        -1.6180   -1.8480   -2.2840 h1        1 BNU      0.082500
     40 H19        -0.2830   -1.0560   -2.7380 h1        1 BNU      0.082500
@<TRIPOS>BOND
     1    1    2 1   
     2    2    3 1   
     3    3   24 1   
     4    4   15 1   
     5    5    6 1   
     6    7   11 1   
     7    8    9 1   
     8   11   25 1   
     9   12   13 1   
    10   12   15 1   
    11   13   14 1   
    12   13   26 1   
    13   13   27 1   
    14   14   28 1   
    15   14   29 1   
    16   14   30 1   
    17   15   16 1   
    18   16   17 1   
    19   16   31 1   
    20   17   18 1   
    21   18   19 1   
    22   18   23 1   
    23   19   20 1   
    24   19   32 1   
    25   19   33 1   
    26   20   21 1   
    27   20   34 1   
    28   20   35 1   
    29   21   22 1   
    30   21   36 1   
    31   22   23 1   
    32   22   37 1   
    33   22   38 1   
    34   23   39 1   
    35   23   40 1   
@<TRIPOS>SUBSTRUCTURE
     1 BNU         1 TEMP              0 ****  ****    0 ROOT
