@<TRIPOS>MOLECULE
BNU
   40    42     1     0     0
SMALL
bcc


@<TRIPOS>ATOM
      1 BR          0.0380   -0.1160    0.0900 br        1 BNU     -0.108100
      2 CAP         1.9120   -0.0770    0.0100 ca        1 BNU     -0.070900
      3 CAF         2.6340   -0.1010    1.2000 ca        1 BNU     -0.024000
      4 CAT         4.0290   -0.0710    1.2210 ca        1 BNU     -0.219600
      5 CAS         4.7340   -0.1290    2.5320 c         1 BNU      0.597900
      6 OAC         4.0830   -0.3080    3.5720 o         1 BNU     -0.548100
      7 CAQ         6.1850    0.0010    2.4460 cc        1 BNU     -0.257400
      8 CAO         7.0770    0.0790    3.6890 c         1 BNU      0.930800
      9 OAD         8.0880   -0.6790    3.7000 o         1 BNU     -0.814800
     10 OAB         6.7890    0.9220    4.5740 o         1 BNU     -0.814800
     11 CAH         6.8010    0.0610    1.2400 cd        1 BNU      0.057000
     12 NAW         6.1330    0.0900    0.0090 na        1 BNU     -0.530800
     13 CAI         6.9100    0.0410   -1.2080 c3        1 BNU      0.218800
     14 CAA         7.0320   -1.3350   -1.8500 c3        1 BNU     -0.123100
     15 CAU         4.7470    0.0010   -0.0070 ca        1 BNU      0.220600
     16 CAG         4.0060    0.0050   -1.2170 ca        1 BNU     -0.245000
     17 CAR         2.6070   -0.0290   -1.2200 ca        1 BNU      0.151600
     18 NAV         1.8540   -0.0180   -2.4450 nh        1 BNU     -0.619000
     19 CAL         2.0360    1.2120   -3.2060 c3        1 BNU      0.174800
     20 CAJ         1.2040    1.2220   -4.5040 c3        1 BNU      0.159800
     21 NAN         1.3850    0.0280   -5.3080 n3        1 BNU     -0.820200
     22 CAK         1.2490   -1.2010   -4.5510 c3        1 BNU      0.159800
     23 CAM         2.0810   -1.2110   -3.2530 c3        1 BNU      0.174800
     24 H1          2.1130   -0.1510    2.1750 ha        1 BNU      0.170000
     25 H3          7.9060    0.1010    1.1820 h4        1 BNU      0.168000
     26 H4          6.4580    0.7570   -1.9540 h1        1 BNU      0.049200
     27 H5          7.9470    0.4170   -0.9710 h1        1 BNU      0.049200
     28 H6          7.6520   -1.2470   -2.7740 hc        1 BNU      0.043033
     29 H7          6.0290   -1.7400   -2.1270 hc        1 BNU      0.043033
     30 H8          7.5230   -2.0560   -1.1540 hc        1 BNU      0.043033
     31 H9          4.5360    0.0320   -2.1820 ha        1 BNU      0.132000
     32 H10         3.1200    1.3870   -3.4710 h1        1 BNU      0.043200
     33 H11         1.6930    2.0670   -2.5610 h1        1 BNU      0.043200
     34 H12         0.1210    1.3880   -4.2270 h1        1 BNU      0.031700
     35 H13         1.5390    2.1000   -5.1220 h1        1 BNU      0.031700
     36 H14         0.7300    0.0310   -6.0670 hn        1 BNU      0.353800
     37 H16         0.1740   -1.4190   -4.2820 h1        1 BNU      0.031700
     38 H17         1.6170   -2.0420   -5.2030 h1        1 BNU      0.031700
     39 H18         3.1700   -1.3360   -3.5220 h1        1 BNU      0.043200
     40 H19         1.7690   -2.1020   -2.6420 h1        1 BNU      0.043200
@<TRIPOS>BOND
     1    1    2 1   
     2    2    3 ar  
     3    2   17 ar  
     4    3    4 ar  
     5    3   24 1   
     6    4    5 1   
     7    4   15 ar  
     8    5    6 2   
     9    5    7 1   
    10    7    8 1   
    11    7   11 2   
    12    8    9 1   
    13    8   10 1   
    14   11   12 1   
    15   11   25 1   
    16   12   13 1   
    17   12   15 1   
    18   13   14 1   
    19   13   26 1   
    20   13   27 1   
    21   14   28 1   
    22   14   29 1   
    23   14   30 1   
    24   15   16 ar  
    25   16   17 ar  
    26   16   31 1   
    27   17   18 1   
    28   18   19 1   
    29   18   23 1   
    30   19   20 1   
    31   19   32 1   
    32   19   33 1   
    33   20   21 1   
    34   20   34 1   
    35   20   35 1   
    36   21   22 1   
    37   21   36 1   
    38   22   23 1   
    39   22   37 1   
    40   22   38 1   
    41   23   39 1   
    42   23   40 1   
@<TRIPOS>SUBSTRUCTURE
     1 BNU         1 TEMP              0 ****  ****    0 ROOT
