@<TRIPOS>MOLECULE
BNU
   40    42     1     0     0
SMALL
bcc


@<TRIPOS>ATOM
      1 BR          2.2390    2.5220   -0.0310 br        1 BNU     -0.105100
      2 CAP         0.9420    1.1700    0.0580 ca        1 BNU     -0.070900
      3 CAF        -0.4030    1.5320    0.0780 ca        1 BNU     -0.023000
      4 CAT        -1.4230    0.5830    0.1470 ca        1 BNU     -0.217600
      5 CAS        -2.8410    1.0410    0.1650 c         1 BNU      0.598900
      6 OAC        -3.0960    2.2470    0.2920 o         1 BNU     -0.545100
      7 CAQ        -3.8230   -0.0340    0.0600 cc        1 BNU     -0.257400
      8 CAO        -5.3140    0.2340   -0.1680 c         1 BNU      0.930800
      9 OAD        -6.1190   -0.4390    0.5350 o         1 BNU     -0.814800
     10 OAB        -5.6390    1.0440   -1.0720 o         1 BNU     -0.814800
     11 CAH        -3.4350   -1.3300    0.1510 cd        1 BNU      0.056000
     12 NAW        -2.1050   -1.7470    0.3030 na        1 BNU     -0.531800
     13 CAI        -1.8230   -3.1620    0.3490 c3        1 BNU      0.217800
     14 CAA        -1.4950   -3.8100   -0.9890 c3        1 BNU     -0.123100
     15 CAU        -1.0910   -0.8010    0.2000 ca        1 BNU      0.220600
     16 CAG         0.2790   -1.1640    0.1690 ca        1 BNU     -0.246000
     17 CAR         1.2910   -0.1990    0.1030 ca        1 BNU      0.151600
     18 NAV         2.6820   -0.5650    0.0740 nh        1 BNU     -0.616000
     19 CAL         3.1100   -1.2320    1.2970 c3        1 BNU      0.138800
     20 CAJ         4.5960   -1.6500    1.2450 c3        1 BNU      0.146800
     21 NAN         4.9830   -2.3800    0.0530 n3        1 BNU     -0.798200
     22 CAK         4.5280   -1.7080   -1.1500 c3        1 BNU      0.146800
     23 CAM         3.0420   -1.2910   -1.1390 c3        1 BNU      0.138800
     24 H1         -0.7010    2.5960    0.0430 ha        1 BNU      0.171000
     25 H3         -4.1890   -2.1400    0.1360 h4        1 BNU      0.170000
     26 H4         -0.9670   -3.3350    1.0640 h1        1 BNU      0.050700
     27 H5         -2.7290   -3.6770    0.7830 h1        1 BNU      0.050700
     28 H6         -1.3030   -4.8970   -0.8260 hc        1 BNU      0.042033
     29 H7         -2.3450   -3.6980   -1.7030 hc        1 BNU      0.042033
     30 H8         -0.5870   -3.3500   -1.4480 hc        1 BNU      0.042033
     31 H9          0.5620   -2.2280    0.1880 ha        1 BNU      0.128000
     32 H10         2.9700   -0.5050    2.1430 h1        1 BNU      0.039700
     33 H11         2.4850   -2.1460    1.5210 h1        1 BNU      0.039700
     34 H12         5.2360   -0.7250    1.2990 h1        1 BNU      0.056200
     35 H13         4.8130   -2.2830    2.1480 h1        1 BNU      0.056200
     36 H14         4.5940   -3.3060    0.0860 hn        1 BNU      0.341800
     37 H16         5.1640   -0.7890   -1.2850 h1        1 BNU      0.056200
     38 H17         4.6950   -2.3850   -2.0320 h1        1 BNU      0.056200
     39 H18         2.4050   -2.2130   -1.2830 h1        1 BNU      0.039700
     40 H19         2.8540   -0.6040   -2.0100 h1        1 BNU      0.039700
@<TRIPOS>BOND
     1    1    2 1   
     2    2    3 ar  
     3    2   17 ar  
     4    3    4 ar  
     5    3   24 1   
     6    4    5 1   
     7    4   15 ar  
     8    5    6 2   
     9    5    7 1   
    10    7    8 1   
    11    7   11 2   
    12    8    9 1   
    13    8   10 1   
    14   11   12 1   
    15   11   25 1   
    16   12   13 1   
    17   12   15 1   
    18   13   14 1   
    19   13   26 1   
    20   13   27 1   
    21   14   28 1   
    22   14   29 1   
    23   14   30 1   
    24   15   16 ar  
    25   16   17 ar  
    26   16   31 1   
    27   17   18 1   
    28   18   19 1   
    29   18   23 1   
    30   19   20 1   
    31   19   32 1   
    32   19   33 1   
    33   20   21 1   
    34   20   34 1   
    35   20   35 1   
    36   21   22 1   
    37   21   36 1   
    38   22   23 1   
    39   22   37 1   
    40   22   38 1   
    41   23   39 1   
    42   23   40 1   
@<TRIPOS>SUBSTRUCTURE
     1 BNU         1 TEMP              0 ****  ****    0 ROOT
