@<TRIPOS>MOLECULE
BNU
   40    42     1     0     0
SMALL
bcc


@<TRIPOS>ATOM
      1 BR          0.0330   -0.0790    0.0740 br        1 BNU     -0.108100
      2 CAP         1.9070   -0.0550    0.0020 ca        1 BNU     -0.070900
      3 CAF         2.6240   -0.0790    1.1940 ca        1 BNU     -0.024000
      4 CAT         4.0190   -0.0590    1.2210 ca        1 BNU     -0.219600
      5 CAS         4.7190   -0.1160    2.5350 c         1 BNU      0.597900
      6 OAC         4.0630   -0.2850    3.5730 o         1 BNU     -0.548100
      7 CAQ         6.1710    0.0010    2.4540 cc        1 BNU     -0.257400
      8 CAO         7.0590    0.0790    3.7010 c         1 BNU      0.930800
      9 OAD         8.0630   -0.6870    3.7200 o         1 BNU     -0.814800
     10 OAB         6.7740    0.9290    4.5800 o         1 BNU     -0.814800
     11 CAH         6.7930    0.0510    1.2500 cd        1 BNU      0.057000
     12 NAW         6.1300    0.0790    0.0160 na        1 BNU     -0.530800
     13 CAI         6.9110    0.0170   -1.1970 c3        1 BNU      0.218800
     14 CAA         7.0240   -1.3620   -1.8310 c3        1 BNU     -0.123100
     15 CAU         4.7420    0.0000   -0.0040 ca        1 BNU      0.220600
     16 CAG         4.0070    0.0040   -1.2170 ca        1 BNU     -0.245000
     17 CAR         2.6080   -0.0180   -1.2260 ca        1 BNU      0.151600
     18 NAV         1.8590   -0.0090   -2.4540 nh        1 BNU     -0.619000
     19 CAL         2.0530    1.2170   -3.2200 c3        1 BNU      0.174800
     20 CAJ         1.2250    1.2270   -4.5200 c3        1 BNU      0.159800
     21 NAN         1.4030    0.0290   -5.3180 n3        1 BNU     -0.820200
     22 CAK         1.2560   -1.1970   -4.5570 c3        1 BNU      0.159800
     23 CAM         2.0820   -1.2060   -3.2560 c3        1 BNU      0.174800
     24 H1          2.0990   -0.1200    2.1680 ha        1 BNU      0.170000
     25 H3          7.8980    0.0820    1.1960 h4        1 BNU      0.168000
     26 H4          7.9500    0.3870   -0.9580 h1        1 BNU      0.049200
     27 H5          6.4680    0.7340   -1.9480 h1        1 BNU      0.049200
     28 H6          6.0190   -1.7600   -2.1110 hc        1 BNU      0.043033
     29 H7          7.5070   -2.0840   -1.1300 hc        1 BNU      0.043033
     30 H8          7.6490   -1.2840   -2.7540 hc        1 BNU      0.043033
     31 H9          4.5410    0.0230   -2.1810 ha        1 BNU      0.132000
     32 H10         1.7120    2.0770   -2.5790 h1        1 BNU      0.043200
     33 H11         3.1380    1.3850   -3.4800 h1        1 BNU      0.043200
     34 H12         1.5690    2.1010   -5.1410 h1        1 BNU      0.031700
     35 H13         0.1430    1.4010   -4.2490 h1        1 BNU      0.031700
     36 H14         0.7500    0.0320   -6.0810 hn        1 BNU      0.353800
     37 H16         0.1780   -1.4060   -4.2920 h1        1 BNU      0.031700
     38 H17         1.6210   -2.0420   -5.2040 h1        1 BNU      0.031700
     39 H18         1.7620   -2.0930   -2.6420 h1        1 BNU      0.043200
     40 H19         3.1720   -1.3390   -3.5200 h1        1 BNU      0.043200
@<TRIPOS>BOND
     1    1    2 1   
     2    2    3 ar  
     3    2   17 ar  
     4    3    4 ar  
     5    3   24 1   
     6    4    5 1   
     7    4   15 ar  
     8    5    6 2   
     9    5    7 1   
    10    7    8 1   
    11    7   11 2   
    12    8    9 1   
    13    8   10 1   
    14   11   12 1   
    15   11   25 1   
    16   12   13 1   
    17   12   15 1   
    18   13   14 1   
    19   13   26 1   
    20   13   27 1   
    21   14   28 1   
    22   14   29 1   
    23   14   30 1   
    24   15   16 ar  
    25   16   17 ar  
    26   16   31 1   
    27   17   18 1   
    28   18   19 1   
    29   18   23 1   
    30   19   20 1   
    31   19   32 1   
    32   19   33 1   
    33   20   21 1   
    34   20   34 1   
    35   20   35 1   
    36   21   22 1   
    37   21   36 1   
    38   22   23 1   
    39   22   37 1   
    40   22   38 1   
    41   23   39 1   
    42   23   40 1   
@<TRIPOS>SUBSTRUCTURE
     1 BNU         1 TEMP              0 ****  ****    0 ROOT
