@<TRIPOS>MOLECULE
BNZ
   12    12     1     0     0
SMALL
bcc


@<TRIPOS>ATOM
      1 C1          0.6810   -1.2180    0.0010 ca        1 BNZ     -0.130000
      2 C2         -0.7140   -1.1980    0.0000 ca        1 BNZ     -0.130000
      3 C3         -1.3950    0.0190   -0.0000 ca        1 BNZ     -0.130000
      4 C4         -0.6810    1.2180   -0.0010 ca        1 BNZ     -0.130000
      5 C5          0.7140    1.1980   -0.0000 ca        1 BNZ     -0.130000
      6 C6          1.3950   -0.0190    0.0000 ca        1 BNZ     -0.130000
      7 H1          1.2180   -2.1770    0.0010 ha        1 BNZ      0.130000
      8 H2         -1.2770   -2.1430    0.0010 ha        1 BNZ      0.130000
      9 H3         -2.4940    0.0340   -0.0010 ha        1 BNZ      0.130000
     10 H4         -1.2180    2.1770   -0.0010 ha        1 BNZ      0.130000
     11 H5          1.2770    2.1430   -0.0010 ha        1 BNZ      0.130000
     12 H6          2.4940   -0.0340    0.0010 ha        1 BNZ      0.130000
@<TRIPOS>BOND
     1    1    2 ar  
     2    1    6 ar  
     3    1    7 1   
     4    2    3 ar  
     5    2    8 1   
     6    3    4 ar  
     7    3    9 1   
     8    4    5 ar  
     9    4   10 1   
    10    5    6 ar  
    11    5   11 1   
    12    6   12 1   
@<TRIPOS>SUBSTRUCTURE
     1 BNZ         1 TEMP              0 ****  ****    0 ROOT
