@<TRIPOS>MOLECULE
BO1
   40    37     1     0     0
SMALL
bcc


@<TRIPOS>ATOM
      1 S1          2.8790    4.8860    1.1530 ss        1 BO1      2.872000
      2 O1          4.0530    4.3620    1.7730 o         1 BO1     -0.941000
      3 O2          2.2400    5.5160    2.2610 o         1 BO1     -0.941000
      4 N1          3.2550    5.9690   -0.0110 n2        1 BO1     -0.953000
      5 C1          1.8850    3.6070    0.4910 c1        1 BO1     -0.869000
      6 C2          0.5360    3.8530    0.1890 c1        1 BO1      0.014000
      7 C3         -0.2750    2.8180   -0.2540 c1        1 BO1     -0.208000
      8 C4          0.2470    1.5420   -0.4010 c1        1 BO1      0.118000
      9 C5          1.5930    1.2980   -0.1000 c1        1 BO1     -0.198000
     10 C6          2.4060    2.3370    0.3450 c2        1 BO1      0.014000
     11 N2         -0.5820    0.4770   -0.9700 n3        1 BO1     -0.277000
     12 C7         -0.8860   -0.6560   -0.2060 c3        1 BO1      0.090000
     13 C8         -2.2920   -1.1190   -0.5430 c3        1 BO1     -0.022000
     14 C9         -2.6270   -2.4260    0.1030 c3        1 BO1     -0.003000
     15 C10        -1.5980   -3.4680   -0.1680 c3        1 BO1      0.007000
     16 C11        -0.2030   -2.9980    0.1620 c3        1 BO1      0.038000
     17 C12         0.7830   -4.0360   -0.3190 c3        1 BO1     -0.015000
     18 O3          0.1270   -1.6990   -0.4710 os        1 BO1     -0.300000
     19 O4         -3.2190   -0.1360   -0.1080 oh        1 BO1     -0.331000
     20 O5         -3.9060   -2.8870   -0.3990 oh        1 BO1     -0.333000
     21 O6         -1.9010   -4.6540    0.6380 oh        1 BO1     -0.321000
     22 O7          1.9780   -3.9330    0.4220 oh        1 BO1     -0.325000
     23 HN11        2.7690    6.6950   -0.1090 hn        1 BO1      0.241500
     24 HN12        3.9770    5.8100   -0.5840 hn        1 BO1      0.241500
     25 H2          0.1480    4.7990    0.2990 ha        1 BO1      0.153000
     26 H3         -1.2340    2.9940   -0.4690 ha        1 BO1      0.141000
     27 H5          1.9580    0.4080   -0.2010 ha        1 BO1      0.145000
     28 H6          3.3110    2.1720    0.5490 ha        1 BO1      0.153000
     29 HN2        -0.9000    0.5520   -1.8290 hn        1 BO1      0.206000
     30 H7         -0.8500   -0.4070    0.7730 h2        1 BO1      0.117000
     31 H8         -2.3640   -1.2150   -1.4810 h1        1 BO1      0.104000
     32 H9         -2.6940   -2.2960    1.0420 h1        1 BO1      0.105000
     33 H10        -1.6350   -3.7110   -1.1250 h1        1 BO1      0.100000
     34 H11        -0.1220   -2.9070    1.1420 h1        1 BO1      0.119000
     35 H121        0.9840   -3.8800   -1.3120 h1        1 BO1      0.087500
     36 H122        0.4120   -4.9060   -0.2030 h1        1 BO1      0.087500
     37 HO4        -3.8620   -0.0240   -0.7440 ho        1 BO1      0.226000
     38 HO5        -4.5400   -2.8090    0.2580 ho        1 BO1      0.228000
     39 HO6        -2.3280   -5.2680    0.1260 ho        1 BO1      0.225000
     40 HO7         2.4750   -4.6580    0.2840 ho        1 BO1      0.204000
@<TRIPOS>BOND
     1    1    2 1   
     2    1    3 1   
     3    4   23 1   
     4    4   24 1   
     5    5    6 1   
     6    5   10 1   
     7    6   25 1   
     8    7    8 1   
     9    7   26 1   
    10    8   11 1   
    11    9   10 1   
    12    9   27 1   
    13   10   28 1   
    14   11   12 1   
    15   11   29 1   
    16   12   13 1   
    17   12   18 1   
    18   12   30 1   
    19   13   14 1   
    20   13   19 1   
    21   13   31 1   
    22   14   15 1   
    23   14   20 1   
    24   14   32 1   
    25   15   16 1   
    26   15   21 1   
    27   15   33 1   
    28   16   17 1   
    29   16   18 1   
    30   16   34 1   
    31   17   22 1   
    32   17   35 1   
    33   17   36 1   
    34   19   37 1   
    35   20   38 1   
    36   21   39 1   
    37   22   40 1   
@<TRIPOS>SUBSTRUCTURE
     1 BO1         1 TEMP              0 ****  ****    0 ROOT
