@<TRIPOS>MOLECULE
BO1
   42    43     1     0     0
SMALL
bcc


@<TRIPOS>ATOM
      1 S1          0.3390   -0.4080    0.0450 sy        1 BO1      1.465200
      2 O1          1.3670    0.2880   -0.5440 o         1 BO1     -0.534300
      3 O2          0.2620   -0.7120    1.3830 o         1 BO1     -0.534300
      4 N1         -1.0600    0.8540   -0.1030 n4        1 BO1     -0.800500
      5 C1         -0.2650   -1.5920   -0.9160 ca        1 BO1     -0.473500
      6 C2         -1.0060   -2.6550   -0.3710 ca        1 BO1      0.020000
      7 C3         -1.3930   -3.7490   -1.1430 ca        1 BO1     -0.117500
      8 C4         -1.0290   -3.7900   -2.5010 ca        1 BO1      0.073600
      9 C5         -0.3120   -2.7250   -3.0790 ca        1 BO1     -0.117500
     10 C6          0.0630   -1.6460   -2.2840 ca        1 BO1      0.020000
     11 N2         -1.3570   -4.9630   -3.3170 n4        1 BO1     -0.660400
     12 C7         -2.8340   -5.3170   -3.3060 c3        1 BO1      0.338300
     13 C8         -3.1700   -6.2990   -4.4590 c3        1 BO1      0.110100
     14 C9         -4.6650   -6.6400   -4.3380 c3        1 BO1      0.117100
     15 C10        -4.9550   -7.2290   -2.9400 c3        1 BO1      0.080100
     16 C11        -4.4510   -6.2710   -1.8470 c3        1 BO1      0.117100
     17 C12        -4.4840   -6.8990   -0.4510 c3        1 BO1      0.134400
     18 O3         -3.0560   -5.9570   -2.0620 os        1 BO1     -0.434600
     19 O4         -2.8540   -5.6180   -5.6530 oh        1 BO1     -0.630800
     20 O5         -4.9090   -7.5920   -5.3500 oh        1 BO1     -0.588800
     21 O6         -6.3630   -7.3260   -2.8640 oh        1 BO1     -0.577800
     22 O7         -4.0050   -5.9070    0.4420 oh        1 BO1     -0.621800
     23 HN11       -1.4510    1.0620    0.8200 hn        1 BO1      0.470133
     24 HN12       -0.7050    1.7370   -0.4820 hn        1 BO1      0.470133
     25 H2         -1.2690   -2.6520    0.7080 ha        1 BO1      0.197500
     26 H3         -1.9820   -4.5690   -0.6730 ha        1 BO1      0.211500
     27 H5         -0.0240   -2.7280   -4.1480 ha        1 BO1      0.211500
     28 H6          0.6620   -0.8310   -2.7420 ha        1 BO1      0.197500
     29 HN2        -0.8270   -5.7710   -2.9520 hn        1 BO1      0.488800
     30 H7         -3.4230   -4.3570   -3.3970 hx        1 BO1      0.116700
     31 H8         -2.5600   -7.2440   -4.3830 h1        1 BO1      0.094700
     32 H9         -5.2980   -5.7240   -4.5050 h1        1 BO1      0.080700
     33 H10        -4.4620   -8.2350   -2.8410 h1        1 BO1      0.085700
     34 H11        -5.0450   -5.3160   -1.8570 h1        1 BO1      0.087700
     35 H121       -5.5450   -7.1830   -0.2190 h1        1 BO1      0.065700
     36 H122       -3.8190   -7.8020   -0.4050 h1        1 BO1      0.065700
     37 HO4        -3.3070   -6.0750   -6.3830 ho        1 BO1      0.482000
     38 HO5        -5.8510   -7.8200   -5.3080 ho        1 BO1      0.457000
     39 HO6        -6.5800   -8.0630   -2.2760 ho        1 BO1      0.436000
     40 HO7        -4.2430   -6.1950    1.3330 ho        1 BO1      0.436000
     41 H13        -1.8280    0.5560   -0.6980 hn        1 BO1      0.470133
     42 H22        -1.0960   -4.8020   -4.3060 hn        1 BO1      0.488800
@<TRIPOS>BOND
     1    1    2 2   
     2    1    3 2   
     3    1    4 1   
     4    1    5 1   
     5    4   23 1   
     6    4   24 1   
     7    4   41 1   
     8    5    6 ar  
     9    5   10 ar  
    10    6    7 ar  
    11    6   25 1   
    12    7    8 ar  
    13    7   26 1   
    14    8    9 ar  
    15    8   11 1   
    16    9   10 ar  
    17    9   27 1   
    18   10   28 1   
    19   11   12 1   
    20   11   29 1   
    21   11   42 1   
    22   12   13 1   
    23   12   18 1   
    24   12   30 1   
    25   13   14 1   
    26   13   19 1   
    27   13   31 1   
    28   14   15 1   
    29   14   20 1   
    30   14   32 1   
    31   15   16 1   
    32   15   21 1   
    33   15   33 1   
    34   16   17 1   
    35   16   18 1   
    36   16   34 1   
    37   17   22 1   
    38   17   35 1   
    39   17   36 1   
    40   19   37 1   
    41   20   38 1   
    42   21   39 1   
    43   22   40 1   
@<TRIPOS>SUBSTRUCTURE
     1 BO1         1 TEMP              0 ****  ****    0 ROOT
