@<TRIPOS>MOLECULE
BO1
   41    41     1     0     0
SMALL
bcc


@<TRIPOS>ATOM
      1 S1          0.4550   -0.7450    0.2770 s4        1 BO1      1.679300
      2 O1          1.6980   -0.2520   -0.0150 o         1 BO1     -0.463900
      3 O2         -0.0330   -0.7460    1.5560 o         1 BO1     -0.463900
      4 N1         -0.6190    1.0910   -0.3270 n9        1 BO1     -1.102400
      5 C1         -0.2020   -1.6850   -0.7470 ca        1 BO1     -0.712500
      6 C2         -1.3900   -2.4220   -0.4440 ca        1 BO1      0.059000
      7 C3         -1.9630   -3.2960   -1.3210 ca        1 BO1     -0.231500
      8 C4         -1.3830   -3.5210   -2.6180 ca        1 BO1      0.335600
      9 C5         -0.1770   -2.7930   -2.9330 ca        1 BO1     -0.231500
     10 C6          0.3690   -1.9260   -2.0340 ca        1 BO1      0.059000
     11 N2         -1.9200   -4.3540   -3.5350 nu        1 BO1     -0.694600
     12 C7         -3.1520   -5.1010   -3.3670 c3        1 BO1      0.411300
     13 C8         -3.3490   -6.1630   -4.4890 c3        1 BO1      0.115100
     14 C9         -4.6840   -6.8800   -4.2250 c3        1 BO1      0.074100
     15 C10        -4.6770   -7.4950   -2.8140 c3        1 BO1      0.083100
     16 C11        -4.3620   -6.3960   -1.7850 c3        1 BO1      0.142100
     17 C12        -4.1990   -6.9690   -0.3770 c3        1 BO1      0.135400
     18 O3         -3.1020   -5.7960   -2.1110 os        1 BO1     -0.423600
     19 O4         -3.3630   -5.4720   -5.7210 oh        1 BO1     -0.607800
     20 O5         -4.7800   -7.8920   -5.2120 oh        1 BO1     -0.597800
     21 O6         -5.9660   -7.9950   -2.5100 oh        1 BO1     -0.586800
     22 O7         -4.2210   -5.8640    0.5120 oh        1 BO1     -0.610800
     23 HN11       -1.1340    1.4430    0.4640 hn        1 BO1      0.415800
     24 HN12       -1.2570    0.9170   -1.0840 hn        1 BO1      0.415800
     25 H2         -1.8470   -2.2820    0.5550 ha        1 BO1      0.164000
     26 H3         -2.8590   -3.8710   -1.0180 ha        1 BO1      0.182500
     27 H5          0.3110   -2.9480   -3.9100 ha        1 BO1      0.182500
     28 H6          1.3030   -1.3890   -2.2960 ha        1 BO1      0.164000
     29 HN2        -1.4560   -4.4880   -4.4120 hn        1 BO1      0.476800
     30 H7         -4.0200   -4.3730   -3.3680 h2        1 BO1      0.081700
     31 H8         -2.5100   -6.9140   -4.4770 h1        1 BO1      0.079700
     32 H9         -5.5410   -6.1570   -4.3230 h1        1 BO1      0.072700
     33 H10        -3.9030   -8.3100   -2.7600 h1        1 BO1      0.074700
     34 H11        -5.1720   -5.6150   -1.7890 h1        1 BO1      0.080700
     35 H121       -3.2210   -7.5110   -0.2820 h1        1 BO1      0.058200
     36 H122       -5.0550   -7.6680   -0.1790 h1        1 BO1      0.058200
     37 HO4        -3.6570   -6.1040   -6.3940 ho        1 BO1      0.447000
     38 HO5        -5.6980   -8.1920   -5.2190 ho        1 BO1      0.426000
     39 HO6        -6.0240   -8.8770   -2.9000 ho        1 BO1      0.421000
     40 HO7        -4.3480   -6.2240    1.3980 ho        1 BO1      0.418000
     41 H13         0.0530    1.7840   -0.6140 hn        1 BO1      0.415800
@<TRIPOS>BOND
     1    1    2 1   
     2    1    3 1   
     3    1    5 1   
     4    4   23 1   
     5    4   24 1   
     6    4   41 1   
     7    5    6 ar  
     8    5   10 ar  
     9    6    7 ar  
    10    6   25 1   
    11    7    8 ar  
    12    7   26 1   
    13    8    9 ar  
    14    8   11 1   
    15    9   10 ar  
    16    9   27 1   
    17   10   28 1   
    18   11   12 1   
    19   11   29 1   
    20   12   13 1   
    21   12   18 1   
    22   12   30 1   
    23   13   14 1   
    24   13   19 1   
    25   13   31 1   
    26   14   15 1   
    27   14   20 1   
    28   14   32 1   
    29   15   16 1   
    30   15   21 1   
    31   15   33 1   
    32   16   17 1   
    33   16   18 1   
    34   16   34 1   
    35   17   22 1   
    36   17   35 1   
    37   17   36 1   
    38   19   37 1   
    39   20   38 1   
    40   21   39 1   
    41   22   40 1   
@<TRIPOS>SUBSTRUCTURE
     1 BO1         1 TEMP              0 ****  ****    0 ROOT
