@<TRIPOS>MOLECULE
BO1
   41    41     1     0     0
SMALL
bcc


@<TRIPOS>ATOM
      1 S1          0.5220   -0.7990    0.2720 s4        1 BO1      1.679300
      2 O1          1.7560   -0.2990   -0.0440 o         1 BO1     -0.463900
      3 O2          0.0710   -0.8300    1.5640 o         1 BO1     -0.463900
      4 N1         -0.5690    1.0500   -0.2590 n3        1 BO1     -1.102400
      5 C1         -0.1650   -1.7160   -0.7540 ca        1 BO1     -0.712500
      6 C2         -1.3430   -2.4600   -0.4350 ca        1 BO1      0.059000
      7 C3         -1.9420   -3.3140   -1.3140 ca        1 BO1     -0.231500
      8 C4         -1.3980   -3.5100   -2.6320 ca        1 BO1      0.335600
      9 C5         -0.2020   -2.7740   -2.9640 ca        1 BO1     -0.231500
     10 C6          0.3700   -1.9270   -2.0620 ca        1 BO1      0.059000
     11 N2         -1.9610   -4.3220   -3.5510 nh        1 BO1     -0.694600
     12 C7         -3.1880   -5.0740   -3.3660 c3        1 BO1      0.411300
     13 C8         -3.4150   -6.1120   -4.5050 c3        1 BO1      0.115100
     14 C9         -4.7420   -6.8350   -4.2200 c3        1 BO1      0.074100
     15 C10        -4.6960   -7.4810   -2.8220 c3        1 BO1      0.083100
     16 C11        -4.3530   -6.4040   -1.7800 c3        1 BO1      0.142100
     17 C12        -4.1510   -7.0060   -0.3890 c3        1 BO1      0.135400
     18 O3         -3.1030   -5.7950   -2.1270 os        1 BO1     -0.423600
     19 O4         -3.4640   -5.3940   -5.7200 oh        1 BO1     -0.607800
     20 O5         -4.8650   -7.8270   -5.2250 oh        1 BO1     -0.597800
     21 O6         -5.9760   -7.9890   -2.4930 oh        1 BO1     -0.586800
     22 O7         -4.1490   -5.9210    0.5240 oh        1 BO1     -0.610800
     23 HN11       -1.0600    1.3830    0.5550 hn        1 BO1      0.415800
     24 HN12       -1.2280    0.8930   -1.0010 hn        1 BO1      0.415800
     25 H2         -1.7720   -2.3430    0.5800 ha        1 BO1      0.164000
     26 H3         -2.8290   -3.8960   -0.9990 ha        1 BO1      0.182500
     27 H5          0.2580   -2.9060   -3.9580 ha        1 BO1      0.182500
     28 H6          1.2950   -1.3840   -2.3380 ha        1 BO1      0.164000
     29 HN2        -1.5220   -4.4360   -4.4440 hn        1 BO1      0.476800
     30 H7         -4.0560   -4.3470   -3.3270 h2        1 BO1      0.081700
     31 H8         -2.5760   -6.8620   -4.5320 h1        1 BO1      0.079700
     32 H9         -5.6020   -6.1110   -4.2780 h1        1 BO1      0.072700
     33 H10        -3.9210   -8.2960   -2.8070 h1        1 BO1      0.074700
     34 H11        -5.1630   -5.6230   -1.7440 h1        1 BO1      0.080700
     35 H121       -3.1700   -7.5500   -0.3320 h1        1 BO1      0.058200
     36 H122       -5.0010   -7.7100   -0.1820 h1        1 BO1      0.058200
     37 HO4        -3.7760   -6.0130   -6.3980 ho        1 BO1      0.447000
     38 HO5        -5.7830   -8.1270   -5.2130 ho        1 BO1      0.426000
     39 HO6        -6.0450   -8.8620   -2.9010 ho        1 BO1      0.421000
     40 HO7        -4.2510   -6.3000    1.4050 ho        1 BO1      0.418000
     41 H13         0.0960    1.7490   -0.5490 hn        1 BO1      0.415800
@<TRIPOS>BOND
     1    1    2 1   
     2    1    3 1   
     3    1    5 1   
     4    4   23 1   
     5    4   24 1   
     6    4   41 1   
     7    5    6 ar  
     8    5   10 ar  
     9    6    7 ar  
    10    6   25 1   
    11    7    8 ar  
    12    7   26 1   
    13    8    9 ar  
    14    8   11 1   
    15    9   10 ar  
    16    9   27 1   
    17   10   28 1   
    18   11   12 1   
    19   11   29 1   
    20   12   13 1   
    21   12   18 1   
    22   12   30 1   
    23   13   14 1   
    24   13   19 1   
    25   13   31 1   
    26   14   15 1   
    27   14   20 1   
    28   14   32 1   
    29   15   16 1   
    30   15   21 1   
    31   15   33 1   
    32   16   17 1   
    33   16   18 1   
    34   16   34 1   
    35   17   22 1   
    36   17   35 1   
    37   17   36 1   
    38   19   37 1   
    39   20   38 1   
    40   21   39 1   
    41   22   40 1   
@<TRIPOS>SUBSTRUCTURE
     1 BO1         1 TEMP              0 ****  ****    0 ROOT
