@<TRIPOS>MOLECULE
BO1
   40    41     1     0     0
SMALL
bcc


@<TRIPOS>ATOM
      1 S1          4.9590    0.4560   -0.4950 sy        1 BO1      1.532200
      2 O1          5.5020    1.1160    0.6290 o         1 BO1     -0.660300
      3 O2          4.9750    1.1390   -1.7310 o         1 BO1     -0.660300
      4 N1          5.6930   -0.9590   -0.6720 n3        1 BO1     -1.026700
      5 C1          3.3690    0.0300   -0.1440 ca        1 BO1     -0.421500
      6 C2          2.4220   -0.1280   -1.1630 ca        1 BO1      0.014000
      7 C3          1.1030   -0.4600   -0.8890 ca        1 BO1     -0.203500
      8 C4          0.6780   -0.6420    0.4480 ca        1 BO1      0.195600
      9 C5          1.6320   -0.4700    1.4830 ca        1 BO1     -0.203500
     10 C6          2.9440   -0.1430    1.1790 ca        1 BO1      0.014000
     11 N2         -0.6180   -1.0890    0.7610 nh        1 BO1     -0.722600
     12 C7         -1.7510   -0.5420    0.0420 c3        1 BO1      0.361300
     13 C8         -2.8890   -1.5920   -0.1110 c3        1 BO1      0.090100
     14 C9         -4.0990   -0.9290   -0.7860 c3        1 BO1      0.107100
     15 C10        -4.5280    0.3160    0.0070 c3        1 BO1      0.122100
     16 C11        -3.3270    1.2580    0.1700 c3        1 BO1      0.108100
     17 C12        -3.6760    2.4350    1.0870 c3        1 BO1      0.140400
     18 O3         -2.2510    0.5720    0.8110 os        1 BO1     -0.458600
     19 O4         -2.4960   -2.6420   -0.9760 oh        1 BO1     -0.602800
     20 O5         -5.2120   -1.8050   -0.7910 oh        1 BO1     -0.604800
     21 O6         -5.5270    1.0310   -0.6970 oh        1 BO1     -0.592800
     22 O7         -2.6460    3.3970    1.0970 oh        1 BO1     -0.590800
     23 HN11        6.1350   -1.4420    0.0680 hn        1 BO1      0.446800
     24 HN12        5.7750   -1.4270   -1.5390 hn        1 BO1      0.446800
     25 H2          2.7320    0.0310   -2.2120 ha        1 BO1      0.154000
     26 H3          0.4020   -0.5900   -1.7270 ha        1 BO1      0.142500
     27 H5          1.3360   -0.5900    2.5370 ha        1 BO1      0.142500
     28 H6          3.6700    0.0080    2.0000 ha        1 BO1      0.154000
     29 HN2        -0.7900   -1.1150    1.7500 hn        1 BO1      0.409800
     30 H7         -1.4470   -0.1800   -0.9830 h2        1 BO1      0.078700
     31 H8         -3.1870   -2.0020    0.8930 h1        1 BO1      0.064700
     32 H9         -3.8380   -0.6460   -1.8450 h1        1 BO1      0.065700
     33 H10        -4.9210    0.0020    1.0140 h1        1 BO1      0.062700
     34 H11        -2.9910    1.6370   -0.8340 h1        1 BO1      0.072700
     35 H121       -4.5770    2.9620    0.6730 h1        1 BO1      0.065700
     36 H122       -3.8800    2.0640    2.1260 h1        1 BO1      0.065700
     37 HO4        -1.7640   -3.1080   -0.5520 ho        1 BO1      0.425000
     38 HO5        -4.9300   -2.6080   -1.2490 ho        1 BO1      0.428000
     39 HO6        -6.2390    0.4010   -0.8740 ho        1 BO1      0.427000
     40 HO7        -1.8500    2.9590    1.4260 ho        1 BO1      0.409000
@<TRIPOS>BOND
     1    1    2 2   
     2    1    3 2   
     3    1    4 1   
     4    1    5 1   
     5    4   23 1   
     6    4   24 1   
     7    5    6 ar  
     8    5   10 ar  
     9    6    7 ar  
    10    6   25 1   
    11    7    8 ar  
    12    7   26 1   
    13    8    9 ar  
    14    8   11 1   
    15    9   10 ar  
    16    9   27 1   
    17   10   28 1   
    18   11   12 1   
    19   11   29 1   
    20   12   13 1   
    21   12   18 1   
    22   12   30 1   
    23   13   14 1   
    24   13   19 1   
    25   13   31 1   
    26   14   15 1   
    27   14   20 1   
    28   14   32 1   
    29   15   16 1   
    30   15   21 1   
    31   15   33 1   
    32   16   17 1   
    33   16   18 1   
    34   16   34 1   
    35   17   22 1   
    36   17   35 1   
    37   17   36 1   
    38   19   37 1   
    39   20   38 1   
    40   21   39 1   
    41   22   40 1   
@<TRIPOS>SUBSTRUCTURE
     1 BO1         1 TEMP              0 ****  ****    0 ROOT
