@<TRIPOS>MOLECULE
BO5
   50    51     1     0     0
SMALL
bcc


@<TRIPOS>ATOM
      1 O3          0.5870    0.9540    0.4980 o         1 BO5     -0.407100
      2 C18         1.6080    0.3410    0.2340 c         1 BO5      0.603700
      3 N           2.4830   -0.1180    1.3930 n4        1 BO5     -0.601200
      4 C           3.6340    0.8110    1.5300 c3        1 BO5      0.094100
      5 C17         2.1420    0.0100   -1.0990 ca        1 BO5     -0.263600
      6 C16         2.8470    1.0110   -1.7990 ca        1 BO5      0.224100
      7 O2          3.0920    2.1740   -1.1160 oh        1 BO5     -0.510100
      8 C15         3.2940    0.7960   -3.1040 ca        1 BO5     -0.297000
      9 C14         3.0430   -0.4410   -3.7120 ca        1 BO5      0.237100
     10 O1          3.4550   -0.7120   -4.9820 oh        1 BO5     -0.448100
     11 C13         2.3500   -1.4660   -3.0150 ca        1 BO5     -0.049600
     12 CL          2.0730   -2.9570   -3.7690 cl        1 BO5     -0.018400
     13 C12         1.8940   -1.2340   -1.7120 ca        1 BO5      0.046700
     14 C11         1.1160   -2.2800   -0.9890 c3        1 BO5     -0.180100
     15 C10         1.9960   -3.3010   -0.3010 c         1 BO5      0.610100
     16 O           2.8460   -2.9380    0.5260 o         1 BO5     -0.590100
     17 C9          1.7510   -4.7490   -0.6090 c3        1 BO5     -0.174400
     18 C8          0.9320   -5.4020    0.4900 c3        1 BO5     -0.076400
     19 C7         -0.5300   -5.0070    0.4290 c3        1 BO5     -0.086400
     20 C6         -1.2170   -5.0900    1.7750 c3        1 BO5     -0.077400
     21 C5         -0.8240   -3.9670    2.7170 c3        1 BO5     -0.067200
     22 C4         -1.1290   -2.6270    2.1610 c2        1 BO5     -0.114200
     23 C3         -0.3350   -1.5530    2.2270 c2        1 BO5     -0.246200
     24 C2          0.9910   -1.5330    2.8860 c3        1 BO5     -0.070200
     25 C1          1.7440   -0.2220    2.6950 c3        1 BO5      0.112800
     26 HC1         4.1540    0.9070    0.5390 hx        1 BO5      0.101700
     27 HC2         3.2620    1.8210    1.8510 hx        1 BO5      0.101700
     28 HC3         4.3510    0.4060    2.2930 hx        1 BO5      0.101700
     29 H11C        2.5110   -0.1280    3.5180 hx        1 BO5      0.104700
     30 H12C        1.0350    0.6530    2.7660 hx        1 BO5      0.104700
     31 H2          3.4320    2.8400   -1.7370 ho        1 BO5      0.460000
     32 H15         3.8310    1.5870   -3.6480 ha        1 BO5      0.169000
     33 H1          3.8950    0.0740   -5.3490 ho        1 BO5      0.449000
     34 H111        0.4190   -2.7930   -1.7100 hc        1 BO5      0.101700
     35 H112        0.4640   -1.8120   -0.1940 hc        1 BO5      0.101700
     36 H91C        2.7470   -5.2670   -0.6830 hc        1 BO5      0.084700
     37 H92C        1.2330   -4.8580   -1.5970 hc        1 BO5      0.084700
     38 H81C        1.3720   -5.1280    1.4860 hc        1 BO5      0.062700
     39 H82C        1.0210   -6.5160    0.3870 hc        1 BO5      0.062700
     40 H71C       -1.0620   -5.6810   -0.2950 hc        1 BO5      0.042700
     41 H72C       -0.6290   -3.9610    0.0330 hc        1 BO5      0.042700
     42 H61C       -2.3280   -5.0620    1.6150 hc        1 BO5      0.058200
     43 H62C       -0.9730   -6.0710    2.2630 hc        1 BO5      0.058200
     44 H51C       -1.4000   -4.0850    3.6780 hc        1 BO5      0.059700
     45 H52C        0.2640   -4.0560    2.9780 hc        1 BO5      0.059700
     46 H4         -2.1170   -2.5450    1.6700 ha        1 BO5      0.140000
     47 H3         -0.6820   -0.5900    1.8140 ha        1 BO5      0.136000
     48 H21C        0.8470   -1.6560    3.9980 hc        1 BO5      0.086700
     49 H22C        1.6190   -2.4050    2.5440 hc        1 BO5      0.086700
     50 HN1         2.8450   -1.0590    1.1410 hn        1 BO5      0.487800
@<TRIPOS>BOND
     1    1    2 2   
     2    2    3 1   
     3    2    5 1   
     4    3    4 1   
     5    3   25 1   
     6    3   50 1   
     7    4   26 1   
     8    4   27 1   
     9    4   28 1   
    10    5    6 ar  
    11    5   13 ar  
    12    6    7 1   
    13    6    8 ar  
    14    7   31 1   
    15    8    9 ar  
    16    8   32 1   
    17    9   10 1   
    18    9   11 ar  
    19   10   33 1   
    20   11   12 1   
    21   11   13 ar  
    22   13   14 1   
    23   14   15 1   
    24   14   34 1   
    25   14   35 1   
    26   15   16 2   
    27   15   17 1   
    28   17   18 1   
    29   17   36 1   
    30   17   37 1   
    31   18   19 1   
    32   18   38 1   
    33   18   39 1   
    34   19   20 1   
    35   19   40 1   
    36   19   41 1   
    37   20   21 1   
    38   20   42 1   
    39   20   43 1   
    40   21   22 1   
    41   21   44 1   
    42   21   45 1   
    43   22   23 2   
    44   22   46 1   
    45   23   24 1   
    46   23   47 1   
    47   24   25 1   
    48   24   48 1   
    49   24   49 1   
    50   25   29 1   
    51   25   30 1   
@<TRIPOS>SUBSTRUCTURE
     1 BO5         1 TEMP              0 ****  ****    0 ROOT
