@<TRIPOS>MOLECULE
BO5
   50    51     1     0     0
SMALL
bcc


@<TRIPOS>ATOM
      1 O3          0.3020    0.5690    0.5270 o         1 BO5     -0.415100
      2 C18         1.3940    0.1530    0.1710 c         1 BO5      0.602700
      3 N           2.3520   -0.3100    1.2610 nx        1 BO5     -0.596200
      4 C           3.6590    0.3800    1.1470 c3        1 BO5      0.099100
      5 C17         1.8910    0.0410   -1.2110 ca        1 BO5     -0.257600
      6 C16         2.5910    1.1290   -1.7700 ca        1 BO5      0.220100
      7 O2          2.8710    2.1740   -0.9270 oh        1 BO5     -0.514100
      8 C15         2.9940    1.1120   -3.1070 ca        1 BO5     -0.296000
      9 C14         2.7060   -0.0140   -3.8890 ca        1 BO5      0.235100
     10 O1          3.0790   -0.0920   -5.1970 oh        1 BO5     -0.448100
     11 C13         2.0130   -1.1250   -3.3380 ca        1 BO5     -0.046600
     12 Cl          1.6970   -2.4810   -4.3010 cl        1 BO5     -0.016400
     13 C12         1.5930   -1.0860   -2.0030 ca        1 BO5      0.048700
     14 C11         0.8070   -2.2130   -1.4240 c3        1 BO5     -0.177100
     15 C10         1.6750   -3.2750   -0.7870 c         1 BO5      0.606100
     16 O           2.6280   -2.9590   -0.0600 o         1 BO5     -0.585100
     17 C9          1.2940   -4.7050   -1.0280 c3        1 BO5     -0.174400
     18 C8          0.7770   -5.3430    0.2490 c3        1 BO5     -0.080400
     19 C7         -0.6300   -4.8910    0.5840 c3        1 BO5     -0.082400
     20 C6         -0.9780   -5.1120    2.0420 c3        1 BO5     -0.078400
     21 C5         -0.6710   -3.9140    2.9230 c3        1 BO5     -0.065200
     22 C4          0.7780   -3.7090    3.1430 c2        1 BO5     -0.106200
     23 C3          1.4160   -2.5340    3.1840 c2        1 BO5     -0.245200
     24 C2          0.7820   -1.2060    3.0320 c3        1 BO5     -0.065200
     25 C1          1.7820   -0.1250    2.6370 c3        1 BO5      0.113800
     26 HC1         3.5130    1.4850    1.2820 hx        1 BO5      0.101033
     27 HC2         4.0950    0.1850    0.1300 hx        1 BO5      0.101033
     28 HC3         4.3580   -0.0160    1.9320 hx        1 BO5      0.101033
     29 H11C        1.2820    0.8850    2.6720 hx        1 BO5      0.103200
     30 H12C        2.6430   -0.1280    3.3660 hx        1 BO5      0.103200
     31 H2          3.1950    2.9240   -1.4530 ho        1 BO5      0.459000
     32 H15         3.5260    1.9720   -3.5400 ha        1 BO5      0.168000
     33 H1          3.5240    0.7340   -5.4510 ho        1 BO5      0.448000
     34 H111        0.1610   -2.6740   -2.2220 hc        1 BO5      0.100200
     35 H112        0.1030   -1.8300   -0.6310 hc        1 BO5      0.100200
     36 H91C        2.2120   -5.2570   -1.3730 hc        1 BO5      0.084200
     37 H92C        0.5220   -4.7840   -1.8370 hc        1 BO5      0.084200
     38 H81C        1.4760   -5.0920    1.0930 hc        1 BO5      0.063700
     39 H82C        0.7910   -6.4580    0.1260 hc        1 BO5      0.063700
     40 H71C       -1.3560   -5.4580   -0.0580 hc        1 BO5      0.039700
     41 H72C       -0.7520   -3.8040    0.3260 hc        1 BO5      0.039700
     42 H61C       -2.0780   -5.3230    2.1210 hc        1 BO5      0.058200
     43 H62C       -0.4400   -6.0170    2.4290 hc        1 BO5      0.058200
     44 H51C       -1.1520   -2.9990    2.4860 hc        1 BO5      0.059200
     45 H52C       -1.1480   -4.0830    3.9310 hc        1 BO5      0.059200
     46 H4          1.3540   -4.6390    3.3120 ha        1 BO5      0.140000
     47 H3          2.4990   -2.5180    3.4000 ha        1 BO5      0.125000
     48 H21C        0.3430   -0.8890    4.0210 hc        1 BO5      0.084700
     49 H22C       -0.0650   -1.2320    2.2940 hc        1 BO5      0.084700
     50 HN1         2.5040   -1.3270    1.1070 hn        1 BO5      0.490800
@<TRIPOS>BOND
     1    1    2 2   
     2    2    3 1   
     3    2    5 1   
     4    3    4 1   
     5    3   25 1   
     6    3   50 1   
     7    4   26 1   
     8    4   27 1   
     9    4   28 1   
    10    5    6 ar  
    11    5   13 ar  
    12    6    7 1   
    13    6    8 ar  
    14    7   31 1   
    15    8    9 ar  
    16    8   32 1   
    17    9   10 1   
    18    9   11 ar  
    19   10   33 1   
    20   11   12 1   
    21   11   13 ar  
    22   13   14 1   
    23   14   15 1   
    24   14   34 1   
    25   14   35 1   
    26   15   16 2   
    27   15   17 1   
    28   17   18 1   
    29   17   36 1   
    30   17   37 1   
    31   18   19 1   
    32   18   38 1   
    33   18   39 1   
    34   19   20 1   
    35   19   40 1   
    36   19   41 1   
    37   20   21 1   
    38   20   42 1   
    39   20   43 1   
    40   21   22 1   
    41   21   44 1   
    42   21   45 1   
    43   22   23 2   
    44   22   46 1   
    45   23   24 1   
    46   23   47 1   
    47   24   25 1   
    48   24   48 1   
    49   24   49 1   
    50   25   29 1   
    51   25   30 1   
@<TRIPOS>SUBSTRUCTURE
     1 BO5         1 TEMP              0 ****  ****    0 ROOT
