@<TRIPOS>MOLECULE
BO7
   22    22     1     0     0
SMALL
bcc


@<TRIPOS>ATOM
      1 O11         0.3790   -0.5370    0.3840 o         1 BO7     -0.821300
      2 C12         1.5210   -0.0010    0.4300 c         1 BO7      0.925200
      3 C13         2.2560    0.0000    1.7680 ca        1 BO7     -0.131600
      4 C18         2.9650   -1.1270    2.2190 ca        1 BO7      0.115100
      5 O19         3.1360   -2.2650    1.4360 os        1 BO7     -0.353900
      6 C22         1.9610   -3.0610    1.2970 c3        1 BO7      0.102700
      7 C17         3.6400   -1.1330    3.4510 ca        1 BO7     -0.172000
      8 C16         3.6200    0.0020    4.2550 ca        1 BO7     -0.146000
      9 C15         2.9300    1.1360    3.8390 ca        1 BO7     -0.172000
     10 C14         2.2540    1.1270    2.6080 ca        1 BO7      0.115100
     11 O20         1.5010    2.2650    2.3310 os        1 BO7     -0.353900
     12 C21         2.0150    3.0610    1.2640 c3        1 BO7      0.102700
     13 OXT         2.0960    0.5350   -0.5580 o         1 BO7     -0.821300
     14 H17         4.1870   -2.0340    3.7590 ha        1 BO7      0.121000
     15 H221        1.0830   -2.4400    0.9860 h1        1 BO7      0.043700
     16 H222        1.7530   -3.5880    2.2620 h1        1 BO7      0.043700
     17 H223        2.2320   -3.7990    0.5020 h1        1 BO7      0.043700
     18 H16         4.1480    0.0020    5.2180 ha        1 BO7      0.107000
     19 H15         2.8960    2.0370    4.4650 ha        1 BO7      0.121000
     20 H211        1.1980    3.7980    1.0650 h1        1 BO7      0.043700
     21 H212        2.2250    2.4390    0.3560 h1        1 BO7      0.043700
     22 H213        2.9400    3.5880    1.6070 h1        1 BO7      0.043700
@<TRIPOS>BOND
     1    1    2 1   
     2    2    3 1   
     3    2   13 1   
     4    3    4 ar  
     5    3   10 ar  
     6    4    5 1   
     7    4    7 ar  
     8    5    6 1   
     9    6   15 1   
    10    6   16 1   
    11    6   17 1   
    12    7    8 ar  
    13    7   14 1   
    14    8    9 ar  
    15    8   18 1   
    16    9   10 ar  
    17    9   19 1   
    18   10   11 1   
    19   11   12 1   
    20   12   20 1   
    21   12   21 1   
    22   12   22 1   
@<TRIPOS>SUBSTRUCTURE
     1 BO7         1 TEMP              0 ****  ****    0 ROOT
