@<TRIPOS>MOLECULE
BO7
   22    22     1     0     0
SMALL
bcc


@<TRIPOS>ATOM
      1 O11        -0.5360   -1.8100   -0.9550 o         1 BO7     -0.821300
      2 C12        -0.0010   -1.2120    0.0200 c         1 BO7      0.925200
      3 C13         0.0010    0.3140    0.0080 ca        1 BO7     -0.131600
      4 C18        -1.1260    1.0540    0.4050 ca        1 BO7      0.115100
      5 O19        -2.2660    0.4560    0.9350 os        1 BO7     -0.353900
      6 C22        -3.0610   -0.2390   -0.0240 c3        1 BO7      0.102700
      7 C17        -1.1330    2.4590    0.3930 ca        1 BO7     -0.172000
      8 C16         0.0030    3.1500   -0.0150 ca        1 BO7     -0.146000
      9 C15         1.1380    2.4500   -0.4120 ca        1 BO7     -0.172000
     10 C14         1.1290    1.0460   -0.4020 ca        1 BO7      0.115100
     11 O20         2.2670    0.4360   -0.9220 os        1 BO7     -0.353900
     12 C21         3.0610   -0.2440    0.0490 c3        1 BO7      0.102700
     13 OXT         0.5330   -1.7950    1.0050 o         1 BO7     -0.821300
     14 H17        -2.0330    2.9960    0.7190 ha        1 BO7      0.121000
     15 H221       -3.5860    0.5010   -0.6770 h1        1 BO7      0.043700
     16 H222       -2.4390   -0.9400   -0.6380 h1        1 BO7      0.043700
     17 H223       -3.8000   -0.8010    0.6000 h1        1 BO7      0.043700
     18 H16         0.0040    4.2490   -0.0240 ha        1 BO7      0.107000
     19 H15         2.0390    2.9800   -0.7470 ha        1 BO7      0.121000
     20 H211        3.5880    0.5060    0.6890 h1        1 BO7      0.043700
     21 H212        2.4380   -0.9340    0.6730 h1        1 BO7      0.043700
     22 H213        3.7990   -0.8170   -0.5660 h1        1 BO7      0.043700
@<TRIPOS>BOND
     1    1    2 1   
     2    2    3 1   
     3    2   13 1   
     4    3    4 ar  
     5    3   10 ar  
     6    4    5 1   
     7    4    7 ar  
     8    5    6 1   
     9    6   15 1   
    10    6   16 1   
    11    6   17 1   
    12    7    8 ar  
    13    7   14 1   
    14    8    9 ar  
    15    8   18 1   
    16    9   10 ar  
    17    9   19 1   
    18   10   11 1   
    19   11   12 1   
    20   12   20 1   
    21   12   21 1   
    22   12   22 1   
@<TRIPOS>SUBSTRUCTURE
     1 BO7         1 TEMP              0 ****  ****    0 ROOT
