@<TRIPOS>MOLECULE
BO7
   22    22     1     0     0
SMALL
bcc


@<TRIPOS>ATOM
      1 O11         0.3690    0.4900    0.3820 o         1 BO7     -0.821300
      2 C12         1.5340    0.0080    0.4230 c         1 BO7      0.925200
      3 C13         2.2580    0.0020    1.7670 ca        1 BO7     -0.131600
      4 C18         2.3030   -1.1490    2.5730 ca        1 BO7      0.115100
      5 O19         1.6080   -2.3120    2.2560 os        1 BO7     -0.353900
      6 C22         2.1670   -3.0500    1.1710 c3        1 BO7      0.102700
      7 C17         2.9700   -1.1620    3.8090 ca        1 BO7     -0.172000
      8 C16         3.6020   -0.0100    4.2640 ca        1 BO7     -0.146000
      9 C15         3.5740    1.1480    3.4940 ca        1 BO7     -0.172000
     10 C14         2.9100    1.1460    2.2570 ca        1 BO7      0.115100
     11 O20         3.0330    2.3140    1.5100 os        1 BO7     -0.353900
     12 C21         1.8220    3.0580    1.3840 c3        1 BO7      0.102700
     13 OXT         2.1410   -0.4700   -0.5760 o         1 BO7     -0.821300
     14 H17         2.9740   -2.0820    4.4090 ha        1 BO7      0.121000
     15 H221        3.1130   -3.5440    1.5060 h1        1 BO7      0.043700
     16 H222        2.3530   -2.3930    0.2840 h1        1 BO7      0.043700
     17 H223        1.3870   -3.8190    0.9430 h1        1 BO7      0.043700
     18 H16         4.1230   -0.0140    5.2320 ha        1 BO7      0.107000
     19 H15         4.0760    2.0640    3.8340 ha        1 BO7      0.121000
     20 H211        2.0640    3.8310    0.6130 h1        1 BO7      0.043700
     21 H212        1.5830    3.5460    2.3610 h1        1 BO7      0.043700
     22 H213        0.9760    2.4050    1.0470 h1        1 BO7      0.043700
@<TRIPOS>BOND
     1    1    2 1   
     2    2    3 1   
     3    2   13 1   
     4    3    4 ar  
     5    3   10 ar  
     6    4    5 1   
     7    4    7 ar  
     8    5    6 1   
     9    6   15 1   
    10    6   16 1   
    11    6   17 1   
    12    7    8 ar  
    13    7   14 1   
    14    8    9 ar  
    15    8   18 1   
    16    9   10 ar  
    17    9   19 1   
    18   10   11 1   
    19   11   12 1   
    20   12   20 1   
    21   12   21 1   
    22   12   22 1   
@<TRIPOS>SUBSTRUCTURE
     1 BO7         1 TEMP              0 ****  ****    0 ROOT
