@<TRIPOS>MOLECULE
BO7
   22    19     1     0     0
SMALL
bcc


@<TRIPOS>ATOM
      1 O11        -2.2670   -0.0850   -1.8470 o         1 BO7     -0.556000
      2 C12        -1.0090   -0.0070   -1.8790 c1        1 BO7      0.374000
      3 C13        -0.2020   -0.0000   -0.5600 c1        1 BO7     -0.111000
      4 C18         0.1890   -1.1980    0.0220 c1        1 BO7      0.070000
      5 O19        -0.0790   -2.4720   -0.6590 o         1 BO7     -0.237000
      6 C22        -0.9410   -3.3530    0.0790 c3        1 BO7     -0.087000
      7 C17         0.8310   -1.1950    1.2360 c2        1 BO7     -0.172000
      8 C16         1.0900    0.0130    1.8860 c1        1 BO7     -0.146000
      9 C15         0.7040    1.2010    1.3120 c1        1 BO7     -0.172000
     10 C14         0.0560    1.2010    0.0880 c2        1 BO7      0.070000
     11 O20        -0.5090    2.4100   -0.4130 os        1 BO7     -0.237000
     12 C21         0.4320    3.3660   -0.7510 c3        1 BO7     -0.087000
     13 OXT        -0.4030   -0.0040   -2.9940 o         1 BO7     -0.556000
     14 H17         1.1200   -2.0820    1.6650 ha        1 BO7      0.121000
     15 H221       -1.6900   -2.8220    0.4890 h1        1 BO7      0.083000
     16 H222       -0.4230   -3.8010    0.7960 h1        1 BO7      0.083000
     17 H223       -1.3230   -4.0480   -0.5420 h1        1 BO7      0.083000
     18 H16         1.5560    0.0150    2.7660 ha        1 BO7      0.107000
     19 H15         0.8970    2.0890    1.7920 ha        1 BO7      0.121000
     20 H211        1.2000    2.9300   -1.1860 h1        1 BO7      0.083000
     21 H212        0.7370    3.8310    0.0660 h1        1 BO7      0.083000
     22 H213        0.0360    4.0120   -1.3640 h1        1 BO7      0.083000
@<TRIPOS>BOND
     1    1    2 1   
     2    2   13 1   
     3    3    4 1   
     4    3   10 1   
     5    4    7 1   
     6    5    6 1   
     7    6   15 1   
     8    6   16 1   
     9    6   17 1   
    10    7    8 1   
    11    7   14 1   
    12    8   18 1   
    13    9   10 1   
    14    9   19 1   
    15   10   11 1   
    16   11   12 1   
    17   12   20 1   
    18   12   21 1   
    19   12   22 1   
@<TRIPOS>SUBSTRUCTURE
     1 BO7         1 TEMP              0 ****  ****    0 ROOT
