@<TRIPOS>MOLECULE
BOA
   14    15     1     0     0
SMALL
bcc


@<TRIPOS>ATOM
      1 O6         -0.0280    0.1320   -0.0310 oh        1 BOA     -0.615300
      2 C6          1.3410    0.0880    0.0200 ca        1 BOA      0.684600
      3 N1          2.0100    0.0890    1.1930 nb        1 BOA     -0.745000
      4 C2          3.3840    0.0430    1.1240 ca        1 BOA      0.714200
      5 BR          4.2680    0.0470    2.8090 br        1 BOA     -0.095200
      6 C5          2.0380    0.0410   -1.2110 ca        1 BOA     -0.331800
      7 C4          3.5050   -0.0060   -1.1580 ca        1 BOA      0.569300
      8 N3          4.1790   -0.0050    0.0320 nb        1 BOA     -0.618000
      9 N7          1.6890    0.0270   -2.5560 na        1 BOA     -0.244300
     10 C8          2.8970   -0.0270   -3.2660 cc        1 BOA      0.440700
     11 N9          3.9950   -0.0480   -2.4860 nd        1 BOA     -0.618700
     12 H6         -0.3880    0.1620    0.8730 ho        1 BOA      0.455000
     13 H7          0.7710    0.0500   -2.9150 hn        1 BOA      0.324700
     14 H8          2.9190   -0.0490   -4.3650 h5        1 BOA      0.079800
@<TRIPOS>BOND
     1    1    2 1   
     2    1   12 1   
     3    2    3 ar  
     4    2    6 ar  
     5    3    4 ar  
     6    4    5 1   
     7    4    8 ar  
     8    6    7 ar  
     9    6    9 1   
    10    7    8 ar  
    11    7   11 1   
    12    9   10 1   
    13    9   13 1   
    14   10   11 2   
    15   10   14 1   
@<TRIPOS>SUBSTRUCTURE
     1 BOA         1 TEMP              0 ****  ****    0 ROOT
