@<TRIPOS>MOLECULE
BOA
   14     9     1     0     0
SMALL
bcc


@<TRIPOS>ATOM
      1 O6         -2.6170    0.0550    0.3170 oh        1 BOA     -0.244000
      2 C6         -1.2100    0.0550    0.3170 c2        1 BOA      0.186000
      3 N1         -1.1330    0.0550    1.6580 n2        1 BOA     -0.219000
      4 C2          0.0850    0.0550    2.2730 c1        1 BOA     -0.043000
      5 BR          0.2550    0.0110    4.1780 br        1 BOA      0.136000
      6 C5         -0.0510    0.0550   -0.4430 c1        1 BOA     -0.156000
      7 C4          1.1530    0.0550    0.1660 c1        1 BOA      0.022000
      8 N3          1.2270    0.0550    1.5270 n2        1 BOA     -0.092000
      9 N7          0.1580    0.0550   -1.7860 n1        1 BOA     -0.156500
     10 C8          1.4920    0.0550   -2.0020 c1        1 BOA     -0.015000
     11 N9          2.1100    0.0550   -0.7990 n1        1 BOA     -0.156500
     12 H6         -2.9130   -0.6690   -0.1030 ho        1 BOA      0.254000
     13 H7         -0.4880    0.0550   -2.4300 DU        1 BOA      0.242000
     14 H8          1.9330    0.0550   -2.8730 DU        1 BOA      0.242000
@<TRIPOS>BOND
     1    1    2 1   
     2    1   12 1   
     3    2    3 1   
     4    2    6 1   
     5    3    4 1   
     6    4    8 1   
     7    7    8 1   
     8    9   10 1   
     9   10   11 1   
@<TRIPOS>SUBSTRUCTURE
     1 BOA         1 TEMP              0 ****  ****    0 ROOT
