@<TRIPOS>MOLECULE
BOA
   14    15     1     0     0
SMALL
bcc


@<TRIPOS>ATOM
      1 O6          2.6300   -0.2810   -1.8380 oh        1 BOA     -0.615300
      2 C6          1.4110   -0.1730   -1.2220 ca        1 BOA      0.684600
      3 N1          1.2910   -0.1680    0.1230 nb        1 BOA     -0.745000
      4 C2          0.0170   -0.0550    0.6320 ca        1 BOA      0.714200
      5 BR         -0.0850   -0.0540    2.5330 br        1 BOA     -0.095200
      6 C5          0.2680   -0.0660   -2.0510 ca        1 BOA     -0.331800
      7 C4         -1.0400    0.0490   -1.3920 ca        1 BOA      0.569300
      8 N3         -1.1570    0.0540   -0.0290 nb        1 BOA     -0.618000
      9 N7          0.0270   -0.0390   -3.4190 na        1 BOA     -0.244300
     10 C8         -1.3630    0.0880   -3.5620 cc        1 BOA      0.440700
     11 N9         -2.0350    0.1440   -2.3950 nd        1 BOA     -0.618700
     12 H6          3.3300   -0.3470   -1.1660 ho        1 BOA      0.455000
     13 H7          0.7100   -0.0980   -4.1280 hn        1 BOA      0.324700
     14 H8         -1.8390    0.1350   -4.5510 h5        1 BOA      0.079800
@<TRIPOS>BOND
     1    1    2 1   
     2    1   12 1   
     3    2    3 ar  
     4    2    6 ar  
     5    3    4 ar  
     6    4    5 1   
     7    4    8 ar  
     8    6    7 ar  
     9    6    9 1   
    10    7    8 ar  
    11    7   11 1   
    12    9   10 1   
    13    9   13 1   
    14   10   11 2   
    15   10   14 1   
@<TRIPOS>SUBSTRUCTURE
     1 BOA         1 TEMP              0 ****  ****    0 ROOT
