@<TRIPOS>MOLECULE
BOB
   64    63     1     0     0
SMALL
bcc


@<TRIPOS>ATOM
      1 C1          6.7500    2.9310   -1.7050 c         1 BOB      0.888600
      2 N1          7.4710    0.7340   -0.6540 n3        1 BOB     -0.895800
      3 C2         -0.1110   -0.6340   -0.9980 c         1 BOB      0.612100
      4 N2          2.0870    0.3640   -0.5270 n         1 BOB     -0.561900
      5 C3         -3.2190   -2.2820   -0.4040 c         1 BOB      0.894600
      6 O11         7.8800    3.3800   -1.3540 o         1 BOB     -0.845300
      7 O12         5.8810    3.6010   -2.3280 o         1 BOB     -0.845300
      8 O31        -4.2740   -2.5170   -1.0540 o         1 BOB     -0.848800
      9 O32        -3.2020   -2.0020    0.8340 o         1 BOB     -0.848800
     10 C40        -2.4490    1.0350    1.5050 c3        1 BOB     -0.026600
     11 C42        -3.3680    1.8180    0.5670 c3        1 BOB      0.149100
     12 C43        -4.6030    0.9810    0.2250 c3        1 BOB     -0.129400
     13 C44        -5.1450    1.3060   -1.1500 c3        1 BOB     -0.062400
     14 C45        -6.1780    0.2790   -1.5650 c3        1 BOB     -0.100400
     15 C46        -6.7170    0.5690   -2.9500 c3        1 BOB     -0.072400
     16 C47        -7.7390   -0.4580   -3.3670 c3        1 BOB     -0.089100
     17 C54        -2.9860    0.9390    2.9170 c3        1 BOB     -0.090400
     18 C55        -2.6220   -0.3940    3.5550 c3        1 BOB      0.110400
     19 O56        -3.0210   -0.4310    4.9160 oh        1 BOB     -0.613800
     20 O60        -3.7440    3.0890    1.0780 oh        1 BOB     -0.602800
     21 CA1         6.4180    1.4360   -1.3790 c3        1 BOB      0.019500
     22 CA2         0.7480    0.2210   -0.0180 c3        1 BOB      0.036700
     23 CA3        -1.8790   -2.3350   -1.1790 c3        1 BOB     -0.059000
     24 CB1         5.0550    1.3790   -0.6840 c3        1 BOB     -0.063400
     25 CB2         0.0200    1.5670    0.1530 c3        1 BOB     -0.023300
     26 CD1         3.2020   -0.1220    0.1310 c         1 BOB      0.663100
     27 OE1         3.1090   -0.6170    1.2750 o         1 BOB     -0.641100
     28 CG1         4.5350   -0.0390   -0.5890 c3        1 BOB     -0.146400
     29 SG2        -0.8130    1.7370    1.7000 ss        1 BOB     -0.338200
     30 HN1         8.3520    1.0890   -0.9920 hn        1 BOB      0.331300
     31 HN1A        7.4180    0.9890    0.3160 hn        1 BOB      0.331300
     32 HN2         2.1760    0.6950   -1.4600 hn        1 BOB      0.326500
     33 HN3        -0.8690   -1.7630    0.5150 hn        1 BOB      0.314500
     34 H40        -2.3530   -0.0070    1.0770 h1        1 BOB      0.138700
     35 H42        -2.8000    2.0750   -0.3740 h1        1 BOB      0.074700
     36 H43        -4.3410   -0.1170    0.2680 hc        1 BOB      0.075200
     37 H43A       -5.3970    1.1630    0.9940 hc        1 BOB      0.075200
     38 H44        -5.5910    2.3340   -1.1520 hc        1 BOB      0.029200
     39 H44A       -4.3070    1.3060   -1.8970 hc        1 BOB      0.029200
     40 H45        -5.7070   -0.7470   -1.5410 hc        1 BOB      0.067700
     41 H45A       -7.0220    0.2750   -0.8270 hc        1 BOB      0.067700
     42 H46        -7.1770    1.5920   -2.9720 hc        1 BOB      0.026200
     43 H46A       -5.8680    0.5720   -3.6840 hc        1 BOB      0.026200
     44 H47        -7.2900   -1.4810   -3.3490 hc        1 BOB      0.025033
     45 H47A       -8.6130   -0.4480   -2.6720 hc        1 BOB      0.025033
     46 H47B       -8.1070   -0.2470   -4.4000 hc        1 BOB      0.025033
     47 H54        -2.5910    1.7850    3.5420 hc        1 BOB      0.040700
     48 H54A       -4.1060    1.0300    2.9040 hc        1 BOB      0.040700
     49 H55        -3.1760   -1.2380    3.0550 h1        1 BOB      0.081700
     50 H55A       -1.5170   -0.5750    3.4730 h1        1 BOB      0.081700
     51 HO56       -2.5150    0.2510    5.3720 ho        1 BOB      0.379000
     52 HO60       -4.1790    2.9410    1.9250 ho        1 BOB      0.387000
     53 HA1         6.3240    0.9140   -2.3770 h1        1 BOB      0.040700
     54 HA2         0.8180   -0.2780    0.9970 h1        1 BOB      0.109700
     55 HA3        -1.6220   -3.4190   -1.3450 h1        1 BOB      0.053200
     56 HA3A       -2.0210   -1.8510   -2.1840 h1        1 BOB      0.053200
     57 HB1         5.1270    1.8260    0.3410 hc        1 BOB      0.055700
     58 HB1A        4.3530    2.0190   -1.2830 hc        1 BOB      0.055700
     59 HB2         0.7580    2.4110    0.1640 h1        1 BOB      0.088200
     60 HB2A       -0.6740    1.7380   -0.7050 h1        1 BOB      0.088200
     61 HG1         4.4380   -0.4770   -1.6170 hc        1 BOB      0.065700
     62 HG1A        5.2580   -0.6760   -0.0130 hc        1 BOB      0.065700
     63 O2         -0.1250   -0.3450   -2.2160 o         1 BOB     -0.642100
     64 N3         -0.7730   -1.7230   -0.4820 n         1 BOB     -0.506900
@<TRIPOS>BOND
     1    1    6 1   
     2    1    7 1   
     3    1   21 1   
     4    2   21 1   
     5    2   30 1   
     6    2   31 1   
     7    3   22 1   
     8    3   63 2   
     9    3   64 1   
    10    4   22 1   
    11    4   26 1   
    12    4   32 1   
    13    5    8 1   
    14    5    9 1   
    15    5   23 1   
    16   10   11 1   
    17   10   17 1   
    18   10   29 1   
    19   10   34 1   
    20   11   12 1   
    21   11   20 1   
    22   11   35 1   
    23   12   13 1   
    24   12   36 1   
    25   12   37 1   
    26   13   14 1   
    27   13   38 1   
    28   13   39 1   
    29   14   15 1   
    30   14   40 1   
    31   14   41 1   
    32   15   16 1   
    33   15   42 1   
    34   15   43 1   
    35   16   44 1   
    36   16   45 1   
    37   16   46 1   
    38   17   18 1   
    39   17   47 1   
    40   17   48 1   
    41   18   19 1   
    42   18   49 1   
    43   18   50 1   
    44   19   51 1   
    45   20   52 1   
    46   21   24 1   
    47   21   53 1   
    48   22   25 1   
    49   22   54 1   
    50   23   55 1   
    51   23   56 1   
    52   23   64 1   
    53   24   28 1   
    54   24   57 1   
    55   24   58 1   
    56   25   29 1   
    57   25   59 1   
    58   25   60 1   
    59   26   27 2   
    60   26   28 1   
    61   28   61 1   
    62   28   62 1   
    63   33   64 1   
@<TRIPOS>SUBSTRUCTURE
     1 BOB         1 TEMP              0 ****  ****    0 ROOT
