@<TRIPOS>MOLECULE
BOB
   67    59     1     0     0
SMALL
bcc


@<TRIPOS>ATOM
      1 C1         -3.2990   -1.1640   -1.2670 c1        1 BOB      0.419000
      2 N1          2.9530    0.1430    0.3690 n2        1 BOB     -0.294000
      3 C2          4.0390    0.4980    2.9110 c2        1 BOB      0.259000
      4 N2          2.3140    0.1150    4.6800 n2        1 BOB     -0.225000
      5 C3          6.1880    1.5990    5.5700 c2        1 BOB      0.364000
      6 O11        -4.3680   -1.5330   -1.6260 o         1 BOB     -0.209500
      7 O12        -2.2250   -0.7930   -0.9060 o         1 BOB     -0.209500
      8 O31         7.2150    0.8920    5.4870 o         1 BOB     -0.496000
      9 O32         5.0210    1.3430    5.2010 o         1 BOB     -0.496000
     10 C40         9.3660   -2.8990    4.5300 c3        1 BOB     -0.106000
     11 C42        10.5250   -2.5790    5.4930 c3        1 BOB      0.014000
     12 C43        17.3640   -3.8960    0.5580 c3        1 BOB     -0.213000
     13 C44        16.4720   -3.9690    1.7700 c3        1 BOB     -0.158000
     14 C45        15.1160   -3.3520    1.4980 c3        1 BOB     -0.183000
     15 C46        14.2200   -3.4260    2.7160 c3        1 BOB     -0.253000
     16 C47        12.8950   -2.8790    2.6040 c1        1 BOB     -0.098000
     17 C54         8.9510   -4.3470    4.6860 c3        1 BOB     -0.220000
     18 C55         5.7810   -3.1120    3.5580 c2        1 BOB     -0.130000
     19 O56         4.5220   -3.0170    3.2910 oh        1 BOB     -0.091000
     20 O60        11.6340   -3.4030    5.2480 oh        1 BOB     -0.354000
     21 CA1         1.8600    0.1800   -0.3010 c2        1 BOB     -0.008000
     22 CA2         2.6670    0.4940    3.5140 c2        1 BOB     -0.030000
     23 CA3         6.3650    3.0070    6.2320 c2        1 BOB      0.058000
     24 CB1         0.6350    0.8340    0.1800 c2        1 BOB     -0.167000
     25 CB2         8.2620   -1.9400    4.7580 c2        1 BOB     -0.630000
     26 CD1         3.1390   -0.4120    5.6860 c2        1 BOB      0.290000
     27 OE1         3.7710   -1.4790    5.5750 o         1 BOB     -0.403000
     28 CG1         0.6080    1.9770    0.8650 c2        1 BOB     -0.180000
     29 SG2         6.7740   -2.3010    4.8320 s4        1 BOB      1.026000
     30 HN1         0.3670    5.1760    2.0080 ha        1 BOB      0.000500
     31 HN1A        0.4730    4.5380    1.8070 ha        1 BOB      0.000500
     32 HN2         5.5960   -2.2290    1.1900 ha        1 BOB      0.000500
     33 HN3         4.3940    1.4810    2.5380 h4        1 BOB      0.133000
     34 H40         9.7600   -2.7530    3.4800 hc        1 BOB      0.108000
     35 H42        10.8030   -1.4950    5.3940 h1        1 BOB      0.081000
     36 H43        18.3570   -4.3560    0.7810 hc        1 BOB      0.077333
     37 H43A       10.2200   -2.7970    6.5510 h1        1 BOB      0.081000
     38 H44        17.5290   -2.8340    0.2520 hc        1 BOB      0.077333
     39 H44A       16.9080   -4.4420   -0.3030 hc        1 BOB      0.077333
     40 H45        16.9590   -3.4380    2.6290 hc        1 BOB      0.080500
     41 H45A       16.3400   -5.0410    2.0760 hc        1 BOB      0.080500
     42 H46        15.2480   -2.2810    1.1920 hc        1 BOB      0.083500
     43 H46A       14.6290   -3.8840    0.6390 hc        1 BOB      0.083500
     44 H47        14.0970   -4.5030    3.0470 hc        1 BOB      0.159000
     45 H47A       14.7120   -2.9090    3.5960 hc        1 BOB      0.159000
     46 H47B       12.5970   -2.4420    1.6400 ha        1 BOB      0.053000
     47 H54         8.4790   -4.5220    5.6830 hc        1 BOB      0.083667
     48 H54A        9.8580   -4.9980    4.6120 hc        1 BOB      0.083667
     49 H55         6.2530   -3.9260    2.9570 h5        1 BOB      0.164000
     50 H55A        8.2310   -4.6440    3.8870 hc        1 BOB      0.083667
     51 HO56        4.0770   -2.2720    3.7840 ho        1 BOB      0.315000
     52 HO60       11.9850   -3.1860    4.3580 ho        1 BOB      0.246000
     53 HA1         1.7270   -0.2880   -1.3040 h4        1 BOB      0.108000
     54 HA2         8.6180   -0.8890    4.7950 h4        1 BOB      0.191000
     55 HA3         5.4630    3.6540    6.2910 h4        1 BOB      0.188000
     56 HA3A        8.3120    2.8010    6.6310 hn        1 BOB      0.272000
     57 HB1        -0.3360    2.4460    1.1750 ha        1 BOB      0.120500
     58 HB1A       -0.2930    0.3040   -0.1040 ha        1 BOB      0.159000
     59 HB2         1.8740    0.8970    2.8380 h4        1 BOB      0.191000
     60 HB2A        6.1500   -1.1300    4.9400 hs        1 BOB     -0.004000
     61 HG1         3.0940    0.1630    6.6380 h5        1 BOB      0.160000
     62 HG1A        1.5150    2.5330    1.1410 ha        1 BOB      0.120500
     63 N3          7.5080    3.4090    6.6970 n8        1 BOB     -0.152000
     64 H13         3.7080   -0.3430   -0.0690 hn        1 BOB      0.148000
     65 H22         5.3370   -1.7450    0.7920 ha        1 BOB      0.000500
     66 H32         7.6510    4.3020    7.1280 hn        1 BOB      0.272000
     67 O2          4.7120   -0.5340    2.8200 o         1 BOB     -0.361000
@<TRIPOS>BOND
     1    1    6 1   
     2    1    7 1   
     3    2   21 1   
     4    2   64 1   
     5    3   22 1   
     6    3   33 1   
     7    3   67 1   
     8    4   22 1   
     9    4   26 1   
    10    5    8 1   
    11    5    9 1   
    12    5   23 1   
    13   10   11 1   
    14   10   17 1   
    15   10   25 1   
    16   10   34 1   
    17   11   20 1   
    18   11   35 1   
    19   11   37 1   
    20   12   13 1   
    21   12   36 1   
    22   12   38 1   
    23   12   39 1   
    24   13   14 1   
    25   13   40 1   
    26   13   41 1   
    27   14   15 1   
    28   14   42 1   
    29   14   43 1   
    30   15   16 1   
    31   15   44 1   
    32   15   45 1   
    33   16   46 1   
    34   17   47 1   
    35   17   48 1   
    36   17   50 1   
    37   18   19 1   
    38   18   29 1   
    39   18   49 1   
    40   19   51 1   
    41   20   52 1   
    42   21   24 1   
    43   21   53 1   
    44   22   59 1   
    45   23   55 1   
    46   23   63 1   
    47   24   28 1   
    48   24   58 1   
    49   25   29 1   
    50   25   54 1   
    51   26   27 1   
    52   26   61 1   
    53   28   57 1   
    54   28   62 1   
    55   29   60 1   
    56   30   31 1   
    57   32   65 1   
    58   56   63 1   
    59   63   66 1   
@<TRIPOS>SUBSTRUCTURE
     1 BOB         1 TEMP              0 ****  ****    0 ROOT
