@<TRIPOS>MOLECULE
BOB
   67    63     1     0     0
SMALL
bcc


@<TRIPOS>ATOM
      1 C1          4.1930    0.7800    0.0620 c2        1 BOB      0.341000
      2 N1          2.6650   -0.5500   -1.3890 n4        1 BOB     -0.064000
      3 C2          7.1080    1.0160    4.8480 c2        1 BOB      0.092000
      4 N2          5.5130    0.4970    3.0220 n4        1 BOB     -0.071000
      5 C3          8.2340   -2.1960    7.8810 c2        1 BOB      0.331000
      6 O11         3.4380    0.4130    1.0150 o         1 BOB     -0.543000
      7 O12         5.3380    1.2620    0.2200 o         1 BOB     -0.543000
      8 O31         8.4760   -2.0820    6.5520 os        1 BOB     -0.294000
      9 O32         8.4240   -3.2830    8.4340 o         1 BOB     -0.354000
     10 C40         7.3930   -4.2400    2.9910 c3        1 BOB     -0.039000
     11 C42         7.2930   -2.7530    2.6430 c3        1 BOB     -0.055000
     12 C43        11.4410   -0.4430    4.9340 c3        1 BOB     -0.213000
     13 C44        11.7230   -0.5530    3.4580 c3        1 BOB     -0.166000
     14 C45        10.6700   -1.3880    2.7620 c3        1 BOB     -0.145000
     15 C46        10.8880   -1.4290    1.2620 c3        1 BOB     -0.247000
     16 C47         9.8500   -2.1590    0.5660 c1        1 BOB     -0.070000
     17 C54         8.7790   -4.7520    2.6530 c3        1 BOB     -0.217000
     18 C55         9.0640   -3.1950    5.8480 c3        1 BOB     -0.257000
     19 O56        10.2730   -3.4380    6.4940 oh        1 BOB     -0.297000
     20 O60         5.9540   -2.3260    2.4550 oh        1 BOB     -0.369000
     21 CA1         3.6640    0.5790   -1.3920 c3        1 BOB     -0.108000
     22 CA2         6.0550    1.3460    4.0610 c2        1 BOB     -0.316000
     23 CA3         7.7450   -0.9660    8.5810 c2        1 BOB     -0.045000
     24 CB1         3.0360    1.8410   -1.8800 c2        1 BOB     -0.234000
     25 CB2         7.0120   -4.4820    4.4040 c2        1 BOB     -0.915000
     26 CD1         4.1010    0.1080    3.3490 c2        1 BOB      0.281000
     27 OE1         3.8730   -1.0540    3.6410 o         1 BOB     -0.226000
     28 CG1         3.4590    2.4790   -2.9700 c2        1 BOB     -0.129000
     29 SG2         8.0070   -4.6680    5.5530 s4        1 BOB      1.248000
     30 HN1         1.9800   -0.4320   -2.1340 hn        1 BOB      0.251333
     31 HN1A        2.1930   -0.5370   -0.4670 hn        1 BOB      0.251333
     32 HN2         6.0950   -0.3540    2.9020 hn        1 BOB      0.291500
     33 HN3         7.4680    1.6930    5.6430 h4        1 BOB      0.175000
     34 H40         6.6510   -4.7900    2.3390 hc        1 BOB      0.109000
     35 H42         7.7570   -2.1320    3.4600 h1        1 BOB      0.105000
     36 H43        12.2620    0.1130    5.4470 hc        1 BOB      0.075000
     37 H43A        7.8160   -2.5280    1.6670 h1        1 BOB      0.105000
     38 H44        10.4820    0.1050    5.1090 hc        1 BOB      0.075000
     39 H44A       11.3500   -1.4560    5.4010 hc        1 BOB      0.075000
     40 H45        12.7330   -1.0160    3.3010 hc        1 BOB      0.082500
     41 H45A       11.7560    0.4720    3.0010 hc        1 BOB      0.082500
     42 H46         9.6470   -0.9780    2.9830 hc        1 BOB      0.085000
     43 H46A       10.6980   -2.4370    3.1620 hc        1 BOB      0.085000
     44 H47        10.8540   -0.3740    0.8460 hc        1 BOB      0.123000
     45 H47A       11.9250   -1.8150    1.0450 hc        1 BOB      0.123000
     46 H47B       10.0890   -2.4540   -0.4690 ha        1 BOB      0.043000
     47 H54         9.0760   -4.4100    1.6290 hc        1 BOB      0.080333
     48 H54A        9.5390   -4.3670    3.3770 hc        1 BOB      0.080333
     49 H55         9.3350   -2.7160    4.8580 h3        1 BOB      0.155000
     50 H55A        8.7970   -5.8680    2.6790 hc        1 BOB      0.080333
     51 HO56       10.1100   -4.0450    7.2320 ho        1 BOB      0.222000
     52 HO60        5.4140   -2.7280    3.1490 ho        1 BOB      0.214000
     53 HA1         4.5290    0.2710   -2.0490 hx        1 BOB      0.150000
     54 HA2         5.9210   -4.5130    4.5350 h4        1 BOB      0.160000
     55 HA3         7.6580   -1.1570    9.6760 h4        1 BOB      0.149000
     56 HA3A        8.3660   -0.3180    5.4040 ho        1 BOB      0.282000
     57 HB1         2.2430    2.2540   -1.2340 ha        1 BOB      0.151000
     58 HB1A        3.0240    3.4400   -3.2830 ha        1 BOB      0.135500
     59 HB2         7.2410   -4.6270    6.6080 hs        1 BOB     -0.134000
     60 HB2A        5.5540    2.3240    4.1550 hx        1 BOB      0.186000
     61 HG1         4.2710    2.1070   -3.6110 ha        1 BOB      0.135500
     62 HG1A        3.3890    0.9560    3.2720 hx        1 BOB      0.213000
     63 N3          7.4810    0.1300    7.9820 n2        1 BOB     -0.221000
     64 H13         3.1500   -1.4400   -1.4950 hn        1 BOB      0.251333
     65 H22         5.5100    1.0160    2.1130 hn        1 BOB      0.291500
     66 H32         7.1670    0.8760    8.5710 hn        1 BOB      0.169000
     67 O2          7.7540   -0.1630    4.6580 oh        1 BOB     -0.262000
@<TRIPOS>BOND
     1    1    6 1   
     2    1    7 1   
     3    1   21 1   
     4    2   21 1   
     5    2   30 1   
     6    2   31 1   
     7    2   64 1   
     8    3   22 1   
     9    3   33 1   
    10    3   67 1   
    11    4   22 1   
    12    4   26 1   
    13    4   32 1   
    14    4   65 1   
    15    5    8 1   
    16    5    9 1   
    17    5   23 1   
    18    8   18 1   
    19   10   11 1   
    20   10   17 1   
    21   10   25 1   
    22   10   34 1   
    23   11   20 1   
    24   11   35 1   
    25   11   37 1   
    26   12   13 1   
    27   12   36 1   
    28   12   38 1   
    29   12   39 1   
    30   13   14 1   
    31   13   40 1   
    32   13   41 1   
    33   14   15 1   
    34   14   42 1   
    35   14   43 1   
    36   15   16 1   
    37   15   44 1   
    38   15   45 1   
    39   16   46 1   
    40   17   47 1   
    41   17   48 1   
    42   17   50 1   
    43   18   19 1   
    44   18   29 1   
    45   18   49 1   
    46   19   51 1   
    47   20   52 1   
    48   21   24 1   
    49   21   53 1   
    50   22   60 1   
    51   23   55 1   
    52   23   63 1   
    53   24   28 1   
    54   24   57 1   
    55   25   29 1   
    56   25   54 1   
    57   26   27 1   
    58   26   62 1   
    59   28   58 1   
    60   28   61 1   
    61   29   59 1   
    62   56   67 1   
    63   63   66 1   
@<TRIPOS>SUBSTRUCTURE
     1 BOB         1 TEMP              0 ****  ****    0 ROOT
