@<TRIPOS>MOLECULE
BOB
   64    60     1     0     0
SMALL
bcc


@<TRIPOS>ATOM
      1 C1         -5.5040    4.5280   -4.5180 c1        1 BOB      0.320000
      2 N1         -4.0370    6.3110   -3.8770 n3        1 BOB     -0.326000
      3 C2         -0.5920    2.7330    1.5700 c1        1 BOB      0.266000
      4 N2         -0.9490    2.8420   -0.7950 n         1 BOB     -0.372000
      5 O2          0.4330    3.3380    1.8120 o         1 BOB     -0.424000
      6 C3         -2.8840    3.7180    4.3090 c1        1 BOB      0.320000
      7 N3         -1.6490    2.7250    2.5140 n3        1 BOB     -0.326000
      8 O11        -6.5170    4.8550   -3.8450 o         1 BOB     -0.580000
      9 O12        -5.6440    3.9260   -5.6140 o         1 BOB     -0.580000
     10 O31        -3.5050    2.8200    4.9340 o         1 BOB     -0.580000
     11 O32        -3.3880    4.8660    4.1910 o         1 BOB     -0.580000
     12 C40         2.0710   -1.1910    0.7750 c3        1 BOB     -0.230000
     13 C42         1.9670   -2.5330    1.4640 c3        1 BOB      0.047000
     14 C43         1.8920   -3.6290    0.4250 c3        1 BOB     -0.164000
     15 C44         2.1420   -4.9700    1.0850 c3        1 BOB     -0.151000
     16 C45         1.7340   -6.0810    0.1410 c3        1 BOB     -0.161000
     17 C46         2.3820   -7.3780    0.5780 c3        1 BOB     -0.157000
     18 C47         1.7110   -8.5390   -0.1230 c3        1 BOB     -0.208000
     19 C54         3.2950   -0.4590    1.2770 c3        1 BOB     -0.177000
     20 C55         4.4550   -0.7160    0.3410 c3        1 BOB     -0.018000
     21 O56         5.6140   -0.0940    0.8470 oh        1 BOB     -0.368000
     22 O60         3.1000   -2.7330    2.2760 oh        1 BOB     -0.337000
     23 CA1        -4.1220    4.9000   -4.0310 c2        1 BOB     -0.123000
     24 CA2        -0.7190    1.9480    0.2860 c2        1 BOB      0.007000
     25 CA3        -1.5140    3.4320    3.7370 c2        1 BOB     -0.112000
     26 CB1        -3.8590    4.2310   -2.7010 c3        1 BOB     -0.148000
     27 CB2         0.5580    1.1740    0.0390 c3        1 BOB     -0.274000
     28 CD1        -2.2240    2.8900   -1.4190 c2        1 BOB      0.301000
     29 OE1        -3.1620    2.2910   -0.9300 o         1 BOB     -0.401000
     30 CG1        -2.4290    3.7350   -2.6590 c3        1 BOB     -0.173000
     31 SG2         0.6200   -0.2300    1.1290 ss        1 BOB      0.006000
     32 HN1        -3.3450    6.6330   -4.3820 hn        1 BOB      0.128500
     33 HN1A       -4.8210    6.6960   -4.1530 hn        1 BOB      0.128500
     34 HN2        -0.2920    3.4180   -1.0570 hn        1 BOB      0.243000
     35 HN3        -2.4010    2.2330    2.3520 hn        1 BOB      0.249000
     36 H40         2.1450   -1.3250   -0.1890 h1        1 BOB      0.136000
     37 H42         1.1620   -2.5540    2.0180 h1        1 BOB      0.090000
     38 H43         1.0040   -3.6280    0.0140 hc        1 BOB      0.106000
     39 H43A        2.5700   -3.4730   -0.2630 hc        1 BOB      0.106000
     40 H44         1.6160   -5.0310    1.9080 hc        1 BOB      0.079500
     41 H44A        3.0930   -5.0560    1.2990 hc        1 BOB      0.079500
     42 H45         2.0260   -5.8610   -0.7670 hc        1 BOB      0.084500
     43 H45A        0.7610   -6.1820    0.1560 hc        1 BOB      0.084500
     44 H46         3.3320   -7.3630    0.3470 hc        1 BOB      0.072000
     45 H46A        2.2840   -7.4820    1.5460 hc        1 BOB      0.072000
     46 H47         1.6700   -8.3600   -1.0860 hc        1 BOB      0.066000
     47 H47A        2.2250   -9.3580    0.0350 hc        1 BOB      0.066000
     48 H47B        0.8020   -8.6510    0.2270 hc        1 BOB      0.066000
     49 H54         3.1100    0.5010    1.3120 hc        1 BOB      0.086000
     50 H54A        3.5220   -0.7800    2.1730 hc        1 BOB      0.086000
     51 H55         4.2480   -0.3500   -0.5440 h1        1 BOB      0.092500
     52 H55A        4.6080   -1.6810    0.2680 h1        1 BOB      0.092500
     53 HO56        6.1680    0.0910    0.1760 ho        1 BOB      0.251000
     54 HO60        2.8410   -2.9080    3.1080 ho        1 BOB      0.203000
     55 HA1        -3.4560    4.6030   -4.6830 h4        1 BOB      0.085000
     56 HA2        -1.4690    1.3250    0.3590 h4        1 BOB      0.148000
     57 HA3        -1.0440    4.2760    3.5760 h4        1 BOB      0.077500
     58 HA3A       -1.0020    2.8900    4.3730 h4        1 BOB      0.077500
     59 HB1        -4.4700    3.4740   -2.5900 hc        1 BOB      0.095000
     60 HB1A       -4.0030    4.8740   -1.9780 hc        1 BOB      0.095000
     61 HB2         1.3280    1.7520    0.2090 h1        1 BOB      0.125000
     62 HB2A        0.5790    0.8670   -0.8890 h1        1 BOB      0.125000
     63 HG1        -1.8200    4.4990   -2.6370 hc        1 BOB      0.105000
     64 HG1A       -2.2480    3.1960   -3.4550 hc        1 BOB      0.105000
@<TRIPOS>BOND
     1    1    8 1   
     2    1    9 1   
     3    2   23 1   
     4    2   32 1   
     5    2   33 1   
     6    3    5 1   
     7    3    7 1   
     8    4   24 1   
     9    4   28 1   
    10    4   34 1   
    11    6   10 1   
    12    6   11 1   
    13    7   25 1   
    14    7   35 1   
    15   12   13 1   
    16   12   19 1   
    17   12   31 1   
    18   12   36 1   
    19   13   14 1   
    20   13   22 1   
    21   13   37 1   
    22   14   15 1   
    23   14   38 1   
    24   14   39 1   
    25   15   16 1   
    26   15   40 1   
    27   15   41 1   
    28   16   17 1   
    29   16   42 1   
    30   16   43 1   
    31   17   18 1   
    32   17   44 1   
    33   17   45 1   
    34   18   46 1   
    35   18   47 1   
    36   18   48 1   
    37   19   20 1   
    38   19   49 1   
    39   19   50 1   
    40   20   21 1   
    41   20   51 1   
    42   20   52 1   
    43   21   53 1   
    44   22   54 1   
    45   23   26 1   
    46   23   55 1   
    47   24   27 1   
    48   24   56 1   
    49   25   57 1   
    50   25   58 1   
    51   26   30 1   
    52   26   59 1   
    53   26   60 1   
    54   27   31 1   
    55   27   61 1   
    56   27   62 1   
    57   28   29 1   
    58   28   30 1   
    59   30   63 1   
    60   30   64 1   
@<TRIPOS>SUBSTRUCTURE
     1 BOB         1 TEMP              0 ****  ****    0 ROOT
