@<TRIPOS>MOLECULE
BOB
   67    59     1     0     0
SMALL
bcc


@<TRIPOS>ATOM
      1 C1         -1.2940    1.1980   -2.3400 c1        1 BOB      0.418000
      2 N1          3.5620   -1.4650    1.2860 n2        1 BOB     -0.289000
      3 C2          4.6230    0.0510    4.9730 c2        1 BOB      0.251000
      4 N2          4.6430   -2.3020    4.1150 n2        1 BOB     -0.335000
      5 C3          7.2540    1.9090    5.4520 c2        1 BOB      0.355000
      6 O11        -2.2320    1.4050   -3.0380 o         1 BOB     -0.209000
      7 O12        -0.3530    0.9890   -1.6390 o         1 BOB     -0.209000
      8 O31         6.4830    1.2540    6.1940 o         1 BOB     -0.492500
      9 O32         8.2670    1.5170    4.8400 o         1 BOB     -0.492500
     10 C40         9.2510   -2.3130    4.5760 c3        1 BOB     -0.481000
     11 C42         9.7500   -1.2420    3.6020 c3        1 BOB     -0.019000
     12 C43        14.0480   -4.8200    3.2010 c3        1 BOB     -0.211000
     13 C44        14.0570   -3.7760    2.1150 c3        1 BOB     -0.166000
     14 C45        12.6550   -3.3060    1.7910 c3        1 BOB     -0.145000
     15 C46        12.6600   -2.2730    0.6810 c3        1 BOB     -0.247000
     16 C47        11.3950   -1.6040    0.5150 c1        1 BOB     -0.085000
     17 C54        10.0630   -3.5770    4.4470 c3        1 BOB     -0.209000
     18 C55         6.9040   -4.7610    4.4780 c1        1 BOB     -0.122000
     19 O56         5.7340   -5.2470    4.2130 oh        1 BOB     -0.123000
     20 O60         9.2440   -1.5210    2.3190 oh        1 BOB     -0.427000
     21 CA1         2.8970   -0.6700    0.5260 c2        1 BOB     -0.002000
     22 CA2         5.2630   -1.2400    4.5140 c2        1 BOB      0.068000
     23 CA3         6.8600    3.3970    5.2170 c2        1 BOB      0.070000
     24 CB1         1.7950    0.1850    0.9800 c2        1 BOB     -0.183000
     25 CB2         6.7490   -1.1900    4.6180 c3        1 BOB     -0.595000
     26 CD1         3.2260   -2.3570    3.9990 c2        1 BOB      0.253000
     27 OE1         2.4590   -1.5690    4.5620 o         1 BOB     -0.300000
     28 CG1         1.6190    0.6050    2.2320 c2        1 BOB     -0.151000
     29 SG2         7.5440   -2.7200    4.3760 s4        1 BOB      1.210000
     30 HN1         2.9000    2.5660    3.3150 ha        1 BOB      0.001750
     31 HN1A        3.1650    3.1520    3.5310 ha        1 BOB      0.001750
     32 HN2         8.1760    0.6100    2.0840 ha        1 BOB      0.001750
     33 HN3         4.3380    0.0560    6.0480 h4        1 BOB      0.156000
     34 H40         9.3720   -1.8970    5.6150 h1        1 BOB      0.155000
     35 H42         9.3610   -0.2310    3.9160 h1        1 BOB      0.113000
     36 H43        15.0930   -5.1270    3.4500 hc        1 BOB      0.076333
     37 H43A       10.8720   -1.2230    3.6140 h1        1 BOB      0.113000
     38 H44        13.4840   -5.7270    2.8740 hc        1 BOB      0.076333
     39 H44A       13.5670   -4.4230    4.1280 hc        1 BOB      0.076333
     40 H45        14.5350   -4.1960    1.1920 hc        1 BOB      0.085500
     41 H45A       14.6800   -2.9000    2.4400 hc        1 BOB      0.085500
     42 H46        12.1770   -2.8680    2.7080 hc        1 BOB      0.083000
     43 H46A       12.0260   -4.1810    1.4790 hc        1 BOB      0.083000
     44 H47        13.4030   -1.4500    0.9360 hc        1 BOB      0.137500
     45 H47A       13.0420   -2.7420   -0.2710 hc        1 BOB      0.137500
     46 H47B       11.2520   -1.0340   -0.4140 ha        1 BOB      0.069000
     47 H54        10.1280   -3.8920    3.3750 hc        1 BOB      0.093333
     48 H54A       11.1060   -3.4010    4.8150 hc        1 BOB      0.093333
     49 H55         7.5500   -5.5240    4.9690 ha        1 BOB      0.133000
     50 H55A        9.6200   -4.4070    5.0500 hc        1 BOB      0.093333
     51 HO56        5.1570   -4.5790    3.7770 ho        1 BOB      0.285000
     52 HO60       10.0070   -1.5850    1.6790 ho        1 BOB      0.284000
     53 HA1         3.0940   -0.5620   -0.5670 h4        1 BOB      0.099000
     54 HA2         7.1230   -0.3820    3.9160 h1        1 BOB      0.212500
     55 HA3         7.6480    4.1650    5.3680 h4        1 BOB      0.181000
     56 HA3A        4.9480    3.0290    4.7070 hn        1 BOB      0.273500
     57 HB1         0.7820    1.2620    2.5090 ha        1 BOB      0.123500
     58 HB1A        1.1040    0.4820    0.1690 ha        1 BOB      0.150000
     59 HB2         7.0160   -0.7800    5.6420 h1        1 BOB      0.212500
     60 HB2A        7.4870   -2.8040    3.0630 hs        1 BOB     -0.030000
     61 HG1         2.8930   -3.2110    3.3690 h5        1 BOB      0.160000
     62 HG1A        2.2850    0.3250    3.0620 ha        1 BOB      0.123500
     63 N3          5.6650    3.7340    4.8420 n3        1 BOB     -0.162000
     64 H13         4.2800   -1.9770    0.8170 hn        1 BOB      0.131000
     65 H22         7.9800    1.1300    2.4730 ha        1 BOB      0.001750
     66 H32         5.3910    4.6810    4.6700 hn        1 BOB      0.273500
     67 O2          4.4640    1.0120    4.2230 o         1 BOB     -0.316000
@<TRIPOS>BOND
     1    1    6 1   
     2    1    7 1   
     3    2   21 1   
     4    2   64 1   
     5    3   22 1   
     6    3   33 1   
     7    3   67 1   
     8    4   22 1   
     9    4   26 1   
    10    5    8 1   
    11    5    9 1   
    12    5   23 1   
    13   10   11 1   
    14   10   17 1   
    15   10   29 1   
    16   10   34 1   
    17   11   20 1   
    18   11   35 1   
    19   11   37 1   
    20   12   13 1   
    21   12   36 1   
    22   12   38 1   
    23   12   39 1   
    24   13   14 1   
    25   13   40 1   
    26   13   41 1   
    27   14   15 1   
    28   14   42 1   
    29   14   43 1   
    30   15   16 1   
    31   15   44 1   
    32   15   45 1   
    33   16   46 1   
    34   17   47 1   
    35   17   48 1   
    36   17   50 1   
    37   18   19 1   
    38   18   49 1   
    39   19   51 1   
    40   20   52 1   
    41   21   24 1   
    42   21   53 1   
    43   22   25 1   
    44   23   55 1   
    45   23   63 1   
    46   24   28 1   
    47   24   58 1   
    48   25   29 1   
    49   25   54 1   
    50   25   59 1   
    51   26   27 1   
    52   26   61 1   
    53   28   57 1   
    54   28   62 1   
    55   29   60 1   
    56   30   31 1   
    57   32   65 1   
    58   56   63 1   
    59   63   66 1   
@<TRIPOS>SUBSTRUCTURE
     1 BOB         1 TEMP              0 ****  ****    0 ROOT
