@<TRIPOS>MOLECULE
BOC
   18    17     1     0     0
SMALL
bcc


@<TRIPOS>ATOM
      1 O1         -1.7510   -1.9820    2.6390 o         1 BOC     -0.599000
      2 C          -1.2600   -1.1790    3.4340 c         1 BOC      0.771200
      3 O2         -0.2010   -0.3620    3.2830 os        1 BOC     -0.391900
      4 CT          0.5130   -0.3880    2.0070 c3        1 BOC      0.176800
      5 C1         -0.4130    0.0340    0.8810 c3        1 BOC     -0.117433
      6 C2          1.6140    0.6450    2.2230 c3        1 BOC     -0.117433
      7 C3          1.1010   -1.7660    1.7650 c3        1 BOC     -0.117433
      8 O3         -1.7560   -0.9840    4.6790 oh        1 BOC     -0.563100
      9 H11        -0.8920    1.0130    1.1220 hc        1 BOC      0.055922
     10 H12         0.1740    0.1390   -0.0620 hc        1 BOC      0.055922
     11 H13        -1.2130   -0.7320    0.7270 hc        1 BOC      0.055922
     12 H21         2.2610    0.3450    3.0820 hc        1 BOC      0.055922
     13 H22         1.1690    1.6430    2.4430 hc        1 BOC      0.055922
     14 H23         2.2330    0.7110    1.2980 hc        1 BOC      0.055922
     15 H31         0.2860   -2.5140    1.6020 hc        1 BOC      0.055922
     16 H32         1.7520   -1.7370    0.8600 hc        1 BOC      0.055922
     17 H33         1.7120   -2.0840    2.6430 hc        1 BOC      0.055922
     18 H3         -2.5210   -1.5750    4.7840 ho        1 BOC      0.454000
@<TRIPOS>BOND
     1    1    2 2   
     2    2    3 1   
     3    2    8 1   
     4    3    4 1   
     5    4    5 1   
     6    4    6 1   
     7    4    7 1   
     8    5    9 1   
     9    5   10 1   
    10    5   11 1   
    11    6   12 1   
    12    6   13 1   
    13    6   14 1   
    14    7   15 1   
    15    7   16 1   
    16    7   17 1   
    17    8   18 1   
@<TRIPOS>SUBSTRUCTURE
     1 BOC         1 TEMP              0 ****  ****    0 ROOT
