@<TRIPOS>MOLECULE
BOC
   18    17     1     0     0
SMALL
bcc


@<TRIPOS>ATOM
      1 O1          0.4650    0.6470   -0.6380 o         1 BOC     -0.599000
      2 C           1.1970   -0.1010    0.0110 c         1 BOC      0.771200
      3 O2          1.6210    0.0070    1.2840 os        1 BOC     -0.391900
      4 CT          1.1770    1.1630    2.0620 c3        1 BOC      0.176800
      5 C1         -0.3350    1.1530    2.1990 c3        1 BOC     -0.117433
      6 C2          1.8490    0.9310    3.4120 c3        1 BOC     -0.117433
      7 C3          1.6750    2.4460    1.4210 c3        1 BOC     -0.117433
      8 O3          1.7280   -1.2350   -0.5040 oh        1 BOC     -0.563100
      9 H11        -0.8170    1.3300    1.2060 hc        1 BOC      0.055922
     10 H12        -0.6480    1.9600    2.9030 hc        1 BOC      0.055922
     11 H13        -0.6780    0.1690    2.5980 hc        1 BOC      0.055922
     12 H21         1.5770    1.7670    4.0980 hc        1 BOC      0.055922
     13 H22         2.9570    0.8970    3.2900 hc        1 BOC      0.055922
     14 H23         1.5070   -0.0360    3.8510 hc        1 BOC      0.055922
     15 H31         1.4470    3.3080    2.0920 hc        1 BOC      0.055922
     16 H32         1.1730    2.6100    0.4360 hc        1 BOC      0.055922
     17 H33         2.7780    2.3940    1.2600 hc        1 BOC      0.055922
     18 H3          1.4200   -1.3100   -1.4240 ho        1 BOC      0.454000
@<TRIPOS>BOND
     1    1    2 2   
     2    2    3 1   
     3    2    8 1   
     4    3    4 1   
     5    4    5 1   
     6    4    6 1   
     7    4    7 1   
     8    5    9 1   
     9    5   10 1   
    10    5   11 1   
    11    6   12 1   
    12    6   13 1   
    13    6   14 1   
    14    7   15 1   
    15    7   16 1   
    16    7   17 1   
    17    8   18 1   
@<TRIPOS>SUBSTRUCTURE
     1 BOC         1 TEMP              0 ****  ****    0 ROOT
