@<TRIPOS>MOLECULE
BOC
   17    16     1     0     0
SMALL
bcc


@<TRIPOS>ATOM
      1 O1          0.4380    0.6340   -0.5330 o         1 BOC     -0.561500
      2 C           1.2400   -0.1920   -0.0350 c         1 BOC      0.505100
      3 O2          1.6630    0.0070    1.2990 os        1 BOC     -0.519900
      4 CT          1.1920    1.1140    2.0500 c3        1 BOC      0.196800
      5 C1         -0.3220    1.0660    2.2340 c3        1 BOC     -0.106100
      6 C2          1.8690    0.9780    3.4190 c3        1 BOC     -0.106100
      7 C3          1.6030    2.4400    1.4180 c3        1 BOC     -0.106100
      8 O3          1.7750   -1.2200   -0.5050 o         1 BOC     -0.561500
      9 H11        -0.8180    1.1600    1.2370 hc        1 BOC      0.028811
     10 H12        -0.6170    0.0910    2.6890 hc        1 BOC      0.028811
     11 H13        -0.6560    1.8960    2.9000 hc        1 BOC      0.028811
     12 H21         1.5530    1.8160    4.0820 hc        1 BOC      0.028811
     13 H22         2.9770    1.0010    3.2970 hc        1 BOC      0.028811
     14 H23         1.5840    0.0070    3.8880 hc        1 BOC      0.028811
     15 H31         1.2960    3.2900    2.0720 hc        1 BOC      0.028811
     16 H32         1.1140    2.5390    0.4180 hc        1 BOC      0.028811
     17 H33         2.7090    2.4660    1.2800 hc        1 BOC      0.028811
@<TRIPOS>BOND
     1    1    2 1   
     2    2    3 1   
     3    2    8 1   
     4    3    4 1   
     5    4    5 1   
     6    4    6 1   
     7    4    7 1   
     8    5    9 1   
     9    5   10 1   
    10    5   11 1   
    11    6   12 1   
    12    6   13 1   
    13    6   14 1   
    14    7   15 1   
    15    7   16 1   
    16    7   17 1   
@<TRIPOS>SUBSTRUCTURE
     1 BOC         1 TEMP              0 ****  ****    0 ROOT
