@<TRIPOS>MOLECULE
BOE
   55    54     1     0     0
SMALL
bcc


@<TRIPOS>ATOM
      1 P           3.6490   -4.4490    4.4870 p3        1 BOE      2.536000
      2 OP1         3.5810   -5.4370    3.3620 o         1 BOE     -1.258500
      3 OP2         5.0980   -4.1830    4.8390 os        1 BOE     -1.213000
      4 O5'         2.9540   -3.0840    4.0420 os        1 BOE     -0.731000
      5 C5'         1.5800   -3.1240    3.5990 c3        1 BOE      0.072000
      6 C4'         1.0510   -1.6940    3.4420 c3        1 BOE     -0.045000
      7 O4'         1.8270   -1.0110    2.6720 os        1 BOE     -0.289000
      8 C1'         0.8780   -0.0060    1.8640 c3        1 BOE      0.155000
      9 N1          1.4800    0.3710    0.7080 n         1 BOE     -0.263000
     10 C6          1.7830    1.7590    0.4810 c2        1 BOE      0.048000
     11 C2          1.9530   -0.6540   -0.2420 c2        1 BOE      0.389000
     12 O2          1.7580   -1.8490   -0.0040 o         1 BOE     -0.429000
     13 N3          2.7840   -0.2620   -1.3930 n         1 BOE     -0.378000
     14 C4          3.1210    1.1230   -1.6000 c2        1 BOE      0.355000
     15 O4          3.8140    1.4520   -2.5620 o         1 BOE     -0.409000
     16 C5          2.5990    2.1550   -0.6780 c2        1 BOE     -0.264000
     17 C5M         2.8770    3.6420   -0.9500 c3        1 BOE     -0.167000
     18 C2'        -0.2670   -0.6920    1.5980 c3        1 BOE     -0.005000
     19 O2'        -1.4350    0.2180    1.6220 os        1 BOE     -0.294000
     20 CB'        -2.5680   -0.2580    0.8440 c3        1 BOE     -0.034000
     21 CC'        -3.3290    0.9170    0.2970 c3        1 BOE     -0.036000
     22 OD'        -3.5160    0.7540   -1.1100 os        1 BOE     -0.307000
     23 CE'        -3.4720    1.9560   -1.8270 c3        1 BOE      0.004000
     24 CF'        -2.8360    1.7020   -3.2290 c2        1 BOE     -0.054000
     25 CG'        -3.5220    2.0850   -4.3810 c2        1 BOE     -0.112000
     26 CH'        -3.0090    1.7650   -5.6400 c1        1 BOE     -0.143000
     27 CI'        -1.8030    1.0580   -5.7470 c1        1 BOE     -0.145000
     28 CJ'        -1.1200    0.6760   -4.6040 c1        1 BOE     -0.145000
     29 CK'        -1.6370    0.9990   -3.3340 c1        1 BOE     -0.131000
     30 C3'        -0.3730   -1.7110    2.7000 c3        1 BOE     -0.029000
     31 O3'        -1.3450   -1.3710    3.5550 oh        1 BOE     -0.389000
     32 OP3         2.9300   -5.0100    5.6920 o         1 BOE     -1.258500
     33 H5'         1.5270   -3.5890    2.7340 h1        1 BOE      0.040500
     34 H5''        1.0330   -3.6070    4.2650 h1        1 BOE      0.040500
     35 H4'         0.9780   -1.2770    4.2850 h1        1 BOE      0.090000
     36 H1'         0.6740    0.7980    2.4220 h2        1 BOE      0.147000
     37 H6          1.4390    2.4370    1.0880 h4        1 BOE      0.299000
     38 HN3         3.0840   -0.9140   -1.9990 hn        1 BOE      0.235000
     39 H71         2.1650    4.1810   -0.5600 hc        1 BOE      0.098667
     40 H72         2.9090    3.7920   -1.8920 hc        1 BOE      0.098667
     41 H73         3.7280    3.8910   -0.5520 hc        1 BOE      0.098667
     42 H2'        -0.2030   -1.1370    0.7310 h1        1 BOE      0.095000
     43 HB'1       -3.1570   -0.7870    1.4180 h1        1 BOE      0.089500
     44 HB'2       -2.2410   -0.8230    0.0910 h1        1 BOE      0.089500
     45 HC'1       -2.8230    1.7400    0.4660 h1        1 BOE      0.109500
     46 HC'2       -4.2300    0.9760    0.7520 h1        1 BOE      0.109500
     47 HE'1       -4.3800    2.3020   -1.9400 h1        1 BOE      0.102500
     48 HE'2       -2.9230    2.6220   -1.3270 h1        1 BOE      0.102500
     49 HG'        -4.3300    2.5590   -4.3100 ha        1 BOE      0.152000
     50 HH'        -3.4820    2.0290   -6.4310 ha        1 BOE      0.115000
     51 HI'        -1.4840    0.7670   -6.6280 ha        1 BOE      0.115500
     52 HJ'        -0.2600    0.1720   -4.6810 ha        1 BOE      0.115500
     53 HK'        -1.1750    0.7110   -2.5360 ha        1 BOE      0.141000
     54 H3'        -0.5470   -2.6050    2.3210 h1        1 BOE      0.195000
     55 HO3'       -1.7860   -2.0750    3.7810 ho        1 BOE      0.291000
@<TRIPOS>BOND
     1    1    2 1   
     2    1    4 1   
     3    1   32 1   
     4    4    5 1   
     5    5    6 1   
     6    5   33 1   
     7    5   34 1   
     8    6    7 1   
     9    6   30 1   
    10    6   35 1   
    11    7    8 1   
    12    8    9 1   
    13    8   18 1   
    14    8   36 1   
    15    9   10 1   
    16    9   11 1   
    17   10   16 1   
    18   10   37 1   
    19   11   12 1   
    20   11   13 1   
    21   13   14 1   
    22   13   38 1   
    23   14   15 1   
    24   14   16 1   
    25   16   17 1   
    26   17   39 1   
    27   17   40 1   
    28   17   41 1   
    29   18   19 1   
    30   18   30 1   
    31   18   42 1   
    32   19   20 1   
    33   20   21 1   
    34   20   43 1   
    35   20   44 1   
    36   21   22 1   
    37   21   45 1   
    38   21   46 1   
    39   22   23 1   
    40   23   24 1   
    41   23   47 1   
    42   23   48 1   
    43   24   25 1   
    44   24   29 1   
    45   25   26 1   
    46   25   49 1   
    47   26   50 1   
    48   27   28 1   
    49   27   51 1   
    50   28   52 1   
    51   29   53 1   
    52   30   31 1   
    53   30   54 1   
    54   31   55 1   
@<TRIPOS>SUBSTRUCTURE
     1 BOE         1 TEMP              0 ****  ****    0 ROOT
