@<TRIPOS>MOLECULE
BOE
   55    57     1     0     0
SMALL
bcc


@<TRIPOS>ATOM
      1 P           3.1710   -0.3480   -4.6070 p5        1 BOE      1.428800
      2 OP1         4.2840   -0.4350   -5.5760 o         1 BOE     -0.841500
      3 OP2         1.9490    0.2610   -5.5100 oh        1 BOE     -0.782400
      4 O5'         3.4300    0.9790   -3.6610 os        1 BOE     -0.581200
      5 C5'         2.5380    1.1920   -2.6100 c3        1 BOE      0.185400
      6 C4'         3.2750    1.1060   -1.2630 c3        1 BOE      0.085100
      7 O4'         2.7410    2.1100   -0.3800 os        1 BOE     -0.430600
      8 C1'         2.1860    1.5050    0.8100 c3        1 BOE      0.327500
      9 N1          0.9460    2.1410    1.2110 n         1 BOE     -0.319400
     10 C6         -0.2400    1.4520    1.1730 c1        1 BOE     -0.112900
     11 C2          1.0250    3.4770    1.6880 c         1 BOE      0.725100
     12 O2          2.1050    4.1040    1.8490 o         1 BOE     -0.688100
     13 N3         -0.1770    4.1070    2.0500 n         1 BOE     -0.598500
     14 C4         -1.4300    3.4500    2.0130 c         1 BOE      0.676300
     15 O4         -2.4240    4.1330    2.3680 o         1 BOE     -0.714100
     16 C5         -1.4100    2.0670    1.5860 ce        1 BOE     -0.501500
     17 C5M        -2.6860    1.3310    1.5830 c3        1 BOE      0.039100
     18 C2'         2.0580   -0.0170    0.5010 c3        1 BOE      0.074100
     19 O2'         2.3540   -0.7170    1.7030 os        1 BOE     -0.418600
     20 CB'         1.6360   -1.9380    1.8410 c3        1 BOE      0.109400
     21 CC'         0.1560   -1.7230    2.1420 c3        1 BOE      0.066400
     22 OD'        -0.0740   -1.6610    3.5480 os        1 BOE     -0.444600
     23 CE'         0.0630   -0.3290    4.0530 c3        1 BOE      0.146700
     24 CF'        -0.2440   -0.3280    5.5140 ca        1 BOE     -0.054300
     25 CG'        -0.1910   -1.4960    6.2810 ca        1 BOE     -0.120000
     26 CH'        -0.4580   -1.4510    7.6490 ca        1 BOE     -0.143000
     27 CI'        -0.7760   -0.2390    8.2610 ca        1 BOE     -0.156000
     28 CJ'        -0.8320    0.9280    7.5000 ca        1 BOE     -0.143000
     29 CK'        -0.5710    0.8870    6.1320 ca        1 BOE     -0.120000
     30 C3'         3.1300   -0.2670   -0.5800 c3        1 BOE      0.079100
     31 O3'         4.3540   -0.7060   -0.0240 oh        1 BOE     -0.592800
     32 OP3         2.6560   -1.4220   -3.7330 o         1 BOE     -0.841500
     33 H5'         2.1200    2.2350   -2.7080 h1        1 BOE      0.041200
     34 H5''        1.6980    0.4460   -2.6480 h1        1 BOE      0.041200
     35 H4'         4.3590    1.3670   -1.4080 h1        1 BOE      0.072700
     36 H1'         2.9470    1.6830    1.6290 h2        1 BOE      0.057700
     37 H6          2.2750    0.6880   -6.2930 ho        1 BOE      0.419000
     38 HN3        -0.1240    5.0550    2.3400 hn        1 BOE      0.304500
     39 H71        -2.5530    0.3210    1.1220 hc        1 BOE      0.003367
     40 H72        -3.4670    1.8890    1.0090 hc        1 BOE      0.003367
     41 H73        -3.0690    1.1940    2.6270 hc        1 BOE      0.003367
     42 H2'         1.0370   -0.2630    0.1030 h1        1 BOE      0.119700
     43 HB'1        1.7490   -2.5540    0.9110 h1        1 BOE      0.046700
     44 HB'2        2.1450   -2.4450    2.7040 h1        1 BOE      0.046700
     45 HC'1       -0.4320   -2.6220    1.8150 h1        1 BOE      0.085700
     46 HC'2       -0.2320   -0.7910    1.6290 h1        1 BOE      0.085700
     47 HE'1       -0.6340    0.3580    3.4890 h1        1 BOE      0.078200
     48 HE'2        1.1220    0.0140    3.8810 h1        1 BOE      0.078200
     49 HG'         0.0550   -2.4500    5.7900 ha        1 BOE      0.149500
     50 HH'        -0.4160   -2.3730    8.2450 ha        1 BOE      0.114000
     51 HI'        -0.9840   -0.2040    9.3390 ha        1 BOE      0.108000
     52 HJ'        -1.0870    1.8850    7.9770 ha        1 BOE      0.114000
     53 HK'        -0.6250    1.8060    5.5270 ha        1 BOE      0.149500
     54 H3'         2.8390   -1.0720   -1.3130 h1        1 BOE      0.144700
     55 HO3'        4.5240   -0.1550    0.7500 ho        1 BOE      0.390000
@<TRIPOS>BOND
     1    1    2 1   
     2    1    3 1   
     3    1    4 1   
     4    1   32 1   
     5    3   37 1   
     6    4    5 1   
     7    5    6 1   
     8    5   33 1   
     9    5   34 1   
    10    6    7 1   
    11    6   30 1   
    12    6   35 1   
    13    7    8 1   
    14    8    9 1   
    15    8   18 1   
    16    8   36 1   
    17    9   10 2   
    18    9   11 1   
    19   10   16 2   
    20   11   12 2   
    21   11   13 1   
    22   13   14 1   
    23   13   38 1   
    24   14   15 2   
    25   14   16 1   
    26   16   17 1   
    27   17   39 1   
    28   17   40 1   
    29   17   41 1   
    30   18   19 1   
    31   18   30 1   
    32   18   42 1   
    33   19   20 1   
    34   20   21 1   
    35   20   43 1   
    36   20   44 1   
    37   21   22 1   
    38   21   45 1   
    39   21   46 1   
    40   22   23 1   
    41   23   24 1   
    42   23   47 1   
    43   23   48 1   
    44   24   25 ar  
    45   24   29 ar  
    46   25   26 ar  
    47   25   49 1   
    48   26   27 ar  
    49   26   50 1   
    50   27   28 ar  
    51   27   51 1   
    52   28   29 ar  
    53   28   52 1   
    54   29   53 1   
    55   30   31 1   
    56   30   54 1   
    57   31   55 1   
@<TRIPOS>SUBSTRUCTURE
     1 BOE         1 TEMP              0 ****  ****    0 ROOT
