@<TRIPOS>MOLECULE
BOG
   48    48     1     0     0
SMALL
bcc


@<TRIPOS>ATOM
      1 C1          1.8610    0.4700    1.9250 c3        1 BOG      0.313900
      2 O1          1.3780    0.6640    0.6400 os        1 BOG     -0.405600
      3 C2          3.3650    0.3580    1.8720 c3        1 BOG      0.083100
      4 O2          3.7140   -0.8410    1.1810 oh        1 BOG     -0.580800
      5 C3          3.9770    0.3260    3.2290 c3        1 BOG      0.073100
      6 O3          5.4290    0.4000    3.0950 oh        1 BOG     -0.605800
      7 C4          3.5160    1.4520    4.0810 c3        1 BOG      0.120100
      8 O4          4.0060    1.2530    5.4220 oh        1 BOG     -0.595800
      9 C5          2.0060    1.5620    4.1230 c3        1 BOG      0.146100
     10 O5          1.4060    1.5890    2.7820 os        1 BOG     -0.432600
     11 C6          1.6350    2.8060    4.8420 c3        1 BOG      0.135400
     12 O6          0.2850    2.7340    5.2360 oh        1 BOG     -0.599800
     13 C1'         0.1520   -0.0510    0.3630 c3        1 BOG      0.133400
     14 C2'        -0.1920    0.0730   -1.1490 c3        1 BOG     -0.084400
     15 C3'        -1.5300   -0.6550   -1.4360 c3        1 BOG     -0.078400
     16 C4'        -1.8170   -0.6270   -2.9440 c3        1 BOG     -0.078400
     17 C5'        -3.1970   -1.2790   -3.2200 c3        1 BOG     -0.079400
     18 C6'        -3.4670   -1.2940   -4.7440 c3        1 BOG     -0.079400
     19 C7'        -4.8370   -1.9270   -5.0150 c3        1 BOG     -0.080400
     20 C8'        -5.0490   -2.0630   -6.5230 c3        1 BOG     -0.093100
     21 H1          1.4930   -0.3710    2.2790 h2        1 BOG      0.036700
     22 H2          3.7260    1.1290    1.3770 h1        1 BOG      0.117700
     23 HO2         4.0620   -1.4250    1.7580 ho        1 BOG      0.402000
     24 H3          3.7380   -0.5260    3.6680 h1        1 BOG      0.049700
     25 HO3         5.8050   -0.2570    3.5640 ho        1 BOG      0.426000
     26 H4          3.8820    2.2820    3.7300 h1        1 BOG      0.063700
     27 HO4         4.6490    1.8310    5.5880 ho        1 BOG      0.425000
     28 H5          1.6470    0.7920    4.6150 h1        1 BOG      0.073700
     29 H61         1.7610    3.5790    4.2470 h1        1 BOG      0.049200
     30 H62         2.1990    2.9070    5.6290 h1        1 BOG      0.049200
     31 HO6         0.1240    3.3450    5.8380 ho        1 BOG      0.404000
     32 H1'1        0.2660   -1.0000    0.5960 h1        1 BOG      0.039700
     33 H1'2       -0.5770    0.3320    0.8980 h1        1 BOG      0.039700
     34 H2'1        0.5330   -0.3410   -1.6890 hc        1 BOG      0.055700
     35 H2'2       -0.2780    1.0170   -1.3880 hc        1 BOG      0.055700
     36 H3'1       -1.4680   -1.5880   -1.1310 hc        1 BOG      0.041200
     37 H3'2       -2.2510   -0.2060   -0.9610 hc        1 BOG      0.041200
     38 H4'1       -1.8260    0.2890   -3.2540 hc        1 BOG      0.041700
     39 H4'2       -1.1150   -1.1280   -3.4220 hc        1 BOG      0.041700
     40 H5'1       -3.1990   -2.2010   -2.8770 hc        1 BOG      0.039200
     41 H5'2       -3.8960   -0.7640   -2.7710 hc        1 BOG      0.039200
     42 H6'1       -3.4590   -0.3810   -5.0840 hc        1 BOG      0.039700
     43 H6'2       -2.7650   -1.8200   -5.1970 hc        1 BOG      0.039700
     44 H7'1       -5.5430   -1.3550   -4.6360 hc        1 BOG      0.038700
     45 H7'2       -4.8760   -2.8150   -4.5970 hc        1 BOG      0.038700
     46 H8'1       -5.9640   -2.3550   -6.6980 hc        1 BOG      0.032700
     47 H8'2       -4.4160   -2.7280   -6.8860 hc        1 BOG      0.032700
     48 H8'3       -4.8940   -1.1910   -6.9570 hc        1 BOG      0.032700
@<TRIPOS>BOND
     1    1    2 1   
     2    1    3 1   
     3    1   10 1   
     4    1   21 1   
     5    2   13 1   
     6    3    4 1   
     7    3    5 1   
     8    3   22 1   
     9    4   23 1   
    10    5    6 1   
    11    5    7 1   
    12    5   24 1   
    13    6   25 1   
    14    7    8 1   
    15    7    9 1   
    16    7   26 1   
    17    8   27 1   
    18    9   10 1   
    19    9   11 1   
    20    9   28 1   
    21   11   12 1   
    22   11   29 1   
    23   11   30 1   
    24   12   31 1   
    25   13   14 1   
    26   13   32 1   
    27   13   33 1   
    28   14   15 1   
    29   14   34 1   
    30   14   35 1   
    31   15   16 1   
    32   15   36 1   
    33   15   37 1   
    34   16   17 1   
    35   16   38 1   
    36   16   39 1   
    37   17   18 1   
    38   17   40 1   
    39   17   41 1   
    40   18   19 1   
    41   18   42 1   
    42   18   43 1   
    43   19   20 1   
    44   19   44 1   
    45   19   45 1   
    46   20   46 1   
    47   20   47 1   
    48   20   48 1   
@<TRIPOS>SUBSTRUCTURE
     1 BOG         1 TEMP              0 ****  ****    0 ROOT
