@<TRIPOS>MOLECULE
BOG
   48    48     1     0     0
SMALL
bcc


@<TRIPOS>ATOM
      1 C1         -0.4790   -0.4630   -1.7920 c3        1 BOG      0.307900
      2 O1         -0.8600    0.0320   -0.5290 os        1 BOG     -0.424600
      3 C2         -1.4940    0.0880   -2.8130 c3        1 BOG      0.089100
      4 O2         -2.7320   -0.5880   -2.6970 oh        1 BOG     -0.603800
      5 C3         -0.9740   -0.1800   -4.2320 c3        1 BOG      0.108100
      6 O3         -1.7760    0.4740   -5.1990 oh        1 BOG     -0.605800
      7 C4          0.4440    0.3990   -4.3770 c3        1 BOG      0.122100
      8 O4          1.0080    0.0190   -5.6200 oh        1 BOG     -0.594800
      9 C5          1.3560   -0.1680   -3.2780 c3        1 BOG      0.108100
     10 O5          0.8120    0.1030   -1.9850 os        1 BOG     -0.449600
     11 C6          2.7280    0.5120   -3.3020 c3        1 BOG      0.140400
     12 O6          3.5970   -0.0600   -2.3500 oh        1 BOG     -0.594800
     13 C1'        -0.0920   -0.5060    0.5550 c3        1 BOG      0.136400
     14 C2'        -0.6600    0.1070    1.8220 c3        1 BOG     -0.085400
     15 C3'         0.0900   -0.4010    3.0330 c3        1 BOG     -0.078400
     16 C4'        -0.4630    0.2000    4.3080 c3        1 BOG     -0.078400
     17 C5'         0.2860   -0.3060    5.5220 c3        1 BOG     -0.079400
     18 C6'        -0.2670    0.2950    6.7970 c3        1 BOG     -0.079400
     19 C7'         0.4800   -0.2100    8.0130 c3        1 BOG     -0.080400
     20 C8'        -0.0670    0.3850    9.2840 c3        1 BOG     -0.093100
     21 H1         -0.4280   -1.5870   -1.8130 h2        1 BOG      0.053700
     22 H2         -1.6360    1.1920   -2.6480 h1        1 BOG      0.077700
     23 HO2        -3.0540   -0.4200   -1.8010 ho        1 BOG      0.425000
     24 H3         -0.9670   -1.2870   -4.4350 h1        1 BOG      0.064700
     25 HO3        -2.6830    0.1730   -5.0540 ho        1 BOG      0.427000
     26 H4          0.3980    1.5220   -4.3060 h1        1 BOG      0.063700
     27 HO4         0.3800    0.3000   -6.3000 ho        1 BOG      0.426000
     28 H5          1.4710   -1.2800   -3.4100 h1        1 BOG      0.068700
     29 H61         3.2090    0.3310   -4.3000 h1        1 BOG      0.064200
     30 H62         2.6120    1.6130   -3.1170 h1        1 BOG      0.064200
     31 HO6         3.1860    0.0610   -1.4840 ho        1 BOG      0.409000
     32 H1'1        0.9860   -0.2320    0.4170 h1        1 BOG      0.038200
     33 H1'2       -0.1950   -1.6230    0.5620 h1        1 BOG      0.038200
     34 H2'1       -1.7490   -0.1480    1.9050 hc        1 BOG      0.055200
     35 H2'2       -0.5850    1.2240    1.7590 hc        1 BOG      0.055200
     36 H3'1        1.1790   -0.1450    2.9380 hc        1 BOG      0.041700
     37 H3'2        0.0160   -1.5200    3.0820 hc        1 BOG      0.041700
     38 H4'1       -1.5510   -0.0550    4.4030 hc        1 BOG      0.041700
     39 H4'2       -0.3890    1.3190    4.2580 hc        1 BOG      0.041700
     40 H5'1        1.3740   -0.0500    5.4270 hc        1 BOG      0.040200
     41 H5'2        0.2120   -1.4240    5.5710 hc        1 BOG      0.040200
     42 H6'1       -1.3550    0.0390    6.8920 hc        1 BOG      0.040200
     43 H6'2       -0.1940    1.4130    6.7480 hc        1 BOG      0.040200
     44 H7'1        1.5690    0.0460    7.9150 hc        1 BOG      0.038700
     45 H7'2        0.4070   -1.3290    8.0580 hc        1 BOG      0.038700
     46 H8'1        0.4980    0.0010   10.1670 hc        1 BOG      0.032700
     47 H8'2        0.0200    1.4990    9.2680 hc        1 BOG      0.032700
     48 H8'3       -1.1440    0.1210    9.4120 hc        1 BOG      0.032700
@<TRIPOS>BOND
     1    1    2 1   
     2    1    3 1   
     3    1   10 1   
     4    1   21 1   
     5    2   13 1   
     6    3    4 1   
     7    3    5 1   
     8    3   22 1   
     9    4   23 1   
    10    5    6 1   
    11    5    7 1   
    12    5   24 1   
    13    6   25 1   
    14    7    8 1   
    15    7    9 1   
    16    7   26 1   
    17    8   27 1   
    18    9   10 1   
    19    9   11 1   
    20    9   28 1   
    21   11   12 1   
    22   11   29 1   
    23   11   30 1   
    24   12   31 1   
    25   13   14 1   
    26   13   32 1   
    27   13   33 1   
    28   14   15 1   
    29   14   34 1   
    30   14   35 1   
    31   15   16 1   
    32   15   36 1   
    33   15   37 1   
    34   16   17 1   
    35   16   38 1   
    36   16   39 1   
    37   17   18 1   
    38   17   40 1   
    39   17   41 1   
    40   18   19 1   
    41   18   42 1   
    42   18   43 1   
    43   19   20 1   
    44   19   44 1   
    45   19   45 1   
    46   20   46 1   
    47   20   47 1   
    48   20   48 1   
@<TRIPOS>SUBSTRUCTURE
     1 BOG         1 TEMP              0 ****  ****    0 ROOT
