@<TRIPOS>MOLECULE
BOL
   26    27     1     0     0
SMALL
bcc


@<TRIPOS>ATOM
      1 I           1.7070   -2.5100    0.9550 i         1 BOL     -0.122900
      2 N           2.4270   -0.0100    3.5190 n         1 BOL     -0.461100
      3 O           0.8330    1.1330    2.2740 o         1 BOL     -0.564100
      4 C1          2.7950   -0.8920    0.4150 ca        1 BOL      0.045900
      5 C2          2.7650    0.3080    1.1290 ca        1 BOL     -0.111600
      6 C3          3.5240    1.4030    0.7010 ca        1 BOL     -0.097000
      7 C4          4.3200    1.2980   -0.4380 ca        1 BOL     -0.115000
      8 C5          4.3550    0.1010   -1.1520 ca        1 BOL     -0.118000
      9 C6          3.5940   -0.9870   -0.7280 ca        1 BOL     -0.103000
     10 C7          1.9020    0.5030    2.3430 c         1 BOL      0.676700
     11 C8          1.8330   -0.0020    4.7930 ca        1 BOL      0.067600
     12 C9          0.6400    0.6920    5.0850 ca        1 BOL     -0.168000
     13 C10         0.1200    0.6680    6.3770 ca        1 BOL     -0.104500
     14 C11         0.7600   -0.0320    7.3960 ca        1 BOL     -0.157000
     15 C12         1.9400   -0.7210    7.1170 ca        1 BOL     -0.104500
     16 C13         2.4770   -0.7140    5.8350 ca        1 BOL     -0.168000
     17 HN          3.2730   -0.5330    3.4450 hn        1 BOL      0.321500
     18 H3          3.4800    2.3490    1.2630 ha        1 BOL      0.151000
     19 H4          4.9150    2.1610   -0.7740 ha        1 BOL      0.143000
     20 H5          4.9800    0.0130   -2.0540 ha        1 BOL      0.142000
     21 H6          3.6250   -1.9260   -1.3050 ha        1 BOL      0.149000
     22 H9          0.1070    1.2530    4.3010 ha        1 BOL      0.150500
     23 H10        -0.8130    1.2140    6.5880 ha        1 BOL      0.132500
     24 H11         0.3410   -0.0430    8.4120 ha        1 BOL      0.133000
     25 H12         2.4530   -1.2780    7.9150 ha        1 BOL      0.132500
     26 H13         3.4080   -1.2680    5.6420 ha        1 BOL      0.150500
@<TRIPOS>BOND
     1    1    4 1   
     2    2   10 1   
     3    2   11 1   
     4    2   17 1   
     5    3   10 2   
     6    4    5 ar  
     7    4    9 ar  
     8    5    6 ar  
     9    5   10 1   
    10    6    7 ar  
    11    6   18 1   
    12    7    8 ar  
    13    7   19 1   
    14    8    9 ar  
    15    8   20 1   
    16    9   21 1   
    17   11   12 ar  
    18   11   16 ar  
    19   12   13 ar  
    20   12   22 1   
    21   13   14 ar  
    22   13   23 1   
    23   14   15 ar  
    24   14   24 1   
    25   15   16 ar  
    26   15   25 1   
    27   16   26 1   
@<TRIPOS>SUBSTRUCTURE
     1 BOL         1 TEMP              0 ****  ****    0 ROOT
