@<TRIPOS>MOLECULE
BOL
   26    27     1     0     0
SMALL
bcc


@<TRIPOS>ATOM
      1 I          -0.9380   -0.1690    2.5370 i         1 BOL     -0.122900
      2 N           1.7080   -0.9790    0.1540 n         1 BOL     -0.461100
      3 O           0.4790    0.5360   -1.1070 o         1 BOL     -0.564100
      4 C1         -1.4160   -1.3460    0.9620 ca        1 BOL      0.045900
      5 C2         -0.6660   -1.3660   -0.2170 ca        1 BOL     -0.111600
      6 C3         -1.0520   -2.1860   -1.2840 ca        1 BOL     -0.097000
      7 C4         -2.1840   -2.9910   -1.1720 ca        1 BOL     -0.115000
      8 C5         -2.9330   -2.9750    0.0050 ca        1 BOL     -0.118000
      9 C6         -2.5510   -2.1540    1.0650 ca        1 BOL     -0.103000
     10 C7          0.5420   -0.4980   -0.4200 c         1 BOL      0.676700
     11 C8          2.9740   -0.3660    0.1550 ca        1 BOL      0.067600
     12 C9          3.2750    0.7870   -0.5990 ca        1 BOL     -0.168000
     13 C10         4.5580    1.3270   -0.5630 ca        1 BOL     -0.104500
     14 C11         5.5600    0.7450    0.2080 ca        1 BOL     -0.157000
     15 C12         5.2730   -0.3950    0.9570 ca        1 BOL     -0.104500
     16 C13         3.9990   -0.9510    0.9390 ca        1 BOL     -0.168000
     17 HN          1.6290   -1.7960    0.7210 hn        1 BOL      0.321500
     18 H3         -0.4630   -2.1820   -2.2140 ha        1 BOL      0.151000
     19 H4         -2.4870   -3.6330   -2.0120 ha        1 BOL      0.143000
     20 H5         -3.8290   -3.6080    0.0980 ha        1 BOL      0.142000
     21 H6         -3.1550   -2.1460    1.9860 ha        1 BOL      0.149000
     22 H9          2.5030    1.2740   -1.2180 ha        1 BOL      0.150500
     23 H10         4.7750    2.2290   -1.1570 ha        1 BOL      0.132500
     24 H11         6.5690    1.1800    0.2280 ha        1 BOL      0.133000
     25 H12         6.0580   -0.8620    1.5710 ha        1 BOL      0.132500
     26 H13         3.7990   -1.8500    1.5420 ha        1 BOL      0.150500
@<TRIPOS>BOND
     1    1    4 1   
     2    2   10 1   
     3    2   11 1   
     4    2   17 1   
     5    3   10 2   
     6    4    5 ar  
     7    4    9 ar  
     8    5    6 ar  
     9    5   10 1   
    10    6    7 ar  
    11    6   18 1   
    12    7    8 ar  
    13    7   19 1   
    14    8    9 ar  
    15    8   20 1   
    16    9   21 1   
    17   11   12 ar  
    18   11   16 ar  
    19   12   13 ar  
    20   12   22 1   
    21   13   14 ar  
    22   13   23 1   
    23   14   15 ar  
    24   14   24 1   
    25   15   16 ar  
    26   15   25 1   
    27   16   26 1   
@<TRIPOS>SUBSTRUCTURE
     1 BOL         1 TEMP              0 ****  ****    0 ROOT
