@<TRIPOS>MOLECULE
BOL
   26    27     1     0     0
SMALL
bcc


@<TRIPOS>ATOM
      1 I           1.7130   -2.5130    0.9580 i         1 BOL     -0.122900
      2 N           2.4280   -0.0090    3.5190 ns        1 BOL     -0.461100
      3 O           0.8320    1.1300    2.2730 o         1 BOL     -0.564100
      4 C1          2.7980   -0.8930    0.4160 ca        1 BOL      0.045900
      5 C2          2.7650    0.3080    1.1290 ca        1 BOL     -0.111600
      6 C3          3.5220    1.4040    0.6990 ca        1 BOL     -0.097000
      7 C4          4.3170    1.3000   -0.4400 ca        1 BOL     -0.115000
      8 C5          4.3550    0.1020   -1.1520 ca        1 BOL     -0.118000
      9 C6          3.5960   -0.9880   -0.7260 ca        1 BOL     -0.103000
     10 C7          1.9020    0.5030    2.3430 c         1 BOL      0.676700
     11 C8          1.8330   -0.0020    4.7930 ca        1 BOL      0.067600
     12 C9          0.6420    0.6960    5.0870 ca        1 BOL     -0.168000
     13 C10         0.1220    0.6720    6.3780 ca        1 BOL     -0.104500
     14 C11         0.7600   -0.0320    7.3960 ca        1 BOL     -0.157000
     15 C12         1.9370   -0.7250    7.1160 ca        1 BOL     -0.104500
     16 C13         2.4750   -0.7170    5.8350 ca        1 BOL     -0.168000
     17 HN          3.2740   -0.5310    3.4460 hn        1 BOL      0.321500
     18 H3          3.4750    2.3510    1.2600 ha        1 BOL      0.151000
     19 H4          4.9100    2.1640   -0.7770 ha        1 BOL      0.143000
     20 H5          4.9800    0.0140   -2.0540 ha        1 BOL      0.142000
     21 H6          3.6300   -1.9270   -1.3020 ha        1 BOL      0.149000
     22 H9          0.1120    1.2600    4.3030 ha        1 BOL      0.150500
     23 H10        -0.8090    1.2200    6.5890 ha        1 BOL      0.132500
     24 H11         0.3400   -0.0440    8.4120 ha        1 BOL      0.133000
     25 H12         2.4480   -1.2850    7.9130 ha        1 BOL      0.132500
     26 H13         3.4040   -1.2740    5.6400 ha        1 BOL      0.150500
@<TRIPOS>BOND
     1    1    4 1   
     2    2   10 1   
     3    2   11 1   
     4    2   17 1   
     5    3   10 2   
     6    4    5 ar  
     7    4    9 ar  
     8    5    6 ar  
     9    5   10 1   
    10    6    7 ar  
    11    6   18 1   
    12    7    8 ar  
    13    7   19 1   
    14    8    9 ar  
    15    8   20 1   
    16    9   21 1   
    17   11   12 ar  
    18   11   16 ar  
    19   12   13 ar  
    20   12   22 1   
    21   13   14 ar  
    22   13   23 1   
    23   14   15 ar  
    24   14   24 1   
    25   15   16 ar  
    26   15   25 1   
    27   16   26 1   
@<TRIPOS>SUBSTRUCTURE
     1 BOL         1 TEMP              0 ****  ****    0 ROOT
