@<TRIPOS>MOLECULE
BOL
   27    28     1     0     0
SMALL
bcc


@<TRIPOS>ATOM
      1 I           2.5540   -3.0380    0.8700 i         1 BOL     -0.100900
      2 N           1.0500   -1.1310    3.1850 n4        1 BOL     -0.549200
      3 O           0.0090    0.2510    1.6400 o         1 BOL     -0.399100
      4 C1          3.1600   -1.1090    0.7970 ca        1 BOL      0.039900
      5 C2          2.3970   -0.0500    1.3130 ca        1 BOL     -0.162600
      6 C3          2.8400    1.2740    1.1820 ca        1 BOL     -0.060000
      7 C4          4.0580    1.5400    0.5550 ca        1 BOL     -0.103000
      8 C5          4.8230    0.4920    0.0510 ca        1 BOL     -0.069000
      9 C6          4.3710   -0.8270    0.1680 ca        1 BOL     -0.086000
     10 C7          1.0830   -0.2390    1.9480 c         1 BOL      0.579700
     11 C8          1.3870   -0.3840    4.3990 ca        1 BOL     -0.058400
     12 C9          0.4680    0.5510    4.9110 ca        1 BOL     -0.100500
     13 C10         0.7830    1.2400    6.0800 ca        1 BOL     -0.104000
     14 C11         1.9940    1.0070    6.7340 ca        1 BOL     -0.071000
     15 C12         2.9020    0.0800    6.2190 ca        1 BOL     -0.104000
     16 C13         2.6100   -0.6220    5.0520 ca        1 BOL     -0.100500
     17 HN          1.7130   -1.9110    3.0600 hn        1 BOL      0.465800
     18 H3          2.2220    2.1040    1.5640 ha        1 BOL      0.164000
     19 H4          4.4040    2.5830    0.4540 ha        1 BOL      0.172000
     20 H5          5.7850    0.6970   -0.4500 ha        1 BOL      0.172000
     21 H6          4.9830   -1.6440   -0.2540 ha        1 BOL      0.176000
     22 H9         -0.4910    0.7450    4.4020 ha        1 BOL      0.160500
     23 H10         0.0650    1.9720    6.4870 ha        1 BOL      0.172000
     24 H11         2.2340    1.5560    7.6610 ha        1 BOL      0.171000
     25 H12         3.8570   -0.1050    6.7380 ha        1 BOL      0.172000
     26 H13         3.3380   -1.3530    4.6630 ha        1 BOL      0.160500
     27 HN3         0.0990   -1.5120    3.2950 hn        1 BOL      0.465800
@<TRIPOS>BOND
     1    1    4 1   
     2    2   10 1   
     3    2   11 1   
     4    2   17 1   
     5    2   27 1   
     6    3   10 2   
     7    4    5 ar  
     8    4    9 ar  
     9    5    6 ar  
    10    5   10 1   
    11    6    7 ar  
    12    6   18 1   
    13    7    8 ar  
    14    7   19 1   
    15    8    9 ar  
    16    8   20 1   
    17    9   21 1   
    18   11   12 ar  
    19   11   16 ar  
    20   12   13 ar  
    21   12   22 1   
    22   13   14 ar  
    23   13   23 1   
    24   14   15 ar  
    25   14   24 1   
    26   15   16 ar  
    27   15   25 1   
    28   16   26 1   
@<TRIPOS>SUBSTRUCTURE
     1 BOL         1 TEMP              0 ****  ****    0 ROOT
