@<TRIPOS>MOLECULE
BOL
   26    23     1     0     0
SMALL
bcc


@<TRIPOS>ATOM
      1 I           0.1250   -3.1290   -1.3560 i         1 BOL      0.163000
      2 N           0.3810    0.1260    0.6290 n         1 BOL     -0.315000
      3 O          -1.5520   -0.0520   -0.5740 o         1 BOL     -0.325000
      4 C1          0.6920   -1.3980   -2.4160 c2        1 BOL     -0.240000
      5 C2          0.4100   -0.1440   -1.8980 c2        1 BOL     -0.091000
      6 C3          0.7640    0.9940   -2.6050 c1        1 BOL     -0.097000
      7 C4          1.4000    0.8780   -3.8320 c1        1 BOL     -0.123500
      8 C5          1.6820   -0.3760   -4.3500 c1        1 BOL     -0.123500
      9 C6          1.3280   -1.5140   -3.6430 c1        1 BOL     -0.103000
     10 C7         -0.3380   -0.0180   -0.5870 c2        1 BOL      0.350000
     11 C8         -0.3200    0.2300    1.8600 c2        1 BOL      0.075000
     12 C9         -0.8370   -0.9070    2.4610 c2        1 BOL     -0.154000
     13 C10        -1.5100   -0.8070    3.6690 c1        1 BOL     -0.105000
     14 C11        -1.6640    0.4300    4.2750 c1        1 BOL     -0.123500
     15 C12        -1.1460    1.5660    3.6750 c1        1 BOL     -0.123500
     16 C13        -0.4740    1.4660    2.4670 c1        1 BOL     -0.182000
     17 HN          1.2930    0.1370    0.6210 hn        1 BOL      0.235000
     18 H3          0.5650    1.8770   -2.2400 ha        1 BOL      0.151000
     19 H4          1.6490    1.6800   -4.3300 ha        1 BOL      0.137250
     20 H5          2.1300   -0.4580   -5.2140 ha        1 BOL      0.137250
     21 H6          1.5270   -2.3980   -4.0080 ha        1 BOL      0.149000
     22 H9         -0.7290   -1.7770    2.0330 ha        1 BOL      0.172000
     23 H10        -1.8750   -1.6070    4.0920 ha        1 BOL      0.134000
     24 H11        -2.1380    0.5000    5.1260 ha        1 BOL      0.137250
     25 H12        -1.2550    2.4370    4.1020 ha        1 BOL      0.137250
     26 H13        -0.1090    2.2660    2.0430 ha        1 BOL      0.129000
@<TRIPOS>BOND
     1    1    4 1   
     2    2   10 1   
     3    2   11 1   
     4    2   17 1   
     5    3   10 1   
     6    4    5 1   
     7    4    9 1   
     8    5    6 1   
     9    5   10 1   
    10    6   18 1   
    11    7    8 1   
    12    7   19 1   
    13    8   20 1   
    14    9   21 1   
    15   11   12 1   
    16   11   16 1   
    17   12   13 1   
    18   12   22 1   
    19   13   23 1   
    20   14   15 1   
    21   14   24 1   
    22   15   25 1   
    23   16   26 1   
@<TRIPOS>SUBSTRUCTURE
     1 BOL         1 TEMP              0 ****  ****    0 ROOT
