@<TRIPOS>MOLECULE
BOM
   47    46     1     0     0
SMALL
bcc


@<TRIPOS>ATOM
      1 O1         -0.1780    1.1340    0.1130 oh        1 BOM     -0.601800
      2 C2          0.7400    0.1460    0.5530 c3        1 BOM      0.131400
      3 C4          1.8290    0.8650    1.3310 c3        1 BOM     -0.084400
      4 C7          2.8570   -0.1210    1.8410 c3        1 BOM     -0.078400
      5 C10         3.9480    0.5840    2.6190 c3        1 BOM     -0.078400
      6 C13         4.9790   -0.3990    3.1310 c3        1 BOM     -0.079400
      7 C16         6.0700    0.3050    3.9090 c3        1 BOM     -0.079400
      8 C19         7.1010   -0.6770    4.4220 c3        1 BOM     -0.079400
      9 C22         8.1910    0.0280    5.1990 c3        1 BOM     -0.078400
     10 C25         9.2220   -0.9590    5.7110 c3        1 BOM     -0.052200
     11 C28        10.3010   -0.2910    6.4760 c2        1 BOM     -0.153200
     12 C31        11.3400   -0.9210    7.0430 ce        1 BOM     -0.145000
     13 C33        11.5660   -2.3490    6.9930 ce        1 BOM     -0.146000
     14 C35        12.6060   -2.9790    7.5600 c2        1 BOM     -0.152200
     15 C37        13.6850   -2.3120    8.3250 c3        1 BOM     -0.053200
     16 C39        14.7160   -3.2970    8.8380 c3        1 BOM     -0.079400
     17 C42        15.8040   -2.5990    9.6130 c3        1 BOM     -0.093100
     18 HO1        -0.8650    0.6710   -0.3800 ho        1 BOM      0.398000
     19 H21         0.2140   -0.6000    1.2080 h1        1 BOM      0.019700
     20 H22         1.1760   -0.3930   -0.3310 h1        1 BOM      0.019700
     21 H41         1.3650    1.4210    2.1870 hc        1 BOM      0.055700
     22 H42         2.3160    1.6260    0.6680 hc        1 BOM      0.055700
     23 H71         2.3580   -0.8810    2.4990 hc        1 BOM      0.039700
     24 H72         3.3090   -0.6760    0.9780 hc        1 BOM      0.039700
     25 H101        3.4950    1.1390    3.4820 hc        1 BOM      0.041700
     26 H102        4.4470    1.3440    1.9620 hc        1 BOM      0.041700
     27 H131        4.4800   -1.1590    3.7880 hc        1 BOM      0.039700
     28 H132        5.4310   -0.9550    2.2680 hc        1 BOM      0.039700
     29 H161        5.6170    0.8610    4.7720 hc        1 BOM      0.040700
     30 H162        6.5690    1.0660    3.2520 hc        1 BOM      0.040700
     31 H191        7.5530   -1.2330    3.5580 hc        1 BOM      0.039700
     32 H192        6.6010   -1.4380    5.0790 hc        1 BOM      0.039700
     33 H221        8.6910    0.7870    4.5420 hc        1 BOM      0.041700
     34 H222        7.7390    0.5830    6.0630 hc        1 BOM      0.041700
     35 H251        8.7140   -1.7220    6.3630 hc        1 BOM      0.050700
     36 H252        9.6660   -1.5170    4.8420 hc        1 BOM      0.050700
     37 H281       10.2130    0.8050    6.5680 ha        1 BOM      0.121000
     38 H311       12.0960   -0.3330    7.5950 ha        1 BOM      0.121000
     39 H331       10.8110   -2.9370    6.4410 ha        1 BOM      0.121000
     40 H351       12.6940   -4.0750    7.4680 ha        1 BOM      0.121000
     41 H371       14.1930   -1.5490    7.6730 hc        1 BOM      0.050700
     42 H372       13.2410   -1.7530    9.1940 hc        1 BOM      0.050700
     43 H391       14.2140   -4.0570    9.4940 hc        1 BOM      0.040700
     44 H392       15.1660   -3.8520    7.9730 hc        1 BOM      0.040700
     45 H421       16.5530   -3.3410    9.9830 hc        1 BOM      0.033033
     46 H422       16.3320   -1.8550    8.9690 hc        1 BOM      0.033033
     47 H423       15.3780   -2.0600   10.4940 hc        1 BOM      0.033033
@<TRIPOS>BOND
     1    1    2 1   
     2    1   18 1   
     3    2    3 1   
     4    2   19 1   
     5    2   20 1   
     6    3    4 1   
     7    3   21 1   
     8    3   22 1   
     9    4    5 1   
    10    4   23 1   
    11    4   24 1   
    12    5    6 1   
    13    5   25 1   
    14    5   26 1   
    15    6    7 1   
    16    6   27 1   
    17    6   28 1   
    18    7    8 1   
    19    7   29 1   
    20    7   30 1   
    21    8    9 1   
    22    8   31 1   
    23    8   32 1   
    24    9   10 1   
    25    9   33 1   
    26    9   34 1   
    27   10   11 1   
    28   10   35 1   
    29   10   36 1   
    30   11   12 2   
    31   11   37 1   
    32   12   13 1   
    33   12   38 1   
    34   13   14 2   
    35   13   39 1   
    36   14   15 1   
    37   14   40 1   
    38   15   16 1   
    39   15   41 1   
    40   15   42 1   
    41   16   17 1   
    42   16   43 1   
    43   16   44 1   
    44   17   45 1   
    45   17   46 1   
    46   17   47 1   
@<TRIPOS>SUBSTRUCTURE
     1 BOM         1 TEMP              0 ****  ****    0 ROOT
