@<TRIPOS>MOLECULE
BOM
   47    44     1     0     0
SMALL
bcc


@<TRIPOS>ATOM
      1 O1         -3.4440    3.5180   -8.1710 oh        1 BOM     -0.329000
      2 C2         -3.1240    2.3720   -7.4140 c3        1 BOM     -0.019000
      3 C4         -2.5650    2.7930   -6.0730 c3        1 BOM     -0.163000
      4 C7         -2.2410    1.5640   -5.2530 c3        1 BOM     -0.157000
      5 C10        -1.5170    1.9770   -3.9900 c3        1 BOM     -0.157000
      6 C13        -1.2900    0.7610   -3.1190 c3        1 BOM     -0.158000
      7 C16        -0.3790    1.1280   -1.9680 c3        1 BOM     -0.158000
      8 C19        -0.3890    0.0160   -0.9420 c3        1 BOM     -0.158000
      9 C22         0.7910    0.1790   -0.0100 c3        1 BOM     -0.157000
     10 C25         0.6230   -0.7370    1.1820 c3        1 BOM     -0.135000
     11 C28         1.9730   -0.9970    1.8130 c2        1 BOM     -0.149000
     12 C31         2.0480   -1.4680    3.0730 c1        1 BOM     -0.145000
     13 C33         0.7820   -1.7380    3.8570 c1        1 BOM     -0.147000
     14 C35         0.8540   -2.0650    5.1620 c1        1 BOM     -0.147000
     15 C37         2.2010   -2.1620    5.8440 c2        1 BOM     -0.136000
     16 C39         2.0030   -2.4790    7.3100 c3        1 BOM     -0.158000
     17 C42         3.3360   -2.4230    8.0230 c3        1 BOM     -0.211000
     18 HO1        -3.7730    3.2710   -8.9590 ho        1 BOM      0.197000
     19 H21        -3.9320    1.8350   -7.2770 h1        1 BOM      0.059000
     20 H22        -2.4560    1.8400   -7.8940 h1        1 BOM      0.059000
     21 H41        -3.2280    3.3350   -5.5990 hc        1 BOM      0.095000
     22 H42        -1.7520    3.3190   -6.2090 hc        1 BOM      0.095000
     23 H71        -3.0690    1.1000   -5.0180 hc        1 BOM      0.079000
     24 H72        -1.6690    0.9660   -5.7750 hc        1 BOM      0.079000
     25 H101       -2.0590    2.6300   -3.5030 hc        1 BOM      0.081000
     26 H102       -0.6560    2.3760   -4.2230 hc        1 BOM      0.081000
     27 H131       -2.1470    0.4450   -2.7690 hc        1 BOM      0.079000
     28 H132       -0.8740    0.0520   -3.6500 hc        1 BOM      0.079000
     29 H161        0.5310    1.2560   -2.3010 hc        1 BOM      0.080000
     30 H162       -0.6950    1.9560   -1.5540 hc        1 BOM      0.080000
     31 H191       -1.2200    0.0550   -0.4270 hc        1 BOM      0.079000
     32 H192       -0.3280   -0.8480   -1.3970 hc        1 BOM      0.079000
     33 H221        0.8390    1.1070    0.2960 hc        1 BOM      0.081000
     34 H222        1.6150   -0.0510   -0.4840 hc        1 BOM      0.081000
     35 H251        0.0320   -0.3140    1.8370 hc        1 BOM      0.090000
     36 H252        0.2310   -1.5840    0.8890 hc        1 BOM      0.090000
     37 H281        2.7900   -0.8220    1.3080 ha        1 BOM      0.121000
     38 H311        2.9190   -1.6360    3.4810 ha        1 BOM      0.121000
     39 H331       -0.0870   -1.6750    3.4170 ha        1 BOM      0.121000
     40 H351        0.0380   -2.2390    5.6680 ha        1 BOM      0.121000
     41 H371        2.6740   -1.3100    5.7560 ha        1 BOM      0.090000
     42 H372        2.7280   -2.8720    5.4250 ha        1 BOM      0.090000
     43 H391        1.3940   -1.8240    7.7060 hc        1 BOM      0.080000
     44 H392        1.6210   -3.3750    7.4010 hc        1 BOM      0.080000
     45 H421        3.1930   -2.5030    8.9900 hc        1 BOM      0.072333
     46 H422        3.7760   -1.5700    7.8270 hc        1 BOM      0.072333
     47 H423        3.9020   -3.1610    7.7150 hc        1 BOM      0.072333
@<TRIPOS>BOND
     1    1    2 1   
     2    1   18 1   
     3    2    3 1   
     4    2   19 1   
     5    2   20 1   
     6    3    4 1   
     7    3   21 1   
     8    3   22 1   
     9    4    5 1   
    10    4   23 1   
    11    4   24 1   
    12    5    6 1   
    13    5   25 1   
    14    5   26 1   
    15    6    7 1   
    16    6   27 1   
    17    6   28 1   
    18    7    8 1   
    19    7   29 1   
    20    7   30 1   
    21    8    9 1   
    22    8   31 1   
    23    8   32 1   
    24    9   10 1   
    25    9   33 1   
    26    9   34 1   
    27   10   11 1   
    28   10   35 1   
    29   10   36 1   
    30   11   12 1   
    31   11   37 1   
    32   12   38 1   
    33   13   14 1   
    34   13   39 1   
    35   14   40 1   
    36   15   16 1   
    37   15   41 1   
    38   15   42 1   
    39   16   17 1   
    40   16   43 1   
    41   16   44 1   
    42   17   45 1   
    43   17   46 1   
    44   17   47 1   
@<TRIPOS>SUBSTRUCTURE
     1 BOM         1 TEMP              0 ****  ****    0 ROOT
