@<TRIPOS>MOLECULE
BOM
   47    46     1     0     0
SMALL
bcc


@<TRIPOS>ATOM
      1 O1          0.3280   -0.7440   -9.3540 oh        1 BOM     -0.601800
      2 C2          0.7310    0.0430   -8.2440 c3        1 BOM      0.131400
      3 C4          0.0330   -0.5220   -7.0190 c3        1 BOM     -0.084400
      4 C7          0.4090    0.2630   -5.7820 c3        1 BOM     -0.078400
      5 C10        -0.2810   -0.2910   -4.5540 c3        1 BOM     -0.078400
      6 C13         0.0920    0.4930   -3.3150 c3        1 BOM     -0.079400
      7 C16        -0.5970   -0.0620   -2.0860 c3        1 BOM     -0.079400
      8 C19        -0.2250    0.7230   -0.8470 c3        1 BOM     -0.079400
      9 C22        -0.9130    0.1660    0.3810 c3        1 BOM     -0.076400
     10 C25        -0.5400    0.9560    1.6210 c3        1 BOM     -0.050200
     11 C28        -1.2220    0.4300    2.8270 c2        1 BOM     -0.156200
     12 C31        -0.6100    0.2650    4.0090 ce        1 BOM     -0.141000
     13 C33        -1.2900   -0.2280    5.1870 ce        1 BOM     -0.144000
     14 C35        -0.7140   -0.4020    6.3850 c2        1 BOM     -0.154200
     15 C37         0.7080   -0.1180    6.6900 c3        1 BOM     -0.052200
     16 C39         1.0540   -0.4160    8.1350 c3        1 BOM     -0.079400
     17 C42         2.5030   -0.1200    8.4240 c3        1 BOM     -0.093100
     18 HO1         0.7750   -0.3800  -10.1260 ho        1 BOM      0.398000
     19 H21         0.4370    1.1150   -8.4080 h1        1 BOM      0.019700
     20 H22         1.8470   -0.0100   -8.1230 h1        1 BOM      0.019700
     21 H41         0.3180   -1.6000   -6.8960 hc        1 BOM      0.055700
     22 H42        -1.0760   -0.4900   -7.1780 hc        1 BOM      0.055700
     23 H71         0.1250    1.3400   -5.9180 hc        1 BOM      0.039700
     24 H72         1.5210    0.2300   -5.6360 hc        1 BOM      0.039700
     25 H101        0.0030   -1.3680   -4.4180 hc        1 BOM      0.041700
     26 H102       -1.3930   -0.2580   -4.7000 hc        1 BOM      0.041700
     27 H131       -0.1910    1.5700   -3.4510 hc        1 BOM      0.039700
     28 H132        1.2040    0.4600   -3.1690 hc        1 BOM      0.039700
     29 H161       -0.3130   -1.1390   -1.9500 hc        1 BOM      0.040700
     30 H162       -1.7090   -0.0290   -2.2320 hc        1 BOM      0.040700
     31 H191       -0.5090    1.7990   -0.9830 hc        1 BOM      0.039700
     32 H192        0.8870    0.6910   -0.7010 hc        1 BOM      0.039700
     33 H221       -0.6260   -0.9090    0.5200 hc        1 BOM      0.042700
     34 H222       -2.0250    0.1960    0.2360 hc        1 BOM      0.042700
     35 H251       -0.8390    2.0320    1.4800 hc        1 BOM      0.047200
     36 H252        0.5750    0.9390    1.7540 hc        1 BOM      0.047200
     37 H281       -2.2900    0.1880    2.6990 ha        1 BOM      0.121000
     38 H311        0.4610    0.5060    4.1270 ha        1 BOM      0.122000
     39 H331       -2.3600   -0.4700    5.0580 ha        1 BOM      0.120000
     40 H351       -1.3150   -0.7850    7.2280 ha        1 BOM      0.121000
     41 H371        0.9310    0.9620    6.4700 hc        1 BOM      0.050700
     42 H372        1.3670   -0.7300    6.0160 hc        1 BOM      0.050700
     43 H391        0.8380   -1.4940    8.3570 hc        1 BOM      0.040700
     44 H392        0.4020    0.1980    8.8110 hc        1 BOM      0.040700
     45 H421        2.7390   -0.3450    9.4920 hc        1 BOM      0.033033
     46 H422        3.1700   -0.7400    7.7770 hc        1 BOM      0.033033
     47 H423        2.7320    0.9570    8.2320 hc        1 BOM      0.033033
@<TRIPOS>BOND
     1    1    2 1   
     2    1   18 1   
     3    2    3 1   
     4    2   19 1   
     5    2   20 1   
     6    3    4 1   
     7    3   21 1   
     8    3   22 1   
     9    4    5 1   
    10    4   23 1   
    11    4   24 1   
    12    5    6 1   
    13    5   25 1   
    14    5   26 1   
    15    6    7 1   
    16    6   27 1   
    17    6   28 1   
    18    7    8 1   
    19    7   29 1   
    20    7   30 1   
    21    8    9 1   
    22    8   31 1   
    23    8   32 1   
    24    9   10 1   
    25    9   33 1   
    26    9   34 1   
    27   10   11 1   
    28   10   35 1   
    29   10   36 1   
    30   11   12 2   
    31   11   37 1   
    32   12   13 1   
    33   12   38 1   
    34   13   14 2   
    35   13   39 1   
    36   14   15 1   
    37   14   40 1   
    38   15   16 1   
    39   15   41 1   
    40   15   42 1   
    41   16   17 1   
    42   16   43 1   
    43   16   44 1   
    44   17   45 1   
    45   17   46 1   
    46   17   47 1   
@<TRIPOS>SUBSTRUCTURE
     1 BOM         1 TEMP              0 ****  ****    0 ROOT
