@<TRIPOS>MOLECULE
BOM
   47    46     1     0     0
SMALL
bcc


@<TRIPOS>ATOM
      1 O1         -0.2200    1.0390    0.1460 oh        1 BOM     -0.601800
      2 C2          0.7100    0.0620    0.5850 c3        1 BOM      0.131400
      3 C4          1.7920    0.7920    1.3620 c3        1 BOM     -0.084400
      4 C7          2.8320   -0.1810    1.8690 c3        1 BOM     -0.078400
      5 C10         3.9160    0.5360    2.6450 c3        1 BOM     -0.078400
      6 C13         4.9600   -0.4350    3.1550 c3        1 BOM     -0.079400
      7 C16         6.0440    0.2810    3.9300 c3        1 BOM     -0.079400
      8 C19         7.0880   -0.6890    4.4390 c3        1 BOM     -0.079400
      9 C22         8.1720    0.0280    5.2140 c3        1 BOM     -0.078400
     10 C25         9.2170   -0.9460    5.7200 c3        1 BOM     -0.052200
     11 C28        10.2910   -0.2670    6.4820 c2        1 BOM     -0.153200
     12 C31        11.3440   -0.8830    7.0380 ce        1 BOM     -0.145000
     13 C33        11.5920   -2.3070    6.9780 ce        1 BOM     -0.146000
     14 C35        12.6480   -2.9230    7.5290 c2        1 BOM     -0.152200
     15 C37        13.7250   -2.2430    8.2850 c3        1 BOM     -0.053200
     16 C39        14.7800   -3.2140    8.7780 c3        1 BOM     -0.079400
     17 C42        15.8660   -2.5030    9.5430 c3        1 BOM     -0.093100
     18 HO1        -0.9020    0.5680   -0.3460 ho        1 BOM      0.398000
     19 H21         0.1930   -0.6910    1.2390 h1        1 BOM      0.019700
     20 H22         1.1510   -0.4720   -0.3000 h1        1 BOM      0.019700
     21 H41         1.3230    1.3430    2.2190 hc        1 BOM      0.055700
     22 H42         2.2680    1.5600    0.6980 hc        1 BOM      0.055700
     23 H71         2.3430   -0.9480    2.5270 hc        1 BOM      0.039700
     24 H72         3.2890   -0.7300    1.0040 hc        1 BOM      0.039700
     25 H101        3.4590    1.0850    3.5100 hc        1 BOM      0.041700
     26 H102        4.4040    1.3030    1.9880 hc        1 BOM      0.041700
     27 H131        4.4710   -1.2020    3.8120 hc        1 BOM      0.039700
     28 H132        5.4160   -0.9850    2.2900 hc        1 BOM      0.039700
     29 H161        5.5870    0.8300    4.7960 hc        1 BOM      0.040700
     30 H162        6.5320    1.0490    3.2730 hc        1 BOM      0.040700
     31 H191        7.5450   -1.2380    3.5730 hc        1 BOM      0.039700
     32 H192        6.6000   -1.4560    5.0960 hc        1 BOM      0.039700
     33 H221        8.6600    0.7950    4.5560 hc        1 BOM      0.041700
     34 H222        7.7160    0.5760    6.0800 hc        1 BOM      0.041700
     35 H251        8.7220   -1.7160    6.3730 hc        1 BOM      0.050700
     36 H252        9.6650   -1.4980    4.8490 hc        1 BOM      0.050700
     37 H281       10.1860    0.8270    6.5810 ha        1 BOM      0.121000
     38 H311       12.0940   -0.2870    7.5880 ha        1 BOM      0.121000
     39 H331       10.8390   -2.9040    6.4320 ha        1 BOM      0.121000
     40 H351       12.7520   -4.0170    7.4310 ha        1 BOM      0.121000
     41 H371       14.2120   -1.4670    7.6320 hc        1 BOM      0.050700
     42 H372       13.2830   -1.6970    9.1630 hc        1 BOM      0.050700
     43 H391       14.2990   -3.9860    9.4350 hc        1 BOM      0.040700
     44 H392       15.2270   -3.7560    7.9040 hc        1 BOM      0.040700
     45 H421       16.6320   -3.2340    9.8980 hc        1 BOM      0.033033
     46 H422       16.3730   -1.7460    8.8970 hc        1 BOM      0.033033
     47 H423       15.4430   -1.9760   10.4320 hc        1 BOM      0.033033
@<TRIPOS>BOND
     1    1    2 1   
     2    1   18 1   
     3    2    3 1   
     4    2   19 1   
     5    2   20 1   
     6    3    4 1   
     7    3   21 1   
     8    3   22 1   
     9    4    5 1   
    10    4   23 1   
    11    4   24 1   
    12    5    6 1   
    13    5   25 1   
    14    5   26 1   
    15    6    7 1   
    16    6   27 1   
    17    6   28 1   
    18    7    8 1   
    19    7   29 1   
    20    7   30 1   
    21    8    9 1   
    22    8   31 1   
    23    8   32 1   
    24    9   10 1   
    25    9   33 1   
    26    9   34 1   
    27   10   11 1   
    28   10   35 1   
    29   10   36 1   
    30   11   12 2   
    31   11   37 1   
    32   12   13 1   
    33   12   38 1   
    34   13   14 2   
    35   13   39 1   
    36   14   15 1   
    37   14   40 1   
    38   15   16 1   
    39   15   41 1   
    40   15   42 1   
    41   16   17 1   
    42   16   43 1   
    43   16   44 1   
    44   17   45 1   
    45   17   46 1   
    46   17   47 1   
@<TRIPOS>SUBSTRUCTURE
     1 BOM         1 TEMP              0 ****  ****    0 ROOT
