@<TRIPOS>MOLECULE
BOP
   16    13     1     0     0
SMALL
bcc


@<TRIPOS>ATOM
      1 C2         -0.2510   -0.5070   -0.2180 c1        1 BOP      0.121600
      2 C3          1.1180   -0.3150   -0.3380 c1        1 BOP     -0.079500
      3 C4          1.8320    0.2840    0.7010 c1        1 BOP     -0.079500
      4 C5          1.1720    0.6860    1.8560 c1        1 BOP      0.029800
      5 C6         -0.1930    0.4940    1.9760 c1        1 BOP     -0.014500
      6 O1         -0.9610   -1.2480   -1.2260 os        1 BOP     -0.307400
      7 C7         -1.3740   -0.4490   -2.3640 c3        1 BOP      0.111700
      8 BR1         2.1350    1.6020    3.2420 br        1 BOP     -0.183800
      9 C1         -0.9080   -0.1050    0.9370 c1        1 BOP     -0.100500
     10 H3          1.5810   -0.5970   -1.1500 ha        1 BOP      0.086500
     11 H4          2.7970    0.4210    0.6170 ha        1 BOP      0.086500
     12 H6         -0.6620    0.7800    2.7970 ha        1 BOP      0.091500
     13 H71        -2.0310   -0.9440   -2.8880 h1        1 BOP      0.047033
     14 H72        -0.5970   -0.2480   -2.9210 h1        1 BOP      0.047033
     15 H73        -1.7740    0.3900   -2.0470 h1        1 BOP      0.047033
     16 H1         -1.8840   -0.2420    1.0240 ha        1 BOP      0.097500
@<TRIPOS>BOND
     1    1    6 1   
     2    1    9 3   
     3    2    3 3   
     4    2   10 1   
     5    3   11 1   
     6    4    5 3   
     7    4    8 1   
     8    5   12 1   
     9    6    7 1   
    10    7   13 1   
    11    7   14 1   
    12    7   15 1   
    13    9   16 1   
@<TRIPOS>SUBSTRUCTURE
     1 BOP         1 TEMP              0 ****  ****    0 ROOT
