@<TRIPOS>MOLECULE
BOP
   16    16     1     0     0
SMALL
bcc


@<TRIPOS>ATOM
      1 C2          0.1430    0.0000    0.0130 ca        1 BOP      0.138100
      2 C3          1.5410    0.0030    0.0890 ca        1 BOP     -0.182500
      3 C4          2.1580   -0.0010    1.3390 ca        1 BOP     -0.069500
      4 C5          1.3910   -0.0070    2.5060 ca        1 BOP     -0.063900
      5 C6         -0.0070   -0.0090    2.4230 ca        1 BOP     -0.069500
      6 O1         -0.5770    0.0040   -1.1630 os        1 BOP     -0.323900
      7 C7          0.1820    0.0100   -2.3670 c3        1 BOP      0.111700
      8 BR1         2.2290   -0.0120    4.1790 br        1 BOP     -0.090100
      9 C1         -0.6370   -0.0050    1.1850 ca        1 BOP     -0.182500
     10 H3          2.1590    0.0070   -0.8200 ha        1 BOP      0.148500
     11 H4          3.2580    0.0010    1.3940 ha        1 BOP      0.147500
     12 H6         -0.6180   -0.0140    3.3390 ha        1 BOP      0.147500
     13 H71         0.8130    0.9290   -2.4310 h1        1 BOP      0.047033
     14 H72        -0.6010    0.0110   -3.1670 h1        1 BOP      0.047033
     15 H73         0.8160   -0.9070   -2.4380 h1        1 BOP      0.047033
     16 H1         -1.7330   -0.0070    1.1060 ha        1 BOP      0.148500
@<TRIPOS>BOND
     1    1    2 ar  
     2    1    6 1   
     3    1    9 ar  
     4    2    3 ar  
     5    2   10 1   
     6    3    4 ar  
     7    3   11 1   
     8    4    5 ar  
     9    4    8 1   
    10    5    9 ar  
    11    5   12 1   
    12    6    7 1   
    13    7   13 1   
    14    7   14 1   
    15    7   15 1   
    16    9   16 1   
@<TRIPOS>SUBSTRUCTURE
     1 BOP         1 TEMP              0 ****  ****    0 ROOT
