@<TRIPOS>MOLECULE
BOP
   16    16     1     0     0
SMALL
bcc


@<TRIPOS>ATOM
      1 C2         -0.2030   -0.0000    2.2000 ca        1 BOP      0.138100
      2 C3          1.0350    0.0000    1.5470 ca        1 BOP     -0.182500
      3 C4          1.0720    0.0000    0.1530 ca        1 BOP     -0.069500
      4 C5         -0.1120    0.0000   -0.5860 ca        1 BOP     -0.063900
      5 C6         -1.3480    0.0000    0.0750 ca        1 BOP     -0.069500
      6 O1         -0.3650   -0.0010    3.5710 os        1 BOP     -0.323900
      7 C7          0.8290   -0.0010    4.3460 c3        1 BOP      0.111700
      8 BR1        -0.0530    0.0010   -2.4560 br        1 BOP     -0.090100
      9 C1         -1.4020   -0.0000    1.4620 ca        1 BOP     -0.182500
     10 H3          1.9770   -0.0000    2.1130 ha        1 BOP      0.148500
     11 H4          2.0480    0.0010   -0.3570 ha        1 BOP      0.147500
     12 H6         -2.2870    0.0000   -0.5010 ha        1 BOP      0.147500
     13 H71         0.4520   -0.0010    5.4010 h1        1 BOP      0.047033
     14 H72         1.4310   -0.9190    4.1420 h1        1 BOP      0.047033
     15 H73         1.4310    0.9180    4.1430 h1        1 BOP      0.047033
     16 H1         -2.3650   -0.0000    1.9940 ha        1 BOP      0.148500
@<TRIPOS>BOND
     1    1    2 ar  
     2    1    6 1   
     3    1    9 ar  
     4    2    3 ar  
     5    2   10 1   
     6    3    4 ar  
     7    3   11 1   
     8    4    5 ar  
     9    4    8 1   
    10    5    9 ar  
    11    5   12 1   
    12    6    7 1   
    13    7   13 1   
    14    7   14 1   
    15    7   15 1   
    16    9   16 1   
@<TRIPOS>SUBSTRUCTURE
     1 BOP         1 TEMP              0 ****  ****    0 ROOT
