@<TRIPOS>MOLECULE
BOS
   33    34     1     0     0
SMALL
bcc


@<TRIPOS>ATOM
      1 N1          0.1030   -0.1570    0.5000 n4        1 BOS     -0.779500
      2 S1          1.6960    0.1040   -0.6190 sy        1 BOS      1.517200
      3 O1          2.4990    0.7240    0.3160 o         1 BOS     -0.580800
      4 O2          1.1110    0.8170   -1.6450 o         1 BOS     -0.580800
      5 C1          1.9990   -1.4050   -0.9090 ca        1 BOS     -0.654500
      6 C2          1.5120   -2.0590   -2.0740 ca        1 BOS      0.049000
      7 C3          1.8250   -3.3580   -2.3700 ca        1 BOS     -0.218500
      8 C4          2.6740   -4.1300   -1.5040 ca        1 BOS      0.234600
      9 C5          3.1740   -3.4790   -0.3330 ca        1 BOS     -0.218500
     10 C6          2.8470   -2.1740   -0.0650 ca        1 BOS      0.049000
     11 N2          2.9660   -5.4230   -1.8470 n         1 BOS     -0.443100
     12 C7          3.7270   -6.3640   -1.1070 c         1 BOS      0.695700
     13 O3          4.2100   -6.0690   -0.0060 o         1 BOS     -0.529100
     14 C8          3.9540   -7.6850   -1.7510 ca        1 BOS     -0.158600
     15 C9          5.2530   -8.2020   -1.6390 ca        1 BOS     -0.055000
     16 C10         5.5720   -9.4350   -2.2000 ca        1 BOS     -0.130000
     17 C11         4.5880  -10.1670   -2.8650 ca        1 BOS     -0.067000
     18 C12         3.2910   -9.6680   -2.9600 ca        1 BOS     -0.147000
     19 C13         2.9550   -8.4260   -2.4050 ca        1 BOS      0.051900
     20 S2          1.3600   -7.8360   -2.4810 sh        1 BOS     -0.291700
     21 HN11        0.2540    0.2470    1.4200 hn        1 BOS      0.446133
     22 HN12       -0.6980    0.3040    0.0810 hn        1 BOS      0.446133
     23 H2          0.8700   -1.4840   -2.7700 ha        1 BOS      0.164500
     24 H3          1.4240   -3.8140   -3.2920 ha        1 BOS      0.187000
     25 H5          3.8400   -4.0220    0.3640 ha        1 BOS      0.187000
     26 H6          3.2730   -1.6900    0.8360 ha        1 BOS      0.164500
     27 HN2         2.5560   -5.7650   -2.7020 hn        1 BOS      0.355500
     28 H9          6.0180   -7.6240   -1.0930 ha        1 BOS      0.162000
     29 H10         6.5960   -9.8320   -2.1130 ha        1 BOS      0.159000
     30 H11         4.8320  -11.1450   -3.3110 ha        1 BOS      0.157000
     31 H12         2.5210  -10.2660   -3.4730 ha        1 BOS      0.148000
     32 HS2         0.8090   -8.7430   -3.2810 hs        1 BOS      0.233800
     33 H13        -0.1200   -1.1380    0.6170 hn        1 BOS      0.446133
@<TRIPOS>BOND
     1    1    2 1   
     2    1   21 1   
     3    1   22 1   
     4    1   33 1   
     5    2    3 2   
     6    2    4 2   
     7    2    5 1   
     8    5    6 ar  
     9    5   10 ar  
    10    6    7 ar  
    11    6   23 1   
    12    7    8 ar  
    13    7   24 1   
    14    8    9 ar  
    15    8   11 1   
    16    9   10 ar  
    17    9   25 1   
    18   10   26 1   
    19   11   12 1   
    20   11   27 1   
    21   12   13 2   
    22   12   14 1   
    23   14   15 ar  
    24   14   19 ar  
    25   15   16 ar  
    26   15   28 1   
    27   16   17 ar  
    28   16   29 1   
    29   17   18 ar  
    30   17   30 1   
    31   18   19 ar  
    32   18   31 1   
    33   19   20 1   
    34   20   32 1   
@<TRIPOS>SUBSTRUCTURE
     1 BOS         1 TEMP              0 ****  ****    0 ROOT
