@<TRIPOS>MOLECULE
BOS
   32    28     1     0     0
SMALL
bcc


@<TRIPOS>ATOM
      1 N1         -1.4600    4.9410    3.0220 n3        1 BOS     -0.953000
      2 S1         -2.6220    3.8310    2.6770 s4        1 BOS      2.088800
      3 O1         -3.7310    4.4330    1.9890 o         1 BOS     -0.549900
      4 O2         -3.2600    3.3550    3.8730 o         1 BOS     -0.549900
      5 C1         -1.9330    2.4930    1.7400 c1        1 BOS     -0.874000
      6 C2         -2.2450    2.3550    0.3960 c1        1 BOS      0.011000
      7 C3         -1.7240    1.2960   -0.3320 c1        1 BOS     -0.217000
      8 C4         -0.8920    0.3750    0.2850 c1        1 BOS      0.148000
      9 C5         -0.5810    0.5120    1.6280 c1        1 BOS     -0.192000
     10 C6         -1.1010    1.5710    2.3560 c2        1 BOS      0.013000
     11 N2         -0.4180   -0.7500   -0.4420 n         1 BOS     -0.318000
     12 C7          0.9210   -0.7770   -0.9150 c2        1 BOS      0.358000
     13 O3          1.6600    0.1620   -0.6980 o         1 BOS     -0.329000
     14 C8          1.4370   -1.9920   -1.6570 c2        1 BOS     -0.120000
     15 C9          1.2340   -2.1080   -3.0230 c2        1 BOS     -0.063000
     16 C10         1.7600   -3.1890   -3.7130 c1        1 BOS     -0.141000
     17 C11         2.4900   -4.1540   -3.0360 c1        1 BOS     -0.121000
     18 C12         2.6930   -4.0390   -1.6700 c1        1 BOS     -0.121000
     19 C13         2.1670   -2.9570   -0.9800 c1        1 BOS     -0.185000
     20 S2          2.4870   -2.7720    0.7540 sh        1 BOS      0.149000
     21 HN11       -1.1690    5.5140    2.3720 hn        1 BOS      0.240500
     22 HN12       -1.1020    4.9810    3.8620 hn        1 BOS      0.240500
     23 H2         -2.8300    3.0040   -0.0370 ha        1 BOS      0.153000
     24 H3         -1.9440    1.2000   -1.2780 ha        1 BOS      0.139000
     25 H5          0.0050   -0.1370    2.0620 ha        1 BOS      0.180000
     26 H6         -0.8820    1.6680    3.3020 ha        1 BOS      0.153000
     27 HN2        -0.9790   -1.4470   -0.6210 hn        1 BOS      0.248000
     28 H9          0.7210   -1.4280   -3.4990 ha        1 BOS      0.158000
     29 H10         1.6170   -3.2710   -4.6740 ha        1 BOS      0.145000
     30 H11         2.8600   -4.9150   -3.5220 ha        1 BOS      0.139500
     31 H12         3.2070   -4.7180   -1.1940 ha        1 BOS      0.139500
     32 HS2         3.6140   -3.0350    0.9750 hs        1 BOS      0.031000
@<TRIPOS>BOND
     1    1    2 1   
     2    1   21 1   
     3    1   22 1   
     4    2    3 1   
     5    2    4 1   
     6    5    6 1   
     7    5   10 1   
     8    6   23 1   
     9    7    8 1   
    10    7   24 1   
    11    8   11 1   
    12    9   10 1   
    13    9   25 1   
    14   10   26 1   
    15   11   12 1   
    16   11   27 1   
    17   12   13 1   
    18   12   14 1   
    19   14   15 1   
    20   14   19 1   
    21   15   16 1   
    22   15   28 1   
    23   16   29 1   
    24   17   18 1   
    25   17   30 1   
    26   18   31 1   
    27   19   20 1   
    28   20   32 1   
@<TRIPOS>SUBSTRUCTURE
     1 BOS         1 TEMP              0 ****  ****    0 ROOT
