@<TRIPOS>MOLECULE
BOS
   34    35     1     0     0
SMALL
bcc


@<TRIPOS>ATOM
      1 N1         -0.1860   -0.1260   -0.7640 n4        1 BOS     -0.800500
      2 S1          1.4230   -0.1980    0.2240 sy        1 BOS      1.467200
      3 O1          0.9290   -0.2990    1.5030 o         1 BOS     -0.535800
      4 O2          2.0770    0.9020   -0.2780 o         1 BOS     -0.535800
      5 C1          2.0180   -1.6140   -0.3460 ca        1 BOS     -0.479500
      6 C2          2.8960   -1.6380   -1.4460 ca        1 BOS      0.026500
      7 C3          3.5000   -2.8180   -1.8690 ca        1 BOS     -0.121500
      8 C4          3.2330   -4.0180   -1.1830 ca        1 BOS      0.100600
      9 C5          2.3580   -4.0180   -0.0800 ca        1 BOS     -0.121500
     10 C6          1.7660   -2.8250    0.3240 ca        1 BOS      0.026500
     11 N2          3.8720   -5.2620   -1.6010 n4        1 BOS     -0.619200
     12 C7          2.9870   -6.1520   -2.4820 c         1 BOS      0.583700
     13 O3          2.0870   -5.5840   -3.0800 o         1 BOS     -0.416100
     14 C8          3.3700   -7.5660   -2.5500 ca        1 BOS     -0.185600
     15 C9          3.1470   -8.1920   -3.7890 ca        1 BOS     -0.036000
     16 C10         3.4720   -9.5380   -3.9650 ca        1 BOS     -0.102000
     17 C11         4.0010  -10.2700   -2.9050 ca        1 BOS     -0.039000
     18 C12         4.1940   -9.6570   -1.6600 ca        1 BOS     -0.095000
     19 C13         3.8820   -8.3130   -1.4680 ca        1 BOS      0.018900
     20 S2          4.0040   -7.6200    0.0950 sh        1 BOS     -0.283700
     21 HN11       -0.2150    0.7230   -1.3360 hn        1 BOS      0.470133
     22 HN12       -0.9910   -0.0890   -0.1340 hn        1 BOS      0.470133
     23 H2          3.1370   -0.6950   -1.9800 ha        1 BOS      0.196000
     24 H3          4.1820   -2.7880   -2.7380 ha        1 BOS      0.190500
     25 H5          2.1350   -4.9460    0.4790 ha        1 BOS      0.190500
     26 H6          1.1000   -2.8360    1.2120 ha        1 BOS      0.196000
     27 HN2         4.1540   -5.8510   -0.7380 hn        1 BOS      0.483800
     28 H9          2.7100   -7.6170   -4.6250 ha        1 BOS      0.175000
     29 H10         3.3010  -10.0180   -4.9450 ha        1 BOS      0.187000
     30 H11         4.2580  -11.3360   -3.0350 ha        1 BOS      0.187000
     31 H12         4.5830  -10.2590   -0.8190 ha        1 BOS      0.177000
     32 HS2         5.1730   -8.1310    0.5000 hs        1 BOS      0.272800
     33 H13        -0.3250   -0.9170   -1.3880 hn        1 BOS      0.470133
     34 H22         4.7200   -5.0440   -2.1390 hn        1 BOS      0.483800
@<TRIPOS>BOND
     1    1    2 1   
     2    1   21 1   
     3    1   22 1   
     4    1   33 1   
     5    2    3 2   
     6    2    4 2   
     7    2    5 1   
     8    5    6 ar  
     9    5   10 ar  
    10    6    7 ar  
    11    6   23 1   
    12    7    8 ar  
    13    7   24 1   
    14    8    9 ar  
    15    8   11 1   
    16    9   10 ar  
    17    9   25 1   
    18   10   26 1   
    19   11   12 1   
    20   11   27 1   
    21   11   34 1   
    22   12   13 2   
    23   12   14 1   
    24   14   15 ar  
    25   14   19 ar  
    26   15   16 ar  
    27   15   28 1   
    28   16   17 ar  
    29   16   29 1   
    30   17   18 ar  
    31   17   30 1   
    32   18   19 ar  
    33   18   31 1   
    34   19   20 1   
    35   20   32 1   
@<TRIPOS>SUBSTRUCTURE
     1 BOS         1 TEMP              0 ****  ****    0 ROOT
