@<TRIPOS>MOLECULE
BOS
   32    33     1     0     0
SMALL
bcc


@<TRIPOS>ATOM
      1 N1         -5.1890   -0.9300   -1.1330 n3        1 BOS     -1.026700
      2 S1         -4.8760    0.1770   -0.0150 sy        1 BOS      1.533200
      3 O1         -5.2850   -0.3150    1.2430 o         1 BOS     -0.661300
      4 O2         -5.4030    1.4180   -0.4380 o         1 BOS     -0.661300
      5 C1         -3.1960    0.2820   -0.0300 ca        1 BOS     -0.422500
      6 C2         -2.5420    1.2380   -0.8180 ca        1 BOS      0.011500
      7 C3         -1.1620    1.3490   -0.8250 ca        1 BOS     -0.203000
      8 C4         -0.3690    0.4850   -0.0230 ca        1 BOS      0.133600
      9 C5         -1.0260   -0.4730    0.7830 ca        1 BOS     -0.203000
     10 C6         -2.4120   -0.5570    0.7680 ca        1 BOS      0.011500
     11 N2          1.0200    0.6370   -0.0600 n         1 BOS     -0.467100
     12 C7          1.9810   -0.1740    0.5410 c         1 BOS      0.680700
     13 O3          1.6930   -1.1980    1.1830 o         1 BOS     -0.577100
     14 C8          3.3910    0.2840    0.3510 ca        1 BOS     -0.169600
     15 C9          3.7250    1.5810    0.7670 ca        1 BOS     -0.091000
     16 C10         5.0230    2.0560    0.6200 ca        1 BOS     -0.142000
     17 C11         6.0000    1.2340    0.0490 ca        1 BOS     -0.091000
     18 C12         5.6770   -0.0540   -0.3520 ca        1 BOS     -0.129000
     19 C13         4.3690   -0.5540   -0.2010 ca        1 BOS      0.067900
     20 S2          4.1780   -2.1400   -0.7650 sh        1 BOS     -0.245700
     21 HN11       -5.3430   -0.7170   -2.0860 hn        1 BOS      0.446300
     22 HN12       -5.2720   -1.8950   -0.9380 hn        1 BOS      0.446300
     23 H2         -3.1450    1.9300   -1.4340 ha        1 BOS      0.155000
     24 H3         -0.6880    2.1160   -1.4570 ha        1 BOS      0.158500
     25 H5         -0.4510   -1.1550    1.4310 ha        1 BOS      0.158500
     26 H6         -2.9100   -1.2960    1.4230 ha        1 BOS      0.155000
     27 HN2         1.3590    1.4080   -0.5960 hn        1 BOS      0.327500
     28 H9          2.9580    2.2230    1.2270 ha        1 BOS      0.141000
     29 H10         5.2810    3.0720    0.9530 ha        1 BOS      0.143000
     30 H11         7.0280    1.6070   -0.0740 ha        1 BOS      0.142000
     31 H12         6.4500   -0.7080   -0.7880 ha        1 BOS      0.153000
     32 HS2         2.9880   -2.4520   -0.2650 hs        1 BOS      0.224800
@<TRIPOS>BOND
     1    1    2 1   
     2    1   21 1   
     3    1   22 1   
     4    2    3 2   
     5    2    4 2   
     6    2    5 1   
     7    5    6 ar  
     8    5   10 ar  
     9    6    7 ar  
    10    6   23 1   
    11    7    8 ar  
    12    7   24 1   
    13    8    9 ar  
    14    8   11 1   
    15    9   10 ar  
    16    9   25 1   
    17   10   26 1   
    18   11   12 1   
    19   11   27 1   
    20   12   13 2   
    21   12   14 1   
    22   14   15 ar  
    23   14   19 ar  
    24   15   16 ar  
    25   15   28 1   
    26   16   17 ar  
    27   16   29 1   
    28   17   18 ar  
    29   17   30 1   
    30   18   19 ar  
    31   18   31 1   
    32   19   20 1   
    33   20   32 1   
@<TRIPOS>SUBSTRUCTURE
     1 BOS         1 TEMP              0 ****  ****    0 ROOT
