@<TRIPOS>MOLECULE
BOS
   33    34     1     0     0
SMALL
bcc


@<TRIPOS>ATOM
      1 N1          0.1000   -0.1500    0.4790 nz        1 BOS     -0.779500
      2 S1          1.6840    0.1070   -0.6520 sy        1 BOS      1.517200
      3 O1          2.4910    0.7380    0.2710 o         1 BOS     -0.580800
      4 O2          1.0900    0.8100   -1.6800 o         1 BOS     -0.580800
      5 C1          1.9910   -1.4040   -0.9320 ca        1 BOS     -0.654500
      6 C2          1.4980   -2.0680   -2.0880 ca        1 BOS      0.049000
      7 C3          1.8140   -3.3690   -2.3760 ca        1 BOS     -0.218500
      8 C4          2.6710   -4.1310   -1.5100 ca        1 BOS      0.234600
      9 C5          3.1760   -3.4680   -0.3470 ca        1 BOS     -0.218500
     10 C6          2.8470   -2.1630   -0.0880 ca        1 BOS      0.049000
     11 N2          2.9650   -5.4250   -1.8440 ns        1 BOS     -0.443100
     12 C7          3.7340   -6.3580   -1.1010 c         1 BOS      0.695700
     13 O3          4.2240   -6.0520   -0.0060 o         1 BOS     -0.529100
     14 C8          3.9610   -7.6840   -1.7360 ca        1 BOS     -0.158600
     15 C9          5.2630   -8.1960   -1.6280 ca        1 BOS     -0.055000
     16 C10         5.5820   -9.4320   -2.1810 ca        1 BOS     -0.130000
     17 C11         4.5960  -10.1730   -2.8340 ca        1 BOS     -0.067000
     18 C12         3.2980   -9.6780   -2.9240 ca        1 BOS     -0.147000
     19 C13         2.9610   -8.4330   -2.3780 ca        1 BOS      0.051900
     20 S2          1.3630   -7.8490   -2.4490 sh        1 BOS     -0.291700
     21 HN11       -0.7060    0.3050    0.0610 hn        1 BOS      0.446133
     22 HN12       -0.1190   -1.1310    0.6060 hn        1 BOS      0.446133
     23 H2          0.8500   -1.5020   -2.7850 ha        1 BOS      0.164500
     24 H3          1.4090   -3.8340   -3.2910 ha        1 BOS      0.187000
     25 H5          3.8490   -4.0030    0.3500 ha        1 BOS      0.187000
     26 H6          3.2770   -1.6690    0.8060 ha        1 BOS      0.164500
     27 HN2         2.5510   -5.7760   -2.6930 hn        1 BOS      0.355500
     28 H9          6.0290   -7.6110   -1.0910 ha        1 BOS      0.162000
     29 H10         6.6080   -9.8250   -2.0960 ha        1 BOS      0.159000
     30 H11         4.8410  -11.1540   -3.2730 ha        1 BOS      0.157000
     31 H12         2.5260  -10.2830   -3.4280 ha        1 BOS      0.148000
     32 HS2         0.8100   -8.7640   -3.2370 hs        1 BOS      0.233800
     33 H13         0.2550    0.2630    1.3950 hn        1 BOS      0.446133
@<TRIPOS>BOND
     1    1    2 1   
     2    1   21 1   
     3    1   22 1   
     4    1   33 1   
     5    2    3 2   
     6    2    4 2   
     7    2    5 1   
     8    5    6 ar  
     9    5   10 ar  
    10    6    7 ar  
    11    6   23 1   
    12    7    8 ar  
    13    7   24 1   
    14    8    9 ar  
    15    8   11 1   
    16    9   10 ar  
    17    9   25 1   
    18   10   26 1   
    19   11   12 1   
    20   11   27 1   
    21   12   13 2   
    22   12   14 1   
    23   14   15 ar  
    24   14   19 ar  
    25   15   16 ar  
    26   15   28 1   
    27   16   17 ar  
    28   16   29 1   
    29   17   18 ar  
    30   17   30 1   
    31   18   19 ar  
    32   18   31 1   
    33   19   20 1   
    34   20   32 1   
@<TRIPOS>SUBSTRUCTURE
     1 BOS         1 TEMP              0 ****  ****    0 ROOT
