@<TRIPOS>MOLECULE
BOT
   14    15     1     0     0
SMALL
bcc


@<TRIPOS>ATOM
      1 C8         -0.7080    0.0000   -2.1000 cc        1 BOT      0.354100
      2 N1         -1.5590   -0.0000   -1.0980 nd        1 BOT     -0.517100
      3 C9         -0.8480   -0.0000    0.1160 ca        1 BOT      0.076400
      4 S1          0.9700    0.0000   -1.6870 ss        1 BOT     -0.042100
      5 C10         0.5800    0.0000   -0.0380 ca        1 BOT     -0.085100
      6 C11         1.4050    0.0000    1.0880 ca        1 BOT     -0.090000
      7 C12         0.8290    0.0000    2.3490 ca        1 BOT     -0.119000
      8 C13        -0.5670   -0.0000    2.5050 ca        1 BOT     -0.132000
      9 C14        -1.4120   -0.0000    1.4070 ca        1 BOT     -0.072000
     10 H8         -1.0420   -0.0000   -3.1430 h5        1 BOT      0.061800
     11 H11         2.4990    0.0000    0.9720 ha        1 BOT      0.140000
     12 H12         1.4710   -0.0000    3.2430 ha        1 BOT      0.136000
     13 H13        -0.9940   -0.0000    3.5190 ha        1 BOT      0.137000
     14 H14        -2.5050   -0.0000    1.5290 ha        1 BOT      0.152000
@<TRIPOS>BOND
     1    1    2 2   
     2    1    4 1   
     3    1   10 1   
     4    2    3 1   
     5    3    5 ar  
     6    3    9 ar  
     7    4    5 1   
     8    5    6 ar  
     9    6    7 ar  
    10    6   11 1   
    11    7    8 ar  
    12    7   12 1   
    13    8    9 ar  
    14    8   13 1   
    15    9   14 1   
@<TRIPOS>SUBSTRUCTURE
     1 BOT         1 TEMP              0 ****  ****    0 ROOT
