@<TRIPOS>MOLECULE
BOT
   14    11     1     0     0
SMALL
bcc


@<TRIPOS>ATOM
      1 C8         -1.6850   -0.0040   -2.3510 c1        1 BOT      0.263900
      2 N1         -0.2610   -0.0040   -2.3510 n1        1 BOT     -0.495600
      3 C9          0.2390   -0.0040   -0.8480 cg        1 BOT      0.016800
      4 S1         -2.1580   -0.0040   -0.8870 ss        1 BOT     -0.041200
      5 C10        -0.9010   -0.0040    0.0060 c1        1 BOT     -0.086900
      6 C11        -0.7360   -0.0040    1.3840 c1        1 BOT     -0.032500
      7 C12         0.5490   -0.0030    1.9340 c1        1 BOT     -0.068000
      8 C13         1.6780   -0.0030    1.0890 c1        1 BOT     -0.068000
      9 C14         1.5140   -0.0040   -0.3000 c1        1 BOT     -0.014500
     10 H8         -2.2590    0.0460   -3.1390 DU        1 BOT      0.191000
     11 H11        -1.5170   -0.0040    1.9690 ha        1 BOT      0.082500
     12 H12         0.6650   -0.0030    2.9030 ha        1 BOT      0.079000
     13 H13         2.5750   -0.0030    1.4740 ha        1 BOT      0.079000
     14 H14         2.2960   -0.0040   -0.8840 ha        1 BOT      0.094500
@<TRIPOS>BOND
     1    1    2 3   
     2    1    4 1   
     3    2    3 1   
     4    3    9 3   
     5    4    5 1   
     6    5    6 3   
     7    6   11 1   
     8    7    8 3   
     9    7   12 1   
    10    8   13 1   
    11    9   14 1   
@<TRIPOS>SUBSTRUCTURE
     1 BOT         1 TEMP              0 ****  ****    0 ROOT
