@<TRIPOS>MOLECULE
BOU
   52    54     1     0     0
SMALL
bcc


@<TRIPOS>ATOM
      1 S1         -0.6100   -1.1590    0.5810 ss        1 BOU     -0.565200
      2 C1          1.0760   -0.6890    0.0050 c3        1 BOU      0.133100
      3 C2          1.7530   -0.0490    1.2390 c3        1 BOU      0.003500
      4 N1          1.1240   -0.4330    2.4930 n7        1 BOU     -0.797200
      5 C3         -0.2640   -0.7650    2.3310 c3        1 BOU      0.303600
      6 C4         -1.2080    0.3890    2.7920 c3        1 BOU      0.004500
      7 C5         -0.6430    1.7520    2.4000 c         1 BOU      0.586900
      8 O1         -1.1450    2.4620    1.5340 o         1 BOU     -0.507100
      9 C6          0.9620    0.3060   -1.1210 c3        1 BOU     -0.091100
     10 C7          1.7610   -1.9540   -0.4420 c3        1 BOU     -0.091100
     11 C8          3.3000   -0.3880    1.2080 c         1 BOU      0.934600
     12 O2          3.9910    0.3200    0.4360 o         1 BOU     -0.807300
     13 O3          3.7000   -1.3330    1.9360 o         1 BOU     -0.807300
     14 N2         -2.5970    0.1970    2.2860 ny        1 BOU     -0.692800
     15 C9         -3.2750   -1.0310    2.8060 c         1 BOU      0.597700
     16 O4         -2.8940   -1.5070    3.8700 o         1 BOU     -0.455100
     17 C10        -4.3450   -1.5500    1.9270 ca        1 BOU     -0.165600
     18 C11        -3.9760   -2.0030    0.6510 ca        1 BOU     -0.101000
     19 C12        -4.9350   -2.5280   -0.2060 ca        1 BOU     -0.137000
     20 C13        -6.2690   -2.5930    0.2020 ca        1 BOU     -0.096000
     21 C14        -6.6360   -2.1450    1.4660 ca        1 BOU     -0.123000
     22 C15        -5.6820   -1.6120    2.3520 cp        1 BOU      0.072000
     23 C16        -6.1450   -1.1710    3.6720 cp        1 BOU     -0.072000
     24 C17        -6.6970   -2.1370    4.5300 ca        1 BOU     -0.117000
     25 C18        -7.1960   -1.7720    5.7760 ca        1 BOU     -0.149000
     26 C19        -7.1560   -0.4350    6.1780 ca        1 BOU     -0.128000
     27 C20        -6.6120    0.5270    5.3330 ca        1 BOU     -0.105000
     28 C21        -6.1060    0.1710    4.0770 ca        1 BOU     -0.089600
     29 C22        -5.5040    1.2510    3.2110 c         1 BOU      0.894200
     30 O5         -6.0560    1.5970    2.1410 o         1 BOU     -0.808300
     31 O6         -4.4000    1.7670    3.6160 o         1 BOU     -0.808300
     32 H3          1.6560    1.0730    1.1540 h1        1 BOU      0.064700
     33 HN4         1.6450   -1.1840    2.9220 hn        1 BOU      0.418800
     34 H5         -0.5460   -1.6710    2.9360 h2        1 BOU      0.085700
     35 H6         -1.2620    0.3560    3.9250 hx        1 BOU      0.127700
     36 HO8         0.2640    2.0330    2.9780 h4        1 BOU      0.059200
     37 H9          1.9870    0.7050   -1.3430 hc        1 BOU      0.053200
     38 H9A         0.3000    1.1590   -0.8380 hc        1 BOU      0.053200
     39 H9B         0.5530   -0.1790   -2.0390 hc        1 BOU      0.053200
     40 H10         2.7590   -1.6960   -0.8800 hc        1 BOU      0.053200
     41 H10A        1.1500   -2.4860   -1.2100 hc        1 BOU      0.053200
     42 H10B        1.9380   -2.6320    0.4290 hc        1 BOU      0.053200
     43 HN14       -2.5660    0.1660    1.2540 hn        1 BOU      0.505800
     44 H18        -2.9170   -1.9590    0.3290 ha        1 BOU      0.165000
     45 H19        -4.6420   -2.8830   -1.2050 ha        1 BOU      0.140000
     46 H20        -7.0330   -2.9960   -0.4800 ha        1 BOU      0.133000
     47 H21        -7.6890   -2.1840    1.7850 ha        1 BOU      0.147000
     48 H24        -6.7280   -3.1890    4.2120 ha        1 BOU      0.124000
     49 H25        -7.6190   -2.5360    6.4430 ha        1 BOU      0.121000
     50 H26        -7.5510   -0.1460    7.1620 ha        1 BOU      0.122000
     51 H27        -6.5610    1.5820    5.6430 ha        1 BOU      0.147000
     52 H22        -3.1940    1.0440    2.5860 hn        1 BOU      0.505800
@<TRIPOS>BOND
     1    1    2 1   
     2    1    5 1   
     3    2    3 1   
     4    2    9 1   
     5    2   10 1   
     6    3    4 1   
     7    3   11 1   
     8    3   32 1   
     9    4    5 1   
    10    4   33 1   
    11    5    6 1   
    12    5   34 1   
    13    6    7 1   
    14    6   14 1   
    15    6   35 1   
    16    7    8 2   
    17    7   36 1   
    18    9   37 1   
    19    9   38 1   
    20    9   39 1   
    21   10   40 1   
    22   10   41 1   
    23   10   42 1   
    24   11   12 1   
    25   11   13 1   
    26   14   15 1   
    27   14   43 1   
    28   14   52 1   
    29   15   16 2   
    30   15   17 1   
    31   17   18 ar  
    32   17   22 ar  
    33   18   19 ar  
    34   18   44 1   
    35   19   20 ar  
    36   19   45 1   
    37   20   21 ar  
    38   20   46 1   
    39   21   22 ar  
    40   21   47 1   
    41   22   23 1   
    42   23   24 ar  
    43   23   28 ar  
    44   24   25 ar  
    45   24   48 1   
    46   25   26 ar  
    47   25   49 1   
    48   26   27 ar  
    49   26   50 1   
    50   27   28 ar  
    51   27   51 1   
    52   28   29 1   
    53   29   30 1   
    54   29   31 1   
@<TRIPOS>SUBSTRUCTURE
     1 BOU         1 TEMP              0 ****  ****    0 ROOT
