@<TRIPOS>MOLECULE
BOU
   51    49     1     0     0
SMALL
bcc


@<TRIPOS>ATOM
      1 S1          1.9330    2.5470   -1.9770 ss        1 BOU     -0.188000
      2 C1          1.2270    3.8970   -2.6790 c3        1 BOU     -0.099000
      3 C2         -0.2960    4.0250   -2.0180 c3        1 BOU     -0.120000
      4 N1         -0.4510    2.7320   -1.3300 n3        1 BOU     -0.224000
      5 C3          1.0790    2.2070   -0.9100 c3        1 BOU     -0.075000
      6 C4          1.0750    0.6400   -0.6930 c3        1 BOU     -0.033000
      7 C5          2.4760    0.1450   -0.5860 c2        1 BOU      0.174000
      8 O1          2.6970   -1.0640   -0.4770 o         1 BOU     -0.299000
      9 C6          2.0570    5.1700   -2.3520 c3        1 BOU     -0.199000
     10 C7          1.1260    3.7100   -4.2100 c3        1 BOU     -0.199000
     11 C8         -0.4740    5.1690   -1.1670 c2        1 BOU      0.357000
     12 O2          0.1920    5.2780   -0.1310 o         1 BOU     -0.564000
     13 O3         -1.3370    6.0120   -1.4370 o         1 BOU     -0.564000
     14 N2          0.3860    0.3330    0.4790 n         1 BOU     -0.373000
     15 C9         -0.1790   -0.9960    0.6570 c2        1 BOU      0.360000
     16 O4          0.2310   -1.9170   -0.0100 o         1 BOU     -0.361000
     17 C10        -1.2260   -1.2480    1.7360 c2        1 BOU     -0.111000
     18 C11        -2.0550   -0.2260    2.1480 c2        1 BOU     -0.121000
     19 C12        -3.0250   -0.4650    3.1320 c1        1 BOU     -0.155000
     20 C13        -3.1540   -1.7390    3.6950 c1        1 BOU     -0.130250
     21 C14        -2.3150   -2.7750    3.2790 c1        1 BOU     -0.130250
     22 C15        -1.3570   -2.5430    2.3090 c1        1 BOU      0.042000
     23 C16        -0.4360   -3.6660    1.8690 c2        1 BOU     -0.045000
     24 C17         0.6830   -3.9880    2.6390 c2        1 BOU     -0.120000
     25 C18         1.4660   -5.0970    2.3000 c1        1 BOU     -0.163000
     26 C19         1.1250   -5.8790    1.1930 c1        1 BOU     -0.130250
     27 C20         0.0060   -5.5530    0.4260 c1        1 BOU     -0.130250
     28 C21        -0.7730   -4.4490    0.7630 c1        1 BOU     -0.049000
     29 C22        -2.0170   -4.1290   -0.0350 c2        1 BOU      0.358000
     30 O5         -3.1490   -4.4150    0.4280 o         1 BOU     -0.564000
     31 O6         -1.9160   -3.6530   -1.1780 o         1 BOU     -0.564000
     32 H3         -0.9870    4.1700   -2.6990 h1        1 BOU      0.102000
     33 HN4        -0.8400    2.1230   -1.9010 hn        1 BOU      0.139000
     34 H5          1.3860    2.6750   -0.0570 h2        1 BOU      0.175000
     35 H6          0.6350    0.2080   -1.4490 h1        1 BOU      0.154000
     36 HO8         3.2070    0.7730   -0.5500 h4        1 BOU      0.105000
     37 H9          2.1150    5.2800   -1.3950 hc        1 BOU      0.078167
     38 H9A         1.6250    5.9410   -2.7370 hc        1 BOU      0.078167
     39 H9B         3.0010    5.0760   -2.7450 hc        1 BOU      0.078167
     40 H10         0.7120    4.5000   -4.6080 hc        1 BOU      0.078167
     41 H10A        2.0290    3.5880   -4.5850 hc        1 BOU      0.078167
     42 H10B        0.5930    2.9390   -4.4030 hc        1 BOU      0.078167
     43 HN14        0.2650    0.9500    1.0930 hn        1 BOU      0.238000
     44 H18        -2.0030    0.6390    1.7220 ha        1 BOU      0.137000
     45 H19        -3.6090    0.2560    3.4240 ha        1 BOU      0.115000
     46 H20        -3.8500   -1.9070    4.4000 ha        1 BOU      0.136000
     47 H21        -2.4060   -3.6760    3.6780 ha        1 BOU      0.136000
     48 H24         0.8390   -3.5180    3.5050 ha        1 BOU      0.131000
     49 H25         2.2620   -5.3280    2.8450 ha        1 BOU      0.112000
     50 H26         1.6630   -6.6440    0.9580 ha        1 BOU      0.136000
     51 H27        -0.2340   -6.1070   -0.3570 ha        1 BOU      0.136000
@<TRIPOS>BOND
     1    1    2 1   
     2    1    5 1   
     3    2    3 1   
     4    2    9 1   
     5    2   10 1   
     6    3    4 1   
     7    3   11 1   
     8    3   32 1   
     9    4    5 1   
    10    4   33 1   
    11    5    6 1   
    12    5   34 1   
    13    6    7 1   
    14    6   14 1   
    15    6   35 1   
    16    7    8 1   
    17    7   36 1   
    18    9   37 1   
    19    9   38 1   
    20    9   39 1   
    21   10   40 1   
    22   10   41 1   
    23   10   42 1   
    24   11   12 1   
    25   11   13 1   
    26   14   15 1   
    27   14   43 1   
    28   15   16 1   
    29   15   17 1   
    30   17   18 1   
    31   17   22 1   
    32   18   19 1   
    33   18   44 1   
    34   19   45 1   
    35   20   21 1   
    36   20   46 1   
    37   21   47 1   
    38   22   23 1   
    39   23   24 1   
    40   23   28 1   
    41   24   25 1   
    42   24   48 1   
    43   25   49 1   
    44   26   27 1   
    45   26   50 1   
    46   27   51 1   
    47   28   29 1   
    48   29   30 1   
    49   29   31 1   
@<TRIPOS>SUBSTRUCTURE
     1 BOU         1 TEMP              0 ****  ****    0 ROOT
