@<TRIPOS>MOLECULE
BOU
   52    54     1     0     0
SMALL
bcc


@<TRIPOS>ATOM
      1 S1         -0.5960   -0.9210    0.3550 ss        1 BOU     -0.554200
      2 C1          1.1830   -0.7210   -0.0790 c3        1 BOU      0.132100
      3 C2          1.8370   -0.1630    1.2050 c3        1 BOU      0.001500
      4 N1          1.0690   -0.4580    2.4050 n3        1 BOU     -0.800200
      5 C3         -0.3320   -0.6260    2.1360 c3        1 BOU      0.306600
      6 C4         -1.1720    0.6100    2.5840 c3        1 BOU     -0.008500
      7 C5         -0.4910    1.9250    2.2230 c         1 BOU      0.578900
      8 O1         -1.0380    2.7920    1.5450 o         1 BOU     -0.520100
      9 C6          1.3200    0.2520   -1.2200 c3        1 BOU     -0.090600
     10 C7          1.7070   -2.0840   -0.4500 c3        1 BOU     -0.090600
     11 C8          3.3280   -0.6940    1.2910 c         1 BOU      0.934600
     12 O2          4.1550   -0.0850    0.5700 o         1 BOU     -0.805300
     13 O3          3.5500   -1.6730    2.0480 o         1 BOU     -0.805300
     14 N2         -2.5680    0.5310    2.0610 n4        1 BOU     -0.660800
     15 C9         -3.4460   -0.4650    2.8040 c         1 BOU      0.645700
     16 O4         -3.2210   -0.5820    4.0040 o         1 BOU     -0.485100
     17 C10        -4.3720   -1.2590    1.9720 ca        1 BOU     -0.120600
     18 C11        -3.9510   -1.7390    0.7210 ca        1 BOU     -0.117000
     19 C12        -4.8140   -2.4780   -0.0810 ca        1 BOU     -0.138000
     20 C13        -6.1110   -2.7480    0.3590 ca        1 BOU     -0.101000
     21 C14        -6.5230   -2.3070    1.6100 ca        1 BOU     -0.135000
     22 C15        -5.6630   -1.5660    2.4420 cp        1 BOU      0.074000
     23 C16        -6.1730   -1.2160    3.7740 cp        1 BOU     -0.060000
     24 C17        -6.4880   -2.2800    4.6390 ca        1 BOU     -0.124000
     25 C18        -7.0300   -2.0350    5.8950 ca        1 BOU     -0.148000
     26 C19        -7.2860   -0.7230    6.2980 ca        1 BOU     -0.132000
     27 C20        -6.9870    0.3330    5.4440 ca        1 BOU     -0.105000
     28 C21        -6.4190    0.1000    4.1840 ca        1 BOU     -0.089600
     29 C22        -6.0820    1.3000    3.3320 c         1 BOU      0.932200
     30 O5         -6.9290    2.2080    3.1660 o         1 BOU     -0.833300
     31 O6         -4.9080    1.3530    2.8280 o         1 BOU     -0.833300
     32 H3          1.8910    0.9610    1.1160 h1        1 BOU      0.061700
     33 HN4         1.4630   -1.2610    2.8750 hn        1 BOU      0.419800
     34 H5         -0.7540   -1.5130    2.6850 h2        1 BOU      0.080700
     35 H6         -1.2370    0.5810    3.7190 hx        1 BOU      0.137700
     36 HO8         0.5290    2.0350    2.6510 h4        1 BOU      0.069200
     37 H9          2.4080    0.4980   -1.3420 hc        1 BOU      0.053367
     38 H9A         0.7610    1.1970   -1.0150 hc        1 BOU      0.053367
     39 H9B         0.9380   -0.1930   -2.1690 hc        1 BOU      0.053367
     40 H10         1.7070   -2.7600    0.4400 hc        1 BOU      0.053367
     41 H10A        1.0910   -2.5380   -1.2620 hc        1 BOU      0.053367
     42 H10B        2.7660   -1.9860   -0.8030 hc        1 BOU      0.053367
     43 HN14       -3.0190    1.4650    2.1730 hn        1 BOU      0.488300
     44 H18        -2.9180   -1.5770    0.3600 ha        1 BOU      0.156000
     45 H19        -4.4710   -2.8450   -1.0590 ha        1 BOU      0.139000
     46 H20        -6.8030   -3.3150   -0.2810 ha        1 BOU      0.132000
     47 H21        -7.5400   -2.5300    1.9680 ha        1 BOU      0.146000
     48 H24        -6.2960   -3.3140    4.3160 ha        1 BOU      0.121000
     49 H25        -7.2580   -2.8730    6.5680 ha        1 BOU      0.119000
     50 H26        -7.7240   -0.5270    7.2870 ha        1 BOU      0.120000
     51 H27        -7.2000    1.3740    5.7360 ha        1 BOU      0.150000
     52 H22        -2.5420    0.3180    1.0540 hn        1 BOU      0.488300
@<TRIPOS>BOND
     1    1    2 1   
     2    1    5 1   
     3    2    3 1   
     4    2    9 1   
     5    2   10 1   
     6    3    4 1   
     7    3   11 1   
     8    3   32 1   
     9    4    5 1   
    10    4   33 1   
    11    5    6 1   
    12    5   34 1   
    13    6    7 1   
    14    6   14 1   
    15    6   35 1   
    16    7    8 2   
    17    7   36 1   
    18    9   37 1   
    19    9   38 1   
    20    9   39 1   
    21   10   40 1   
    22   10   41 1   
    23   10   42 1   
    24   11   12 1   
    25   11   13 1   
    26   14   15 1   
    27   14   43 1   
    28   14   52 1   
    29   15   16 2   
    30   15   17 1   
    31   17   18 ar  
    32   17   22 ar  
    33   18   19 ar  
    34   18   44 1   
    35   19   20 ar  
    36   19   45 1   
    37   20   21 ar  
    38   20   46 1   
    39   21   22 ar  
    40   21   47 1   
    41   22   23 1   
    42   23   24 ar  
    43   23   28 ar  
    44   24   25 ar  
    45   24   48 1   
    46   25   26 ar  
    47   25   49 1   
    48   26   27 ar  
    49   26   50 1   
    50   27   28 ar  
    51   27   51 1   
    52   28   29 1   
    53   29   30 1   
    54   29   31 1   
@<TRIPOS>SUBSTRUCTURE
     1 BOU         1 TEMP              0 ****  ****    0 ROOT
