@<TRIPOS>MOLECULE
BOU
   51    53     1     0     0
SMALL
bcc


@<TRIPOS>ATOM
      1 S1         -2.9680    1.1180   -0.4250 ss        1 BOU     -0.468200
      2 C1         -4.6750    0.5160   -0.2870 c3        1 BOU      0.075100
      3 C2         -4.5580   -0.8740    0.3870 c3        1 BOU      0.029500
      4 N1         -3.3410   -1.0070    1.1740 n3        1 BOU     -0.804200
      5 C3         -2.2910   -0.1100    0.7430 c3        1 BOU      0.285600
      6 C4         -1.0830   -0.8620    0.0970 c3        1 BOU      0.004700
      7 C5         -1.5500   -1.6420   -1.1200 c         1 BOU      0.576900
      8 O1         -1.0280   -1.5810   -2.2340 o         1 BOU     -0.543100
      9 C6         -5.4620    1.4880    0.5590 c3        1 BOU     -0.080100
     10 C7         -5.2830    0.3870   -1.6610 c3        1 BOU     -0.080100
     11 C8         -5.8660   -1.1660    1.2060 c         1 BOU      0.925600
     12 O2         -6.8580   -1.5700    0.5410 o         1 BOU     -0.830800
     13 O3         -5.8540   -0.9710    2.4520 o         1 BOU     -0.830800
     14 N2          0.0340    0.0120   -0.1690 n         1 BOU     -0.548900
     15 C9          0.8390    0.4920    0.8390 c         1 BOU      0.686700
     16 O4          0.6270    0.1890    2.0350 o         1 BOU     -0.640100
     17 C10         1.9060    1.4670    0.4470 ca        1 BOU     -0.128600
     18 C11         1.4750    2.7950    0.3050 ca        1 BOU     -0.118000
     19 C12         2.3810    3.8040    0.0010 ca        1 BOU     -0.155000
     20 C13         3.7290    3.4870   -0.1710 ca        1 BOU     -0.130000
     21 C14         4.1610    2.1730   -0.0420 ca        1 BOU     -0.112000
     22 C15         3.2580    1.1350    0.2660 cp        1 BOU      0.036000
     23 C16         3.7850   -0.2280    0.4010 cp        1 BOU     -0.056000
     24 C17         3.4100   -0.9870    1.5230 ca        1 BOU     -0.125000
     25 C18         3.8830   -2.2820    1.7040 ca        1 BOU     -0.170000
     26 C19         4.7450   -2.8430    0.7610 ca        1 BOU     -0.143000
     27 C20         5.1390   -2.0930   -0.3400 ca        1 BOU     -0.131000
     28 C21         4.6820   -0.7800   -0.5300 ca        1 BOU     -0.072600
     29 C22         5.2490   -0.0480   -1.7430 c         1 BOU      0.908200
     30 O5          4.6830   -0.1960   -2.8580 o         1 BOU     -0.826800
     31 O6          6.3030    0.6320   -1.5670 o         1 BOU     -0.826800
     32 H3         -4.5030   -1.6520   -0.4300 h1        1 BOU      0.055700
     33 HN4        -3.5560   -0.8670    2.1490 hn        1 BOU      0.397800
     34 H5         -1.8720    0.4680    1.6150 h2        1 BOU      0.082700
     35 H6         -0.7430   -1.6300    0.8650 h1        1 BOU      0.093700
     36 HO8        -2.4130   -2.3130   -0.9140 h4        1 BOU      0.025200
     37 H9         -5.3820    2.5230    0.1490 hc        1 BOU      0.042533
     38 H9A        -6.5390    1.1810    0.5760 hc        1 BOU      0.042533
     39 H9B        -5.0880    1.4760    1.6120 hc        1 BOU      0.042533
     40 H10        -4.6030   -0.1750   -2.3460 hc        1 BOU      0.042533
     41 H10A       -6.2500   -0.1720   -1.5730 hc        1 BOU      0.042533
     42 H10B       -5.4810    1.3940   -2.1020 hc        1 BOU      0.042533
     43 HN14        0.2290    0.2340   -1.1180 hn        1 BOU      0.342500
     44 H18         0.4080    3.0320    0.4370 ha        1 BOU      0.133000
     45 H19         2.0340    4.8400   -0.1100 ha        1 BOU      0.112000
     46 H20         4.4530    4.2750   -0.4220 ha        1 BOU      0.118000
     47 H21         5.2260    1.9180   -0.2180 ha        1 BOU      0.197000
     48 H24         2.7290   -0.5490    2.2720 ha        1 BOU      0.147000
     49 H25         3.5720   -2.8600    2.5840 ha        1 BOU      0.108000
     50 H26         5.1110   -3.8700    0.8920 ha        1 BOU      0.100000
     51 H27         5.8240   -2.5210   -1.0870 ha        1 BOU      0.128000
@<TRIPOS>BOND
     1    1    2 1   
     2    1    5 1   
     3    2    3 1   
     4    2    9 1   
     5    2   10 1   
     6    3    4 1   
     7    3   11 1   
     8    3   32 1   
     9    4    5 1   
    10    4   33 1   
    11    5    6 1   
    12    5   34 1   
    13    6    7 1   
    14    6   14 1   
    15    6   35 1   
    16    7    8 2   
    17    7   36 1   
    18    9   37 1   
    19    9   38 1   
    20    9   39 1   
    21   10   40 1   
    22   10   41 1   
    23   10   42 1   
    24   11   12 1   
    25   11   13 1   
    26   14   15 1   
    27   14   43 1   
    28   15   16 2   
    29   15   17 1   
    30   17   18 ar  
    31   17   22 ar  
    32   18   19 ar  
    33   18   44 1   
    34   19   20 ar  
    35   19   45 1   
    36   20   21 ar  
    37   20   46 1   
    38   21   22 ar  
    39   21   47 1   
    40   22   23 1   
    41   23   24 ar  
    42   23   28 ar  
    43   24   25 ar  
    44   24   48 1   
    45   25   26 ar  
    46   25   49 1   
    47   26   27 ar  
    48   26   50 1   
    49   27   28 ar  
    50   27   51 1   
    51   28   29 1   
    52   29   30 1   
    53   29   31 1   
@<TRIPOS>SUBSTRUCTURE
     1 BOU         1 TEMP              0 ****  ****    0 ROOT
