@<TRIPOS>MOLECULE
BOU
   52    54     1     0     0
SMALL
bcc


@<TRIPOS>ATOM
      1 S1         -0.6050   -1.1620    0.5870 ss        1 BOU     -0.565200
      2 C1          1.0820   -0.6930    0.0160 c3        1 BOU      0.133100
      3 C2          1.7560   -0.0510    1.2510 c3        1 BOU      0.003500
      4 N1          1.1230   -0.4330    2.5040 n3        1 BOU     -0.797200
      5 C3         -0.2650   -0.7650    2.3380 c3        1 BOU      0.303600
      6 C4         -1.2110    0.3910    2.7940 c3        1 BOU      0.004500
      7 C5         -0.6440    1.7530    2.4010 c         1 BOU      0.586900
      8 O1         -1.1430    2.4610    1.5320 o         1 BOU     -0.507100
      9 C6          0.9720    0.3000   -1.1110 c3        1 BOU     -0.091100
     10 C7          1.7680   -1.9590   -0.4270 c3        1 BOU     -0.091100
     11 C8          3.3030   -0.3910    1.2260 c         1 BOU      0.934600
     12 O2          3.9960    0.3160    0.4550 o         1 BOU     -0.807300
     13 O3          3.7000   -1.3350    1.9560 o         1 BOU     -0.807300
     14 N2         -2.5980    0.1970    2.2840 n4        1 BOU     -0.692800
     15 C9         -3.2770   -1.0300    2.8050 c         1 BOU      0.597700
     16 O4         -2.9000   -1.5030    3.8710 o         1 BOU     -0.455100
     17 C10        -4.3450   -1.5500    1.9240 ca        1 BOU     -0.165600
     18 C11        -3.9710   -2.0060    0.6500 ca        1 BOU     -0.101000
     19 C12        -4.9280   -2.5330   -0.2090 ca        1 BOU     -0.137000
     20 C13        -6.2630   -2.5980    0.1950 ca        1 BOU     -0.096000
     21 C14        -6.6340   -2.1460    1.4560 ca        1 BOU     -0.123000
     22 C15        -5.6830   -1.6120    2.3440 cp        1 BOU      0.072000
     23 C16        -6.1510   -1.1670    3.6620 cp        1 BOU     -0.072000
     24 C17        -6.7060   -2.1310    4.5210 ca        1 BOU     -0.117000
     25 C18        -7.2080   -1.7630    5.7640 ca        1 BOU     -0.149000
     26 C19        -7.1700   -0.4250    6.1620 ca        1 BOU     -0.128000
     27 C20        -6.6230    0.5350    5.3160 ca        1 BOU     -0.105000
     28 C21        -6.1120    0.1760    4.0630 ca        1 BOU     -0.089600
     29 C22        -5.5070    1.2540    3.1960 c         1 BOU      0.894200
     30 O5         -6.0550    1.5970    2.1240 o         1 BOU     -0.808300
     31 O6         -4.4050    1.7700    3.6040 o         1 BOU     -0.808300
     32 H3          1.6590    1.0710    1.1640 h1        1 BOU      0.064700
     33 HN4         1.6420   -1.1830    2.9360 hn        1 BOU      0.418800
     34 H5         -0.5490   -1.6700    2.9430 h2        1 BOU      0.085700
     35 H6         -1.2670    0.3600    3.9260 hx        1 BOU      0.127700
     36 HO8         0.2610    2.0340    2.9800 h4        1 BOU      0.059200
     37 H9          1.9970    0.6990   -1.3310 hc        1 BOU      0.053200
     38 H9A         0.5650   -0.1850   -2.0300 hc        1 BOU      0.053200
     39 H9B         0.3090    1.1540   -0.8310 hc        1 BOU      0.053200
     40 H10         1.9420   -2.6350    0.4460 hc        1 BOU      0.053200
     41 H10A        1.1600   -2.4920   -1.1960 hc        1 BOU      0.053200
     42 H10B        2.7680   -1.7010   -0.8630 hc        1 BOU      0.053200
     43 HN14       -3.1960    1.0450    2.5800 hn        1 BOU      0.505800
     44 H18        -2.9120   -1.9630    0.3310 ha        1 BOU      0.165000
     45 H19        -4.6320   -2.8910   -1.2060 ha        1 BOU      0.140000
     46 H20        -7.0240   -3.0020   -0.4890 ha        1 BOU      0.133000
     47 H21        -7.6890   -2.1850    1.7720 ha        1 BOU      0.147000
     48 H24        -6.7360   -3.1840    4.2050 ha        1 BOU      0.124000
     49 H25        -7.6340   -2.5250    6.4310 ha        1 BOU      0.121000
     50 H26        -7.5680   -0.1330    7.1440 ha        1 BOU      0.122000
     51 H27        -6.5740    1.5910    5.6240 ha        1 BOU      0.147000
     52 H22        -2.5640    0.1640    1.2520 hn        1 BOU      0.505800
@<TRIPOS>BOND
     1    1    2 1   
     2    1    5 1   
     3    2    3 1   
     4    2    9 1   
     5    2   10 1   
     6    3    4 1   
     7    3   11 1   
     8    3   32 1   
     9    4    5 1   
    10    4   33 1   
    11    5    6 1   
    12    5   34 1   
    13    6    7 1   
    14    6   14 1   
    15    6   35 1   
    16    7    8 2   
    17    7   36 1   
    18    9   37 1   
    19    9   38 1   
    20    9   39 1   
    21   10   40 1   
    22   10   41 1   
    23   10   42 1   
    24   11   12 1   
    25   11   13 1   
    26   14   15 1   
    27   14   43 1   
    28   14   52 1   
    29   15   16 2   
    30   15   17 1   
    31   17   18 ar  
    32   17   22 ar  
    33   18   19 ar  
    34   18   44 1   
    35   19   20 ar  
    36   19   45 1   
    37   20   21 ar  
    38   20   46 1   
    39   21   22 ar  
    40   21   47 1   
    41   22   23 1   
    42   23   24 ar  
    43   23   28 ar  
    44   24   25 ar  
    45   24   48 1   
    46   25   26 ar  
    47   25   49 1   
    48   26   27 ar  
    49   26   50 1   
    50   27   28 ar  
    51   27   51 1   
    52   28   29 1   
    53   29   30 1   
    54   29   31 1   
@<TRIPOS>SUBSTRUCTURE
     1 BOU         1 TEMP              0 ****  ****    0 ROOT
