@<TRIPOS>MOLECULE
BOW
   33    32     1     0     0
SMALL
bcc


@<TRIPOS>ATOM
      1 C1         -0.2090    0.8810    0.7550 c3        1 BOW      0.188400
      2 N1         -3.0450    0.6440   -1.8270 n4        1 BOW     -0.801500
      3 O1         -1.5380   -1.2020   -0.9070 o         1 BOW     -0.560800
      4 S1         -1.3120   -0.0220   -1.5460 s6        1 BOW      1.637400
      5 C2          1.2570    0.5870    0.5210 c3        1 BOW     -0.128400
      6 O2         -0.7300    0.1880   -2.7560 o         1 BOW     -0.560800
      7 C3          1.9810    0.4980    1.8500 c3        1 BOW     -0.076400
      8 O3         -0.8800    1.1100   -0.4980 os        1 BOW     -0.591500
      9 C4          3.4490    0.1930    1.6410 c3        1 BOW     -0.079400
     10 C5          4.1780    0.1070    2.9660 c3        1 BOW     -0.079400
     11 C6          5.6460   -0.1980    2.7610 c3        1 BOW     -0.079400
     12 C7          6.3780   -0.2850    4.0840 c3        1 BOW     -0.079400
     13 C8          7.8410   -0.5880    3.8850 c3        1 BOW     -0.094100
     14 H1         -0.7320    0.0460    1.2930 h1        1 BOW      0.094200
     15 H1A        -0.3600    1.8580    1.2950 h1        1 BOW      0.094200
     16 HN1        -3.2030    1.5020   -1.2960 hn        1 BOW      0.472800
     17 HN1A       -3.7580   -0.0290   -1.5430 hn        1 BOW      0.472800
     18 H2          1.3740   -0.3800   -0.0360 hc        1 BOW      0.063200
     19 H2A         1.7130    1.3990   -0.1060 hc        1 BOW      0.063200
     20 H3          1.8740    1.4680    2.4040 hc        1 BOW      0.054200
     21 H3A         1.5150   -0.3040    2.4820 hc        1 BOW      0.054200
     22 H4          3.5590   -0.7770    1.0880 hc        1 BOW      0.047200
     23 H4A         3.9150    0.9930    1.0070 hc        1 BOW      0.047200
     24 H5          3.7130   -0.6930    3.6010 hc        1 BOW      0.044200
     25 H5A         4.0690    1.0760    3.5200 hc        1 BOW      0.044200
     26 H6          6.1130    0.6010    2.1270 hc        1 BOW      0.042700
     27 H6A         5.7570   -1.1670    2.2070 hc        1 BOW      0.042700
     28 H7          5.9100   -1.0840    4.7180 hc        1 BOW      0.040700
     29 H7A         6.2650    0.6840    4.6380 hc        1 BOW      0.040700
     30 H8          8.3610   -0.6470    4.8720 hc        1 BOW      0.037700
     31 H8A         8.3300    0.2110    3.2770 hc        1 BOW      0.037700
     32 H8B         7.9750   -1.5620    3.3570 hc        1 BOW      0.037700
     33 H13        -3.1990    0.8660   -2.8120 hn        1 BOW      0.472800
@<TRIPOS>BOND
     1    1    5 1   
     2    1    8 1   
     3    1   14 1   
     4    1   15 1   
     5    2    4 1   
     6    2   16 1   
     7    2   17 1   
     8    2   33 1   
     9    3    4 2   
    10    4    6 2   
    11    4    8 1   
    12    5    7 1   
    13    5   18 1   
    14    5   19 1   
    15    7    9 1   
    16    7   20 1   
    17    7   21 1   
    18    9   10 1   
    19    9   22 1   
    20    9   23 1   
    21   10   11 1   
    22   10   24 1   
    23   10   25 1   
    24   11   12 1   
    25   11   26 1   
    26   11   27 1   
    27   12   13 1   
    28   12   28 1   
    29   12   29 1   
    30   13   30 1   
    31   13   31 1   
    32   13   32 1   
@<TRIPOS>SUBSTRUCTURE
     1 BOW         1 TEMP              0 ****  ****    0 ROOT
