@<TRIPOS>MOLECULE
BOW
   33    32     1     0     0
SMALL
bcc


@<TRIPOS>ATOM
      1 C1         -0.2060    0.8880    0.7510 c3        1 BOW      0.188400
      2 N1         -3.0260    0.6850   -1.8510 nz        1 BOW     -0.801500
      3 O1         -1.5150   -1.1700   -0.9570 o         1 BOW     -0.560800
      4 S1         -1.2920    0.0220   -1.5730 s6        1 BOW      1.637400
      5 C2          1.2610    0.6010    0.5210 c3        1 BOW     -0.129400
      6 O2         -0.7040    0.2580   -2.7760 o         1 BOW     -0.560800
      7 C3          1.9780    0.4910    1.8530 c3        1 BOW     -0.076400
      8 O3         -0.8710    1.1370   -0.5020 os        1 BOW     -0.591500
      9 C4          3.4470    0.1900    1.6470 c3        1 BOW     -0.079400
     10 C5          4.1690    0.0850    2.9740 c3        1 BOW     -0.079400
     11 C6          5.6390   -0.2160    2.7730 c3        1 BOW     -0.079400
     12 C7          6.3630   -0.3220    4.0990 c3        1 BOW     -0.079400
     13 C8          7.8270   -0.6210    3.9040 c3        1 BOW     -0.094100
     14 H1         -0.3620    1.8570    1.3060 h1        1 BOW      0.094200
     15 H1A        -0.7320    0.0440    1.2720 h1        1 BOW      0.094200
     16 HN1        -3.1910    1.5330   -1.3050 hn        1 BOW      0.472800
     17 HN1A       -3.1770    0.9240   -2.8330 hn        1 BOW      0.472800
     18 H2          1.7200    1.4230   -0.0900 hc        1 BOW      0.063200
     19 H2A         1.3830   -0.3570   -0.0510 hc        1 BOW      0.063200
     20 H3          1.5090   -0.3210    2.4690 hc        1 BOW      0.054200
     21 H3A         1.8660    1.4530    2.4210 hc        1 BOW      0.054200
     22 H4          3.9160    1.0000    1.0280 hc        1 BOW      0.047200
     23 H4A         3.5610   -0.7710    1.0810 hc        1 BOW      0.047200
     24 H5          4.0560    1.0470    3.5420 hc        1 BOW      0.044200
     25 H5A         3.7010   -0.7240    3.5950 hc        1 BOW      0.044200
     26 H6          5.7530   -1.1770    2.2050 hc        1 BOW      0.042700
     27 H6A         6.1080    0.5930    2.1530 hc        1 BOW      0.042700
     28 H7          6.2470    0.6400    4.6660 hc        1 BOW      0.040700
     29 H7A         5.8920   -1.1300    4.7180 hc        1 BOW      0.040700
     30 H8          8.3200    0.1860    3.3090 hc        1 BOW      0.037700
     31 H8A         8.3410   -0.6950    4.8920 hc        1 BOW      0.037700
     32 H8B         7.9640   -1.5880    3.3620 hc        1 BOW      0.037700
     33 H13        -3.7370    0.0040   -1.5820 hn        1 BOW      0.472800
@<TRIPOS>BOND
     1    1    5 1   
     2    1    8 1   
     3    1   14 1   
     4    1   15 1   
     5    2    4 1   
     6    2   16 1   
     7    2   17 1   
     8    2   33 1   
     9    3    4 2   
    10    4    6 2   
    11    4    8 1   
    12    5    7 1   
    13    5   18 1   
    14    5   19 1   
    15    7    9 1   
    16    7   20 1   
    17    7   21 1   
    18    9   10 1   
    19    9   22 1   
    20    9   23 1   
    21   10   11 1   
    22   10   24 1   
    23   10   25 1   
    24   11   12 1   
    25   11   26 1   
    26   11   27 1   
    27   12   13 1   
    28   12   28 1   
    29   12   29 1   
    30   13   30 1   
    31   13   31 1   
    32   13   32 1   
@<TRIPOS>SUBSTRUCTURE
     1 BOW         1 TEMP              0 ****  ****    0 ROOT
