@<TRIPOS>MOLECULE
BOW
   32    30     1     0     0
SMALL
bcc


@<TRIPOS>ATOM
      1 C1         -2.6290    0.1090   -1.2820 c3        1 BOW      0.271100
      2 N1         -5.0210    0.3960   -4.3300 n3        1 BOW     -1.004500
      3 O1         -5.2660    1.1430   -1.8490 o         1 BOW     -0.553400
      4 S1         -4.6110    0.1350   -2.7620 s4        1 BOW      1.690700
      5 C2         -1.1210   -0.0040   -1.2990 c3        1 BOW     -0.081400
      6 O2         -5.2050   -1.1550   -2.2480 o         1 BOW     -0.553400
      7 C3         -0.5990    0.0010    0.1210 c3        1 BOW     -0.080400
      8 O3         -3.1120    0.1470   -2.6050 o         1 BOW     -0.889500
      9 C4          0.9100   -0.1050    0.1040 c3        1 BOW     -0.077400
     10 C5          1.4370   -0.0270    1.5210 c3        1 BOW     -0.079400
     11 C6          2.9450   -0.1410    1.5040 c3        1 BOW     -0.079400
     12 C7          3.4730   -0.0500    2.9190 c3        1 BOW     -0.080400
     13 C8          4.9750   -0.2310    2.9100 c3        1 BOW     -0.092100
     14 H1         -2.8900    0.9300   -0.8160 h1        1 BOW      0.041700
     15 H1A        -3.0100   -0.6650   -0.8180 h1        1 BOW      0.041700
     16 HN1        -5.0530   -0.3050   -4.9170 hn        1 BOW      0.458800
     17 HN1A       -5.2170    1.2410   -4.6170 hn        1 BOW      0.458800
     18 H2         -0.7420    0.7540   -1.7880 hc        1 BOW      0.054700
     19 H2A        -0.8610   -0.8380   -1.7380 hc        1 BOW      0.054700
     20 H3         -0.9740   -0.7590    0.6090 hc        1 BOW      0.041700
     21 H3A        -0.8630    0.8340    0.5620 hc        1 BOW      0.041700
     22 H4          1.2830    0.6300   -0.4230 hc        1 BOW      0.040700
     23 H4A         1.1730   -0.9580   -0.2950 hc        1 BOW      0.040700
     24 H5          1.1790    0.8290    1.9180 hc        1 BOW      0.039700
     25 H5A         1.0600   -0.7590    2.0490 hc        1 BOW      0.039700
     26 H6          3.2030   -1.0000    1.1150 hc        1 BOW      0.039700
     27 H6A         3.3220    0.5860    0.9690 hc        1 BOW      0.039700
     28 H7          3.0630   -0.7500    3.4660 hc        1 BOW      0.038700
     29 H7A         3.2530    0.8260    3.2940 hc        1 BOW      0.038700
     30 H8          5.3850    0.4670    2.3580 hc        1 BOW      0.032700
     31 H8A         5.3180   -0.1670    3.8260 hc        1 BOW      0.032700
     32 H8B         5.1950   -1.1120    2.5400 hc        1 BOW      0.032700
@<TRIPOS>BOND
     1    1    5 1   
     2    1    8 1   
     3    1   14 1   
     4    1   15 1   
     5    2    4 1   
     6    2   16 1   
     7    2   17 1   
     8    3    4 1   
     9    4    6 1   
    10    5    7 1   
    11    5   18 1   
    12    5   19 1   
    13    7    9 1   
    14    7   20 1   
    15    7   21 1   
    16    9   10 1   
    17    9   22 1   
    18    9   23 1   
    19   10   11 1   
    20   10   24 1   
    21   10   25 1   
    22   11   12 1   
    23   11   26 1   
    24   11   27 1   
    25   12   13 1   
    26   12   28 1   
    27   12   29 1   
    28   13   30 1   
    29   13   31 1   
    30   13   32 1   
@<TRIPOS>SUBSTRUCTURE
     1 BOW         1 TEMP              0 ****  ****    0 ROOT
