@<TRIPOS>MOLECULE
BOW
   33    32     1     0     0
SMALL
bcc


@<TRIPOS>ATOM
      1 C1         -0.2340    0.7950    0.7700 c3        1 BOW      0.188400
      2 N1         -3.0060    0.6610   -1.8870 n4        1 BOW     -0.801500
      3 O1         -1.3990   -1.1760   -1.1350 o         1 BOW     -0.560800
      4 S1         -1.2380    0.0770   -1.6400 s6        1 BOW      1.637400
      5 C2          1.2500    0.6100    0.5400 c3        1 BOW     -0.129400
      6 O2         -0.6520    0.4510   -2.8070 o         1 BOW     -0.560800
      7 C3          1.9560    0.4250    1.8690 c3        1 BOW     -0.076400
      8 O3         -0.8970    1.1150   -0.4680 os        1 BOW     -0.590500
      9 C4          3.4420    0.2240    1.6630 c3        1 BOW     -0.079400
     10 C5          4.1530    0.0440    2.9890 c3        1 BOW     -0.079400
     11 C6          5.6390   -0.1580    2.7870 c3        1 BOW     -0.079400
     12 C7          6.3530   -0.3380    4.1100 c3        1 BOW     -0.079400
     13 C8          7.8330   -0.5390    3.9140 c3        1 BOW     -0.094100
     14 H1         -0.4510    1.7010    1.4030 h1        1 BOW      0.094200
     15 H1A        -0.7170   -0.1200    1.2070 h1        1 BOW      0.094200
     16 HN1        -3.2270    1.4460   -1.2720 hn        1 BOW      0.472800
     17 HN1A       -3.1590    0.9770   -2.8470 hn        1 BOW      0.472800
     18 H2          1.6690    1.5070    0.0100 hc        1 BOW      0.063200
     19 H2A         1.4330   -0.2860   -0.1100 hc        1 BOW      0.063200
     20 H3          1.5260   -0.4620    2.4060 hc        1 BOW      0.054200
     21 H3A         1.7840    1.3260    2.5160 hc        1 BOW      0.054200
     22 H4          3.8720    1.1090    1.1230 hc        1 BOW      0.047200
     23 H4A         3.6170   -0.6770    1.0180 hc        1 BOW      0.047200
     24 H5          3.9800    0.9460    3.6350 hc        1 BOW      0.044200
     25 H5A         3.7230   -0.8390    3.5300 hc        1 BOW      0.044200
     26 H6          5.8130   -1.0590    2.1410 hc        1 BOW      0.042700
     27 H6A         6.0700    0.7260    2.2450 hc        1 BOW      0.042700
     28 H7          6.1770    0.5640    4.7550 hc        1 BOW      0.040700
     29 H7A         5.9200   -1.2200    4.6510 hc        1 BOW      0.040700
     30 H8          8.2870    0.3410    3.3990 hc        1 BOW      0.037700
     31 H8A         8.3390   -0.6690    4.9020 hc        1 BOW      0.037700
     32 H8B         8.0300   -1.4480    3.2950 hc        1 BOW      0.037700
     33 H13        -3.6790   -0.0820   -1.6920 hn        1 BOW      0.472800
@<TRIPOS>BOND
     1    1    5 1   
     2    1    8 1   
     3    1   14 1   
     4    1   15 1   
     5    2    4 1   
     6    2   16 1   
     7    2   17 1   
     8    2   33 1   
     9    3    4 2   
    10    4    6 2   
    11    4    8 1   
    12    5    7 1   
    13    5   18 1   
    14    5   19 1   
    15    7    9 1   
    16    7   20 1   
    17    7   21 1   
    18    9   10 1   
    19    9   22 1   
    20    9   23 1   
    21   10   11 1   
    22   10   24 1   
    23   10   25 1   
    24   11   12 1   
    25   11   26 1   
    26   11   27 1   
    27   12   13 1   
    28   12   28 1   
    29   12   29 1   
    30   13   30 1   
    31   13   31 1   
    32   13   32 1   
@<TRIPOS>SUBSTRUCTURE
     1 BOW         1 TEMP              0 ****  ****    0 ROOT
