@<TRIPOS>MOLECULE
BOW
   32    31     1     0     0
SMALL
bcc


@<TRIPOS>ATOM
      1 C1          1.1980   -0.4090   -0.2740 c3        1 BOW      0.185400
      2 N1          4.5850   -0.6630   -0.9390 n3        1 BOW     -1.037700
      3 O1          3.5560   -0.6380    1.2910 o         1 BOW     -0.654800
      4 S1          3.8160    0.1610    0.1800 s6        1 BOW      1.718400
      5 C2         -0.0610    0.4430   -0.3000 c3        1 BOW     -0.087400
      6 O2          4.3260    1.4440    0.3120 o         1 BOW     -0.654800
      7 C3         -1.2870   -0.4260   -0.1250 c3        1 BOW     -0.079400
      8 O3          2.3020    0.4410   -0.4880 os        1 BOW     -0.582500
      9 C4         -2.5510    0.4080   -0.1480 c3        1 BOW     -0.078400
     10 C5         -3.7810   -0.4570    0.0250 c3        1 BOW     -0.079400
     11 C6         -5.0450    0.3770    0.0030 c3        1 BOW     -0.079400
     12 C7         -6.2770   -0.4860    0.1760 c3        1 BOW     -0.080400
     13 C8         -7.5370    0.3390    0.1540 c3        1 BOW     -0.093100
     14 H1          1.3000   -0.9370    0.7140 h1        1 BOW      0.038700
     15 H1A         1.1800   -1.1680   -1.1040 h1        1 BOW      0.038700
     16 HN1         4.6260   -1.6510   -0.9690 hn        1 BOW      0.455300
     17 HN1A        5.0580   -0.2440   -1.7010 hn        1 BOW      0.455300
     18 H2         -0.0070    1.2090    0.5160 hc        1 BOW      0.057700
     19 H2A        -0.1110    0.9980   -1.2720 hc        1 BOW      0.057700
     20 H3         -1.3280   -1.1920   -0.9430 hc        1 BOW      0.039700
     21 H3A        -1.2220   -0.9820    0.8480 hc        1 BOW      0.039700
     22 H4         -2.5100    1.1740    0.6700 hc        1 BOW      0.042700
     23 H4A        -2.6160    0.9650   -1.1200 hc        1 BOW      0.042700
     24 H5         -3.8210   -1.2230   -0.7930 hc        1 BOW      0.039200
     25 H5A        -3.7160   -1.0140    0.9970 hc        1 BOW      0.039200
     26 H6         -5.0050    1.1430    0.8210 hc        1 BOW      0.040200
     27 H6A        -5.1110    0.9340   -0.9690 hc        1 BOW      0.040200
     28 H7         -6.3140   -1.2530   -0.6420 hc        1 BOW      0.038200
     29 H7A        -6.2080   -1.0440    1.1470 hc        1 BOW      0.038200
     30 H8         -8.4320   -0.3160    0.2830 hc        1 BOW      0.032700
     31 H8A        -7.5300    1.0930    0.9780 hc        1 BOW      0.032700
     32 H8B        -7.6360    0.8830   -0.8170 hc        1 BOW      0.032700
@<TRIPOS>BOND
     1    1    5 1   
     2    1    8 1   
     3    1   14 1   
     4    1   15 1   
     5    2    4 1   
     6    2   16 1   
     7    2   17 1   
     8    3    4 2   
     9    4    6 2   
    10    4    8 1   
    11    5    7 1   
    12    5   18 1   
    13    5   19 1   
    14    7    9 1   
    15    7   20 1   
    16    7   21 1   
    17    9   10 1   
    18    9   22 1   
    19    9   23 1   
    20   10   11 1   
    21   10   24 1   
    22   10   25 1   
    23   11   12 1   
    24   11   26 1   
    25   11   27 1   
    26   12   13 1   
    27   12   28 1   
    28   12   29 1   
    29   13   30 1   
    30   13   31 1   
    31   13   32 1   
@<TRIPOS>SUBSTRUCTURE
     1 BOW         1 TEMP              0 ****  ****    0 ROOT
