@<TRIPOS>MOLECULE
BOX
   14    11     1     0     0
SMALL
bcc


@<TRIPOS>ATOM
      1 C1         -0.4220   -0.0000   -0.7310 cg        1 BOX     -0.072200
      2 C2          0.9640   -0.0000   -0.7310 c1        1 BOX     -0.093250
      3 C3          1.6570   -0.0000    0.4700 c1        1 BOX     -0.093250
      4 C4          0.9640   -0.0000    1.6700 c1        1 BOX     -0.093250
      5 C5         -0.4220   -0.0000    1.6700 c1        1 BOX     -0.093250
      6 C6         -1.1150   -0.0000    0.4700 c1        1 BOX     -0.051500
      7 C1'        -1.1780    0.0010   -2.0410 c         1 BOX      0.854800
      8 O1'        -1.4970   -1.0890   -2.5850 o         1 BOX     -0.834300
      9 O2'        -1.4890    1.0920   -2.5870 o         1 BOX     -0.834300
     10 H2          1.4520   -0.0010   -1.5760 ha        1 BOX      0.054250
     11 H3          2.6330   -0.0000    0.4700 ha        1 BOX      0.054250
     12 H4          1.4520   -0.0000    2.5150 ha        1 BOX      0.054250
     13 H5         -0.9100   -0.0000    2.5150 ha        1 BOX      0.054250
     14 H6         -2.0910   -0.0000    0.4700 ha        1 BOX      0.090500
@<TRIPOS>BOND
     1    1    6 3   
     2    1    7 1   
     3    2    3 3   
     4    2   10 1   
     5    3   11 1   
     6    4    5 3   
     7    4   12 1   
     8    5   13 1   
     9    6   14 1   
    10    7    8 1   
    11    7    9 1   
@<TRIPOS>SUBSTRUCTURE
     1 BOX         1 TEMP              0 ****  ****    0 ROOT
