@<TRIPOS>MOLECULE
BOX
   14    14     1     0     0
SMALL
bcc


@<TRIPOS>ATOM
      1 C1         -0.0130    0.0000   -0.0010 ca        1 BOX     -0.123600
      2 C2          1.3850   -0.0160    0.0020 ca        1 BOX     -0.109000
      3 C3          2.0900   -0.0160    1.2050 ca        1 BOX     -0.166000
      4 C4          1.4010   -0.0000    2.4180 ca        1 BOX     -0.162000
      5 C5          0.0060    0.0160    2.4230 ca        1 BOX     -0.166000
      6 C6         -0.6970    0.0160    1.2190 ca        1 BOX     -0.109000
      7 C1'        -0.7810    0.0000   -1.3140 c         1 BOX      0.906200
      8 O1'        -0.1170   -0.0140   -2.3900 o         1 BOX     -0.834300
      9 O2'        -2.0440    0.0150   -1.2630 o         1 BOX     -0.834300
     10 H2          1.9080   -0.0280   -0.9680 ha        1 BOX      0.148000
     11 H3          3.1880   -0.0280    1.2000 ha        1 BOX      0.101000
     12 H4          1.9550   -0.0000    3.3660 ha        1 BOX      0.097000
     13 H5         -0.5370    0.0280    3.3780 ha        1 BOX      0.101000
     14 H6         -1.7980    0.0280    1.1990 ha        1 BOX      0.148000
@<TRIPOS>BOND
     1    1    2 ar  
     2    1    6 ar  
     3    1    7 1   
     4    2    3 ar  
     5    2   10 1   
     6    3    4 ar  
     7    3   11 1   
     8    4    5 ar  
     9    4   12 1   
    10    5    6 ar  
    11    5   13 1   
    12    6   14 1   
    13    7    8 1   
    14    7    9 1   
@<TRIPOS>SUBSTRUCTURE
     1 BOX         1 TEMP              0 ****  ****    0 ROOT
