@<TRIPOS>MOLECULE
BOX
   14    14     1     0     0
SMALL
bcc


@<TRIPOS>ATOM
      1 C1         -0.0190    0.0000    0.1780 ca        1 BOX     -0.123600
      2 C2         -1.2040    0.0000   -0.5650 ca        1 BOX     -0.109000
      3 C3         -1.1650   -0.0000   -1.9580 ca        1 BOX     -0.166000
      4 C4          0.0620   -0.0000   -2.6230 ca        1 BOX     -0.162000
      5 C5          1.2480    0.0000   -1.8890 ca        1 BOX     -0.166000
      6 C6          1.2070    0.0000   -0.4950 ca        1 BOX     -0.109000
      7 C1'        -0.0630    0.0010    1.6980 c         1 BOX      0.906200
      8 O1'        -1.1960    0.0000    2.2590 o         1 BOX     -0.834300
      9 O2'         1.0350    0.0010    2.3240 o         1 BOX     -0.834300
     10 H2         -2.1610    0.0000   -0.0190 ha        1 BOX      0.148000
     11 H3         -2.0990   -0.0000   -2.5360 ha        1 BOX      0.101000
     12 H4          0.0940   -0.0000   -3.7210 ha        1 BOX      0.097000
     13 H5          2.2150    0.0000   -2.4110 ha        1 BOX      0.101000
     14 H6          2.1310    0.0000    0.1050 ha        1 BOX      0.148000
@<TRIPOS>BOND
     1    1    2 ar  
     2    1    6 ar  
     3    1    7 1   
     4    2    3 ar  
     5    2   10 1   
     6    3    4 ar  
     7    3   11 1   
     8    4    5 ar  
     9    4   12 1   
    10    5    6 ar  
    11    5   13 1   
    12    6   14 1   
    13    7    8 1   
    14    7    9 1   
@<TRIPOS>SUBSTRUCTURE
     1 BOX         1 TEMP              0 ****  ****    0 ROOT
