@<TRIPOS>MOLECULE
BP
   39    43     1     0     0
SMALL
bcc


@<TRIPOS>ATOM
      1 C10         0.0680    0.0720   -0.0040 c3        1 BP      -0.065100
      2 C9          1.5460   -0.2480    0.1850 c3        1 BP       0.113100
      3 C8          1.9950   -0.0260    1.6320 c3        1 BP       0.116100
      4 C7          1.7160    1.4310    2.0370 c3        1 BP       0.161400
      5 C6A         0.2650    1.7660    1.8670 ca        1 BP      -0.071300
      6 C6         -0.2990    2.7440    2.6890 ca        1 BP      -0.081000
      7 C5A        -1.6350    3.1240    2.5340 ca        1 BP      -0.039000
      8 C5         -2.2360    4.1310    3.3690 ca        1 BP      -0.109000
      9 C4         -3.5320    4.4970    3.2080 ca        1 BP      -0.119000
     10 C3A        -4.3570    3.8890    2.1970 ca        1 BP      -0.031000
     11 C3         -5.6970    4.2550    2.0180 ca        1 BP      -0.114000
     12 C2         -6.4700    3.6460    1.0320 ca        1 BP      -0.126000
     13 C1         -5.9250    2.6640    0.2090 ca        1 BP      -0.114000
     14 C2A        -4.5870    2.2750    0.3620 ca        1 BP      -0.035000
     15 C2B        -3.7910    2.8900    1.3620 ca        1 BP      -0.015000
     16 C2C        -2.4190    2.5030    1.5280 ca        1 BP      -0.010000
     17 C12        -3.9870    1.2630   -0.4640 ca        1 BP      -0.111000
     18 C11        -2.6900    0.8980   -0.3030 ca        1 BP      -0.122000
     19 C1B        -1.8480    1.5050    0.6970 ca        1 BP      -0.034000
     20 C1A        -0.4960    1.1380    0.8710 ca        1 BP      -0.055300
     21 O9          2.3910    0.5700   -0.6170 oh        1 BP      -0.611800
     22 O8          3.3670   -0.3190    1.8060 oh        1 BP      -0.600800
     23 O7          2.0920    1.6540    3.3900 oh        1 BP      -0.600800
     24 H101       -0.5140   -0.8740    0.1820 hc        1 BP       0.061200
     25 H102       -0.0940    0.3620   -1.0790 hc        1 BP       0.061200
     26 H9          1.7290   -1.3260   -0.0960 h1        1 BP       0.050700
     27 H8          1.4590   -0.7380    2.3190 h1        1 BP       0.096700
     28 H7          2.3290    2.1160    1.3780 h1        1 BP       0.064700
     29 H6          0.3210    3.2110    3.4730 ha        1 BP       0.158000
     30 H5         -1.6050    4.5940    4.1440 ha        1 BP       0.137000
     31 H4         -3.9910    5.2670    3.8460 ha        1 BP       0.134000
     32 H3         -6.1390    5.0290    2.6640 ha        1 BP       0.134000
     33 H2         -7.5210    3.9430    0.9020 ha        1 BP       0.133000
     34 H1         -6.5430    2.1870   -0.5660 ha        1 BP       0.133000
     35 H12        -4.6170    0.7900   -1.2330 ha        1 BP       0.133000
     36 H11        -2.2580    0.1160   -0.9470 ha        1 BP       0.128000
     37 HO9         2.0890    0.4880   -1.5290 ho        1 BP       0.412000
     38 HO8         3.8550    0.1660    1.1260 ho        1 BP       0.420000
     39 HO7         2.9200    1.1720    3.5270 ho        1 BP       0.420000
@<TRIPOS>BOND
     1    1    2 1   
     2    1   20 1   
     3    1   24 1   
     4    1   25 1   
     5    2    3 1   
     6    2   21 1   
     7    2   26 1   
     8    3    4 1   
     9    3   22 1   
    10    3   27 1   
    11    4    5 1   
    12    4   23 1   
    13    4   28 1   
    14    5    6 ar  
    15    5   20 ar  
    16    6    7 ar  
    17    6   29 1   
    18    7    8 ar  
    19    7   16 ar  
    20    8    9 ar  
    21    8   30 1   
    22    9   10 ar  
    23    9   31 1   
    24   10   11 ar  
    25   10   15 ar  
    26   11   12 ar  
    27   11   32 1   
    28   12   13 ar  
    29   12   33 1   
    30   13   14 ar  
    31   13   34 1   
    32   14   15 ar  
    33   14   17 ar  
    34   15   16 ar  
    35   16   19 ar  
    36   17   18 ar  
    37   17   35 1   
    38   18   19 ar  
    39   18   36 1   
    40   19   20 ar  
    41   21   37 1   
    42   22   38 1   
    43   23   39 1   
@<TRIPOS>SUBSTRUCTURE
     1 BP          1 TEMP              0 ****  ****    0 ROOT
