@<TRIPOS>MOLECULE
BP
   39    43     1     0     0
SMALL
bcc


@<TRIPOS>ATOM
      1 C10         1.7880   -0.1200    2.0790 c3        1 BP      -0.072100
      2 C9          1.4670    0.0490    3.5620 c3        1 BP       0.143100
      3 C8          0.1130   -0.5960    3.8770 c3        1 BP       0.161100
      4 C7         -0.9740    0.1500    3.0840 c3        1 BP       0.149400
      5 C6A        -0.6940    0.0700    1.6110 ca        1 BP      -0.093300
      6 C6         -1.7580    0.1350    0.7090 ca        1 BP      -0.105000
      7 C5A        -1.5360    0.1050   -0.6700 ca        1 BP      -0.032000
      8 C5         -2.6220    0.1760   -1.6130 ca        1 BP      -0.114000
      9 C4         -2.3950    0.1480   -2.9500 ca        1 BP      -0.113000
     10 C3A        -1.0600    0.0430   -3.4770 ca        1 BP      -0.033000
     11 C3         -0.8090    0.0130   -4.8540 ca        1 BP      -0.112000
     12 C2          0.4960   -0.0920   -5.3320 ca        1 BP      -0.127000
     13 C1          1.5700   -0.1690   -4.4490 ca        1 BP      -0.112000
     14 C2A         1.3530   -0.1400   -3.0660 ca        1 BP      -0.035000
     15 C2B         0.0290   -0.0320   -2.5690 ca        1 BP      -0.015000
     16 C2C        -0.2080    0.0010   -1.1540 ca        1 BP      -0.011000
     17 C12         2.4330   -0.2210   -2.1200 ca        1 BP      -0.111000
     18 C11         2.2070   -0.1900   -0.7830 ca        1 BP      -0.121000
     19 C1B         0.8760   -0.0720   -0.2410 ca        1 BP      -0.031000
     20 C1A         0.6270   -0.0320    1.1480 ca        1 BP      -0.042300
     21 O9          1.3850    1.4220    3.9180 oh        1 BP      -0.585800
     22 O8         -0.1020   -0.5150    5.2720 oh        1 BP      -0.589800
     23 O7         -2.2030   -0.4610    3.4550 oh        1 BP      -0.604800
     24 H101        2.5420    0.6660    1.7970 hc        1 BP       0.061200
     25 H102        2.2750   -1.1250    1.9380 hc        1 BP       0.061200
     26 H9          2.2640   -0.4510    4.1830 h1        1 BP       0.053700
     27 H8          0.1340   -1.6790    3.5680 h1        1 BP       0.056700
     28 H7         -0.9760    1.2350    3.4010 h1        1 BP       0.080700
     29 H6         -2.7910    0.2040    1.0820 ha        1 BP       0.130000
     30 H5         -3.6440    0.2540   -1.2110 ha        1 BP       0.133000
     31 H4         -3.2260    0.2030   -3.6700 ha        1 BP       0.134000
     32 H3         -1.6510    0.0710   -5.5600 ha        1 BP       0.135000
     33 H2          0.6780   -0.1150   -6.4170 ha        1 BP       0.134000
     34 H1          2.5970   -0.2520   -4.8360 ha        1 BP       0.134000
     35 H12         3.4560   -0.3110   -2.5200 ha        1 BP       0.133000
     36 H11         3.0530   -0.2600   -0.0830 ha        1 BP       0.131000
     37 HO9         2.2830    1.7710    3.8800 ho        1 BP       0.401000
     38 HO8        -1.0350   -0.7240    5.4200 ho        1 BP       0.420000
     39 HO7        -2.9100    0.1300    3.1770 ho        1 BP       0.408000
@<TRIPOS>BOND
     1    1    2 1   
     2    1   20 1   
     3    1   24 1   
     4    1   25 1   
     5    2    3 1   
     6    2   21 1   
     7    2   26 1   
     8    3    4 1   
     9    3   22 1   
    10    3   27 1   
    11    4    5 1   
    12    4   23 1   
    13    4   28 1   
    14    5    6 ar  
    15    5   20 ar  
    16    6    7 ar  
    17    6   29 1   
    18    7    8 ar  
    19    7   16 ar  
    20    8    9 ar  
    21    8   30 1   
    22    9   10 ar  
    23    9   31 1   
    24   10   11 ar  
    25   10   15 ar  
    26   11   12 ar  
    27   11   32 1   
    28   12   13 ar  
    29   12   33 1   
    30   13   14 ar  
    31   13   34 1   
    32   14   15 ar  
    33   14   17 ar  
    34   15   16 ar  
    35   16   19 ar  
    36   17   18 ar  
    37   17   35 1   
    38   18   19 ar  
    39   18   36 1   
    40   19   20 ar  
    41   21   37 1   
    42   22   38 1   
    43   23   39 1   
@<TRIPOS>SUBSTRUCTURE
     1 BP          1 TEMP              0 ****  ****    0 ROOT
