@<TRIPOS>MOLECULE
BP
   39    43     1     0     0
SMALL
bcc


@<TRIPOS>ATOM
      1 C10         0.0390   -0.0070    0.0190 c3        1 BP      -0.072100
      2 C9          1.5340   -0.2600    0.1440 c3        1 BP       0.113100
      3 C8          2.0200   -0.0470    1.5800 c3        1 BP       0.076100
      4 C7          1.7110    1.3900    2.0340 c3        1 BP       0.161400
      5 C6A         0.2620    1.7280    1.8490 ca        1 BP      -0.085300
      6 C6         -0.2890    2.7280    2.6540 ca        1 BP      -0.080000
      7 C5A        -1.6210    3.1190    2.4970 ca        1 BP      -0.038000
      8 C5         -2.2080    4.1510    3.3110 ca        1 BP      -0.110000
      9 C4         -3.5010    4.5260    3.1470 ca        1 BP      -0.116000
     10 C3A        -4.3370    3.9040    2.1540 ca        1 BP      -0.031000
     11 C3         -5.6740    4.2800    1.9730 ca        1 BP      -0.113000
     12 C2         -6.4570    3.6550    1.0050 ca        1 BP      -0.126000
     13 C1         -5.9270    2.6480    0.2040 ca        1 BP      -0.113000
     14 C2A        -4.5930    2.2490    0.3600 ca        1 BP      -0.035000
     15 C2B        -3.7850    2.8800    1.3400 ca        1 BP      -0.017000
     16 C2C        -2.4160    2.4830    1.5080 ca        1 BP      -0.009000
     17 C12        -4.0080    1.2090   -0.4420 ca        1 BP      -0.110000
     18 C11        -2.7140    0.8350   -0.2800 ca        1 BP      -0.122000
     19 C1B        -1.8590    1.4610    0.6970 ca        1 BP      -0.031000
     20 C1A        -0.5090    1.0860    0.8700 ca        1 BP      -0.063300
     21 O9          2.2970    0.5340   -0.7520 oh        1 BP      -0.601800
     22 O8          3.4080   -0.2890    1.7040 oh        1 BP      -0.599800
     23 O7          2.0580    1.5650    3.4010 oh        1 BP      -0.595800
     24 H101       -0.1780    0.2180   -1.0630 hc        1 BP       0.070700
     25 H102       -0.4990   -0.9590    0.2820 hc        1 BP       0.070700
     26 H9          1.7750   -1.3160   -0.1750 h1        1 BP       0.090700
     27 H8          1.5330   -0.7850    2.2760 h1        1 BP       0.099700
     28 H7          2.3350    2.1090    1.4230 h1        1 BP       0.040700
     29 H6          0.3380    3.2020    3.4270 ha        1 BP       0.157000
     30 H5         -1.5690    4.6240    4.0720 ha        1 BP       0.137000
     31 H4         -3.9480    5.3160    3.7700 ha        1 BP       0.135000
     32 H3         -6.1040    5.0740    2.6020 ha        1 BP       0.135000
     33 H2         -7.5060    3.9610    0.8730 ha        1 BP       0.134000
     34 H1         -6.5540    2.1590   -0.5560 ha        1 BP       0.134000
     35 H12        -4.6480    0.7220   -1.1940 ha        1 BP       0.134000
     36 H11        -2.2950    0.0290   -0.9030 ha        1 BP       0.132000
     37 HO9         1.9870    1.4450   -0.6730 ho        1 BP       0.408000
     38 HO8         3.8420    0.1180    0.9400 ho        1 BP       0.418000
     39 HO7         2.8930    1.0950    3.5340 ho        1 BP       0.422000
@<TRIPOS>BOND
     1    1    2 1   
     2    1   20 1   
     3    1   24 1   
     4    1   25 1   
     5    2    3 1   
     6    2   21 1   
     7    2   26 1   
     8    3    4 1   
     9    3   22 1   
    10    3   27 1   
    11    4    5 1   
    12    4   23 1   
    13    4   28 1   
    14    5    6 ar  
    15    5   20 ar  
    16    6    7 ar  
    17    6   29 1   
    18    7    8 ar  
    19    7   16 ar  
    20    8    9 ar  
    21    8   30 1   
    22    9   10 ar  
    23    9   31 1   
    24   10   11 ar  
    25   10   15 ar  
    26   11   12 ar  
    27   11   32 1   
    28   12   13 ar  
    29   12   33 1   
    30   13   14 ar  
    31   13   34 1   
    32   14   15 ar  
    33   14   17 ar  
    34   15   16 ar  
    35   16   19 ar  
    36   17   18 ar  
    37   17   35 1   
    38   18   19 ar  
    39   18   36 1   
    40   19   20 ar  
    41   21   37 1   
    42   22   38 1   
    43   23   39 1   
@<TRIPOS>SUBSTRUCTURE
     1 BP          1 TEMP              0 ****  ****    0 ROOT
