@<TRIPOS>MOLECULE
BP
   39    36     1     0     0
SMALL
bcc


@<TRIPOS>ATOM
      1 C10         1.5320   -1.5610   -1.6620 c3        1 BP      -0.126000
      2 C9          2.9790   -1.5610   -1.6620 c3        1 BP       0.013000
      3 C8          3.6520   -1.5610   -0.3290 c3        1 BP      -0.046000
      4 C7          3.2440   -0.5330    0.6080 c3        1 BP       0.082000
      5 C6A         1.6840   -0.1190    0.5880 c2        1 BP      -0.074000
      6 C6          1.1650    0.8500    1.4330 c1        1 BP      -0.079000
      7 C5A        -0.2410    1.1830    1.3740 c1        1 BP      -0.036000
      8 C5         -0.7590    2.1590    2.2270 c1        1 BP      -0.114000
      9 C4         -2.1180    2.4840    2.1730 c1        1 BP      -0.114000
     10 C3A        -2.9790    1.8160    1.2420 c1        1 BP      -0.036000
     11 C3         -4.3480    2.1480    1.1930 c1        1 BP      -0.120500
     12 C2         -5.2010    1.4930    0.2780 c1        1 BP      -0.120500
     13 C1         -4.6840    0.5030   -0.5890 c1        1 BP      -0.114500
     14 C2A        -3.3140    0.1690   -0.5410 c1        1 BP      -0.033000
     15 C2B        -2.4550    0.8230    0.3750 c1        1 BP      -0.012000
     16 C2C        -1.1160    0.5000    0.4250 c1        1 BP      -0.012000
     17 C12        -2.8000   -0.8210   -1.4090 c1        1 BP      -0.114500
     18 C11        -1.4320   -1.1500   -1.3570 c1        1 BP      -0.118000
     19 C1B        -0.5870   -0.4950   -0.4440 c1        1 BP      -0.036000
     20 C1A         0.8100   -0.7110   -0.4960 c2        1 BP      -0.040000
     21 O9          3.4390   -0.3410   -2.4090 oh        1 BP      -0.326000
     22 O8          5.1280   -1.4130   -0.5600 oh        1 BP      -0.341000
     23 O7          3.5650   -0.9900    1.9330 oh        1 BP      -0.324000
     24 H101        1.2300   -1.2090   -2.5210 hc        1 BP       0.111000
     25 H102        1.2300   -2.4870   -1.5910 hc        1 BP       0.111000
     26 H9          3.2810   -2.3490   -2.1530 h1        1 BP       0.074000
     27 H8          3.4950   -2.4290    0.0880 h1        1 BP       0.108000
     28 H7          3.7720    0.2680    0.4260 h1        1 BP       0.106000
     29 H6          1.7550    1.3280    2.0460 ha        1 BP       0.156000
     30 H5         -0.1760    2.6020    2.8730 ha        1 BP       0.135000
     31 H4         -2.4800    3.1670    2.7690 ha        1 BP       0.135000
     32 H3         -4.7060    2.8310    1.7910 ha        1 BP       0.133500
     33 H2         -6.1490    1.7230    0.2440 ha        1 BP       0.133500
     34 H1         -5.2750    0.0510   -1.2210 ha        1 BP       0.133500
     35 H12        -3.4060   -1.3440   -1.9680 ha        1 BP       0.133500
     36 H11        -1.0810   -1.8670   -1.9190 ha        1 BP       0.132000
     37 HO9         3.6770   -0.5710   -3.2320 ho        1 BP       0.214000
     38 HO8         5.5400   -2.1660   -0.3340 ho        1 BP       0.211000
     39 HO7         4.1290   -0.4200    2.3140 ho        1 BP       0.219000
@<TRIPOS>BOND
     1    1    2 1   
     2    1   20 1   
     3    1   24 1   
     4    1   25 1   
     5    2    3 1   
     6    2   21 1   
     7    2   26 1   
     8    3    4 1   
     9    3   22 1   
    10    3   27 1   
    11    4    5 1   
    12    4   23 1   
    13    4   28 1   
    14    5    6 1   
    15    5   20 1   
    16    6   29 1   
    17    7    8 1   
    18    7   16 1   
    19    8   30 1   
    20    9   10 1   
    21    9   31 1   
    22   10   15 1   
    23   11   12 1   
    24   11   32 1   
    25   12   33 1   
    26   13   14 1   
    27   13   34 1   
    28   14   17 1   
    29   15   16 1   
    30   17   35 1   
    31   18   19 1   
    32   18   36 1   
    33   19   20 1   
    34   21   37 1   
    35   22   38 1   
    36   23   39 1   
@<TRIPOS>SUBSTRUCTURE
     1 BP          1 TEMP              0 ****  ****    0 ROOT
