@<TRIPOS>MOLECULE
BP0
   29    30     1     0     0
SMALL
bcc


@<TRIPOS>ATOM
      1 S18        -0.0000   -1.3990    0.0040 ss        1 BP0     -0.327200
      2 N26        -4.0880    0.7330   -1.1330 nc        1 BP0     -0.292000
      3 N28        -5.2400    1.3070   -0.9630 nc        1 BP0     -0.380000
      4 C30        -2.6130   -1.1130   -0.2750 c3        1 BP0     -0.091700
      5 C31        -5.9660    0.7810    0.0800 cd        1 BP0      0.578300
      6 C32        -1.3670   -0.2760   -0.1090 c3        1 BP0     -0.000300
      7 C33        -3.8360   -0.2760   -0.2700 cd        1 BP0      0.334700
      8 S35        -5.1100   -0.5230    0.8630 ss        1 BP0     -0.212800
      9 H1         -7.5450    2.0430    0.0530 hn        1 BP0      0.408300
     10 H2         -7.8400    0.5630    0.7600 hn        1 BP0      0.408300
     11 H3         -2.5580   -1.6830   -1.2440 hc        1 BP0      0.073200
     12 H4         -2.6780   -1.8670    0.5570 hc        1 BP0      0.073200
     13 H5         -1.4270    0.3500    0.8150 h1        1 BP0      0.075700
     14 C1          1.3660   -0.2750    0.1100 c3        1 BP0     -0.000300
     15 C2          2.6120   -1.1110    0.2810 c3        1 BP0     -0.091700
     16 C3          3.8350   -0.2740    0.2720 cc        1 BP0      0.334700
     17 N1          4.0880    0.7400    1.1290 nd        1 BP0     -0.292000
     18 N2          5.2390    1.3140    0.9560 nd        1 BP0     -0.380000
     19 C6          5.9650    0.7820   -0.0840 cc        1 BP0      0.578300
     20 S1          5.1100   -0.5270   -0.8590 ss        1 BP0     -0.212800
     21 N3          7.1650    1.2710   -0.5730 nh        1 BP0     -0.887500
     22 H6         -1.2360    0.4120   -0.9790 h1        1 BP0      0.075700
     23 H7          1.4270    0.3450   -0.8170 h1        1 BP0      0.075700
     24 H8          1.2350    0.4180    0.9770 h1        1 BP0      0.075700
     25 H9          2.5570   -1.6760    1.2540 hc        1 BP0      0.073200
     26 H10         2.6780   -1.8690   -0.5460 hc        1 BP0      0.073200
     27 H11         7.5440    2.0440   -0.0640 hn        1 BP0      0.408300
     28 H12         7.8390    0.5590   -0.7620 hn        1 BP0      0.408300
     29 N27        -7.1660    1.2730    0.5670 nh        1 BP0     -0.887500
@<TRIPOS>BOND
     1    1    6 1   
     2    1   14 1   
     3    2    3 1   
     4    2    7 2   
     5    3    5 2   
     6    4    6 1   
     7    4    7 1   
     8    4   11 1   
     9    4   12 1   
    10    5    8 1   
    11    5   29 1   
    12    6   13 1   
    13    6   22 1   
    14    7    8 1   
    15    9   29 1   
    16   10   29 1   
    17   14   15 1   
    18   14   23 1   
    19   14   24 1   
    20   15   16 1   
    21   15   25 1   
    22   15   26 1   
    23   16   17 2   
    24   16   20 1   
    25   17   18 1   
    26   18   19 2   
    27   19   20 1   
    28   19   21 1   
    29   21   27 1   
    30   21   28 1   
@<TRIPOS>SUBSTRUCTURE
     1 BP0         1 TEMP              0 ****  ****    0 ROOT
