@<TRIPOS>MOLECULE
BP0
   29    28     1     0     0
SMALL
bcc


@<TRIPOS>ATOM
      1 S18         0.5700   -0.3570    2.1630 ss        1 BP0     -0.309200
      2 N26         3.4750   -0.0970   -1.5320 nc        1 BP0     -0.292000
      3 N28         4.5740   -0.0900   -2.2210 nc        1 BP0     -0.382000
      4 C30         2.4420    0.6930    0.6200 c3        1 BP0     -0.089700
      5 C31         5.5960    0.6050   -1.6160 cd        1 BP0      0.587300
      6 C32         1.7230   -0.6170    0.8410 c3        1 BP0     -0.005300
      7 C33         3.5520    0.5560   -0.3510 cd        1 BP0      0.326700
      8 S35         5.1000    1.2600   -0.0750 ss        1 BP0     -0.210800
      9 H1          6.9950    0.4780   -3.0710 hn        1 BP0      0.412300
     10 H2          7.5940    0.7820   -1.5430 hn        1 BP0      0.412300
     11 H3          2.8520    1.0710    1.5970 hc        1 BP0      0.072700
     12 H4          1.7150    1.4630    0.2370 hc        1 BP0      0.072700
     13 H5          1.1900   -0.9380   -0.0890 h1        1 BP0      0.078700
     14 C1         -0.4440   -1.8170    2.0320 c3        1 BP0      0.067800
     15 C2         -1.6320   -1.5890    2.7740 c1        1 BP0     -0.042100
     16 C3         -2.6380   -1.3870    3.4010 cg        1 BP0     -0.143000
     17 N1         -3.8570   -1.3080    4.0290 ne        1 BP0      0.059000
     18 N2         -4.2120   -0.5280    4.8810 nf        1 BP0     -0.144400
     19 C6         -3.4580    0.5410    5.5460 c         1 BP0      0.474800
     20 S1         -3.7040    0.7430    7.1010 s         1 BP0     -0.379400
     21 N3         -2.6260    1.3300    4.8010 nt        1 BP0     -0.608000
     22 H6          2.4460   -1.4220    1.1160 h1        1 BP0      0.078700
     23 H7          0.1080   -2.7050    2.4420 h1        1 BP0      0.096700
     24 H8         -0.6810   -2.0280    0.9530 h1        1 BP0      0.096700
     25 H9         -0.2770   -2.3580   -1.3060 ha        1 BP0      0.001500
     26 H10        -0.6230   -1.7830   -1.3970 ha        1 BP0      0.001500
     27 H11        -2.1730    2.0910    5.2520 hn        1 BP0      0.328000
     28 H12        -2.4590    1.1870    3.8340 hn        1 BP0      0.328000
     29 N27         6.8290    0.8870   -2.1740 nv        1 BP0     -0.890500
@<TRIPOS>BOND
     1    1    6 1   
     2    1   14 1   
     3    2    3 1   
     4    2    7 2   
     5    3    5 2   
     6    4    6 1   
     7    4    7 1   
     8    4   11 1   
     9    4   12 1   
    10    5    8 1   
    11    5   29 1   
    12    6   13 1   
    13    6   22 1   
    14    7    8 1   
    15    9   29 1   
    16   10   29 1   
    17   14   15 1   
    18   14   23 1   
    19   14   24 1   
    20   15   16 3   
    21   16   17 1   
    22   17   18 2   
    23   18   19 1   
    24   19   20 2   
    25   19   21 1   
    26   21   27 1   
    27   21   28 1   
    28   25   26 1   
@<TRIPOS>SUBSTRUCTURE
     1 BP0         1 TEMP              0 ****  ****    0 ROOT
