@<TRIPOS>MOLECULE
BP0
   29    30     1     0     0
SMALL
bcc


@<TRIPOS>ATOM
      1 S18         0.0440   -0.0410    0.1430 ss        1 BP0     -0.326200
      2 N26         4.5850   -1.0430   -0.7540 nc        1 BP0     -0.293000
      3 N28         5.8440   -0.8290   -0.9860 nc        1 BP0     -0.380000
      4 C30         2.2710   -0.2030   -1.2710 c3        1 BP0     -0.091700
      5 C31         6.0720    0.2240   -1.8400 cd        1 BP0      0.578300
      6 C32         1.8120   -0.1720    0.1670 c3        1 BP0      0.000700
      7 C33         3.7490   -0.1820   -1.3760 cd        1 BP0      0.335700
      8 S35         4.5800    0.9730   -2.3480 ss        1 BP0     -0.211800
      9 H1          8.0790    0.0700   -2.0260 hn        1 BP0      0.408300
     10 H2          7.4580    1.5840   -2.3420 hn        1 BP0      0.408300
     11 H3          1.8500    0.6820   -1.8230 hc        1 BP0      0.073700
     12 H4          1.8800   -1.1320   -1.7730 hc        1 BP0      0.073700
     13 H5          2.1270   -1.1020    0.7010 h1        1 BP0      0.075200
     14 C1         -0.3330   -0.1170    1.8730 c3        1 BP0      0.000700
     15 C2         -1.8240    0.0800    2.0090 c3        1 BP0     -0.091700
     16 C3         -2.2750   -0.0910    3.4100 cc        1 BP0      0.335700
     17 N1         -1.7670    0.5660    4.4760 nd        1 BP0     -0.293000
     18 N2         -2.3130    0.2500    5.6100 nd        1 BP0     -0.380000
     19 C6         -3.3190   -0.6800    5.4940 cc        1 BP0      0.578300
     20 S1         -3.5500   -1.1690    3.8340 ss        1 BP0     -0.211800
     21 N3         -4.1580   -1.1050    6.5110 nh        1 BP0     -0.887500
     22 H6          2.2540    0.6990    0.7080 h1        1 BP0      0.075200
     23 H7          0.2220    0.6790    2.4290 h1        1 BP0      0.075200
     24 H8         -0.0220   -1.1040    2.2910 h1        1 BP0      0.075200
     25 H9         -2.1030    1.1130    1.6570 hc        1 BP0      0.073700
     26 H10        -2.3650   -0.6580    1.3550 hc        1 BP0      0.073700
     27 H11        -4.2960   -2.0940    6.5270 hn        1 BP0      0.408300
     28 H12        -3.9520   -0.7250    7.4130 hn        1 BP0      0.408300
     29 N27         7.2990    0.5990   -2.3620 nh        1 BP0     -0.887500
@<TRIPOS>BOND
     1    1    6 1   
     2    1   14 1   
     3    2    3 1   
     4    2    7 2   
     5    3    5 2   
     6    4    6 1   
     7    4    7 1   
     8    4   11 1   
     9    4   12 1   
    10    5    8 1   
    11    5   29 1   
    12    6   13 1   
    13    6   22 1   
    14    7    8 1   
    15    9   29 1   
    16   10   29 1   
    17   14   15 1   
    18   14   23 1   
    19   14   24 1   
    20   15   16 1   
    21   15   25 1   
    22   15   26 1   
    23   16   17 2   
    24   16   20 1   
    25   17   18 1   
    26   18   19 2   
    27   19   20 1   
    28   19   21 1   
    29   21   27 1   
    30   21   28 1   
@<TRIPOS>SUBSTRUCTURE
     1 BP0         1 TEMP              0 ****  ****    0 ROOT
