@<TRIPOS>MOLECULE
BP0
   29    29     1     0     0
SMALL
bcc


@<TRIPOS>ATOM
      1 S18        -0.9300   -1.1240   -1.4500 ss        1 BP0      0.057000
      2 N26         3.8540   -1.2090   -2.7620 n2        1 BP0     -0.031000
      3 N27         6.1470    1.6960   -1.8660 nh        1 BP0     -0.285000
      4 N28         5.2760   -0.5550   -2.5620 n2        1 BP0     -0.118000
      5 C30         1.3750   -0.4080   -2.6290 c3        1 BP0     -0.085000
      6 C31         5.0960    0.7910   -2.1660 c2        1 BP0     -0.192000
      7 C32         0.8410   -1.2040   -1.4590 c3        1 BP0     -0.267000
      8 C33         2.8700   -0.2330   -2.4780 c2        1 BP0     -0.337000
      9 S35         3.5910    1.0620   -2.0930 ss        1 BP0      0.415000
     10 H1          5.9550    2.5550   -1.6200 hn        1 BP0      0.203500
     11 H2          7.0170    1.4210   -1.9250 hn        1 BP0      0.203500
     12 H3          0.9450    0.4700   -2.6500 hc        1 BP0      0.108000
     13 H4          1.1850   -0.8850   -3.4620 hc        1 BP0      0.108000
     14 H5          1.1880   -0.8310   -0.6250 h1        1 BP0      0.127000
     15 C1         -1.5150   -1.1800    0.2230 c3        1 BP0     -0.269000
     16 C2         -2.8390   -0.4540    0.3190 c3        1 BP0     -0.075000
     17 C3         -3.0450    0.0340    1.7360 c2        1 BP0     -0.336000
     18 N1         -2.0630    0.6330    2.5590 n2        1 BP0     -0.032000
     19 N2         -2.7490    1.0790    3.9080 n2        1 BP0     -0.119000
     20 C6         -4.1190    0.7330    3.8470 c1        1 BP0     -0.191000
     21 S1         -4.3750    0.0650    2.4930 ss        1 BP0      0.418000
     22 N3         -5.1000    1.0350    4.8270 n2        1 BP0     -0.285000
     23 H6          1.1240   -2.1370   -1.5430 h1        1 BP0      0.127000
     24 H7         -1.6340   -2.1120    0.4950 h1        1 BP0      0.111500
     25 H8         -0.8640   -0.7490    0.8110 h1        1 BP0      0.111500
     26 H9         -2.8370    0.3090   -0.2920 hc        1 BP0      0.112500
     27 H10        -3.5640   -1.0640    0.0760 hc        1 BP0      0.112500
     28 H11        -4.8480    1.3850    5.6330 hn        1 BP0      0.204000
     29 H12        -5.9830    0.8780    4.6530 hn        1 BP0      0.204000
@<TRIPOS>BOND
     1    1    7 1   
     2    1   15 1   
     3    2    4 1   
     4    2    8 1   
     5    3    6 1   
     6    3   10 1   
     7    3   11 1   
     8    4    6 1   
     9    5    7 1   
    10    5    8 1   
    11    5   12 1   
    12    5   13 1   
    13    6    9 1   
    14    7   14 1   
    15    7   23 1   
    16    8    9 1   
    17   15   16 1   
    18   15   24 1   
    19   15   25 1   
    20   16   17 1   
    21   16   26 1   
    22   16   27 1   
    23   17   18 1   
    24   17   21 1   
    25   18   19 1   
    26   19   20 1   
    27   20   21 1   
    28   22   28 1   
    29   22   29 1   
@<TRIPOS>SUBSTRUCTURE
     1 BP0         1 TEMP              0 ****  ****    0 ROOT
