@<TRIPOS>MOLECULE
BP0
   31    32     1     0     0
SMALL
bcc


@<TRIPOS>ATOM
      1 S18        -0.1120    0.2160   -0.0600 ss        1 BP0     -0.243200
      2 N26         4.5810    0.7800   -0.0380 nc        1 BP0     -0.280000
      3 N28         5.7510    1.0890   -0.4410 nc        1 BP0     -0.221000
      4 C30         2.4290   -0.3310   -0.7430 c3        1 BP0     -0.124700
      5 C31         5.9830    0.7100   -1.7570 cd        1 BP0      0.231300
      6 C32         1.5880    0.6900   -0.0080 c3        1 BP0     -0.025300
      7 C33         3.8130    0.1430   -0.9920 cd        1 BP0      0.385700
      8 S35         4.6280   -0.0590   -2.4600 ss        1 BP0      0.095200
      9 H1          7.6900    0.0770   -2.6680 hn        1 BP0      0.479800
     10 H2          7.1110    1.5580   -3.2250 hn        1 BP0      0.479800
     11 H3          2.4850   -1.2810   -0.1360 hc        1 BP0      0.096700
     12 H4          1.9390   -0.5890   -1.7230 hc        1 BP0      0.096700
     13 H5          1.6520    1.6850   -0.5200 h1        1 BP0      0.095700
     14 C1         -0.4970   -0.3350    1.5720 c3        1 BP0     -0.025300
     15 C2         -1.3690    0.6890    2.2670 c3        1 BP0     -0.124700
     16 C3         -1.9700    0.1690    3.5200 cc        1 BP0      0.385700
     17 N1         -1.2620   -0.5550    4.4590 nd        1 BP0     -0.280000
     18 N2         -1.9530   -0.8910    5.4770 nd        1 BP0     -0.221000
     19 C6         -3.2670   -0.4490    5.4050 cc        1 BP0      0.231300
     20 S1         -3.5830    0.4180    3.9660 ss        1 BP0      0.095200
     21 N3         -4.2070   -0.7250    6.4660 n4        1 BP0     -0.763300
     22 H6          1.9540    0.8230    1.0400 h1        1 BP0      0.095700
     23 H7         -1.0530   -1.3000    1.4540 h1        1 BP0      0.095700
     24 H8          0.4220   -0.5430    2.1720 h1        1 BP0      0.095700
     25 H9         -0.7530    1.5990    2.5220 hc        1 BP0      0.096700
     26 H10        -2.1870    1.0230    1.5700 hc        1 BP0      0.096700
     27 H11        -4.5390    0.1590    6.8740 hn        1 BP0      0.479800
     28 H12        -5.0020   -1.2610    6.0950 hn        1 BP0      0.479800
     29 H33        -3.7530   -1.2810    7.2120 hn        1 BP0      0.479800
     30 H273        7.8880    1.4600   -1.7440 hn        1 BP0      0.479800
     31 N27         7.2530    0.9670   -2.3950 n4        1 BP0     -0.763300
@<TRIPOS>BOND
     1    1    6 1   
     2    1   14 1   
     3    2    3 1   
     4    2    7 2   
     5    3    5 2   
     6    4    6 1   
     7    4    7 1   
     8    4   11 1   
     9    4   12 1   
    10    5    8 1   
    11    5   31 1   
    12    6   13 1   
    13    6   22 1   
    14    7    8 1   
    15    9   31 1   
    16   10   31 1   
    17   14   15 1   
    18   14   23 1   
    19   14   24 1   
    20   15   16 1   
    21   15   25 1   
    22   15   26 1   
    23   16   17 2   
    24   16   20 1   
    25   17   18 1   
    26   18   19 2   
    27   19   20 1   
    28   19   21 1   
    29   21   27 1   
    30   21   28 1   
    31   21   29 1   
    32   30   31 1   
@<TRIPOS>SUBSTRUCTURE
     1 BP0         1 TEMP              0 ****  ****    0 ROOT
