@<TRIPOS>MOLECULE
BP1
   13    14     1     0     0
SMALL
bcc


@<TRIPOS>ATOM
      1 N9         -0.7810    0.0000    3.0960 nc        1 BP1     -0.618700
      2 C4          0.2560    0.0000    2.1280 ca        1 BP1      0.556300
      3 N3          1.6090    0.0000    2.2790 nb        1 BP1     -0.615000
      4 C2          2.2960    0.0000    1.1150 ca        1 BP1      0.616900
      5 N1          1.8190    0.0010   -0.1690 nb        1 BP1     -0.659000
      6 C6          0.4870    0.0010   -0.3380 ca        1 BP1      0.501500
      7 BR         -0.2330    0.0010   -2.0750 br        1 BP1     -0.134200
      8 C5         -0.3630    0.0000    0.7870 ca        1 BP1     -0.302800
      9 N7         -1.7370    0.0000    0.9930 na        1 BP1     -0.260300
     10 C8         -1.9220    0.0000    2.3870 cd        1 BP1      0.446700
     11 H2          3.4040    0.0000    1.2050 h5        1 BP1      0.066100
     12 HN7        -2.4320    0.0000    0.2940 hn        1 BP1      0.322700
     13 H8         -2.9280    0.0000    2.8300 h5        1 BP1      0.080800
@<TRIPOS>BOND
     1    1    2 1   
     2    1   10 2   
     3    2    3 ar  
     4    2    8 ar  
     5    3    4 ar  
     6    4    5 ar  
     7    4   11 1   
     8    5    6 ar  
     9    6    7 1   
    10    6    8 ar  
    11    8    9 1   
    12    9   10 1   
    13    9   12 1   
    14   10   13 1   
@<TRIPOS>SUBSTRUCTURE
     1 BP1         1 TEMP              0 ****  ****    0 ROOT
