@<TRIPOS>MOLECULE
BP1
   13     8     1     0     0
SMALL
bcc


@<TRIPOS>ATOM
      1 N9         -1.8770    0.0220    0.8600 ne        1 BP1     -0.384400
      2 C4         -0.5170    0.0220    0.8600 c1        1 BP1      0.229400
      3 N3          0.3970    0.0220    1.8710 n1        1 BP1     -0.414800
      4 C2          1.7310    0.0220    1.5870 c1        1 BP1      0.337300
      5 N1          2.1530    0.0220    0.2880 n1        1 BP1     -0.133000
      6 C6          1.2550    0.0220   -0.7100 c1        1 BP1     -0.058000
      7 BR          2.4960   -0.2630   -2.1370 br        1 BP1      0.097000
      8 C5         -0.1010    0.0220   -0.4230 c1        1 BP1     -0.127000
      9 N7         -1.2020    0.0220   -1.2210 n1        1 BP1     -0.542800
     10 C8         -2.2950    0.0220   -0.4260 cg        1 BP1      0.368800
     11 H2          2.3840    0.0220    2.3120 ha        1 BP1      0.145500
     12 HN7        -1.2030    0.0220   -2.1330 DU        1 BP1      0.241500
     13 H8         -3.2230    0.0220   -0.7270 DU        1 BP1      0.241500
@<TRIPOS>BOND
     1    1    2 2   
     2    1   10 1   
     3    2    8 2   
     4    3    4 3   
     5    4   11 1   
     6    5    6 2   
     7    6    8 2   
     8    9   10 3   
@<TRIPOS>SUBSTRUCTURE
     1 BP1         1 TEMP              0 ****  ****    0 ROOT
