@<TRIPOS>MOLECULE
BP2
   36    37     1     0     0
SMALL
bcc


@<TRIPOS>ATOM
      1 C2          0.3250    0.1160    0.0430 c3        1 BP2     -0.051000
      2 C3          1.8370    0.4760    0.3290 c3        1 BP2      0.195100
      3 C4          1.9010    0.3730    1.8890 c3        1 BP2     -0.106400
      4 C5          0.4820   -0.0480    2.3090 c3        1 BP2     -0.074700
      5 C6         -0.4170    1.1850    2.0970 c3        1 BP2     -0.066400
      6 C7         -0.5110    1.3020    0.5660 c3        1 BP2     -0.073400
      7 C8          0.0610   -0.9850    1.1310 c3        1 BP2     -0.053000
      8 C9         -1.3820   -1.4330    1.2160 c3        1 BP2     -0.087100
      9 C10         0.9480   -2.2080    0.9970 c3        1 BP2     -0.087100
     10 C11         0.0780   -0.2730   -1.3760 c3        1 BP2     -0.091100
     11 P1          3.6430    1.9470   -0.9180 p5        1 BP2      1.571800
     12 O1          4.5530    2.3680    0.1850 o         1 BP2     -0.919000
     13 O2          3.2980    2.9690   -1.9460 o         1 BP2     -0.919000
     14 O3          2.1580    1.7360   -0.1190 os        1 BP2     -0.585200
     15 O           3.9570    0.5180   -1.4900 os        1 BP2     -0.823800
     16 P2          4.2050   -1.1270   -2.0630 p5        1 BP2      1.467900
     17 O4          4.2540   -1.0400   -3.5620 o         1 BP2     -0.959167
     18 O5          5.4810   -1.5920   -1.4210 o         1 BP2     -0.959167
     19 O6          2.9560   -1.7860   -1.5130 o         1 BP2     -0.959167
     20 HC3         2.4990   -0.3080   -0.1690 h1        1 BP2      0.152700
     21 HC41        2.1940    1.3490    2.3380 hc        1 BP2      0.036200
     22 HC42        2.6480   -0.4000    2.1850 hc        1 BP2      0.036200
     23 HC5         0.4040   -0.4970    3.3180 hc        1 BP2      0.001700
     24 HC61       -1.4220    1.0410    2.5660 hc        1 BP2     -0.002300
     25 HC62        0.0410    2.0980    2.5460 hc        1 BP2     -0.002300
     26 HC71       -0.0590    2.2580    0.2020 hc        1 BP2      0.031700
     27 HC72       -1.5720    1.2460    0.2200 hc        1 BP2      0.031700
     28 HC91       -1.5250   -2.1050    2.0990 hc        1 BP2      0.026200
     29 HC92       -1.6550   -1.9990    0.2920 hc        1 BP2      0.026200
     30 HC93       -2.0910   -0.5770    1.3160 hc        1 BP2      0.026200
     31 H101        1.5310   -2.3730    1.9340 hc        1 BP2      0.026200
     32 H102        1.6760   -2.0970    0.1330 hc        1 BP2      0.026200
     33 H103        0.3370   -3.1270    0.8130 hc        1 BP2      0.026200
     34 H111        0.8230   -1.0650   -1.6760 hc        1 BP2      0.044367
     35 H112       -0.9660   -0.6510   -1.5150 hc        1 BP2      0.044367
     36 H113        0.2330    0.6130   -2.0390 hc        1 BP2      0.044367
@<TRIPOS>BOND
     1    1    2 1   
     2    1    6 1   
     3    1    7 1   
     4    1   10 1   
     5    2    3 1   
     6    2   14 1   
     7    2   20 1   
     8    3    4 1   
     9    3   21 1   
    10    3   22 1   
    11    4    5 1   
    12    4    7 1   
    13    4   23 1   
    14    5    6 1   
    15    5   24 1   
    16    5   25 1   
    17    6   26 1   
    18    6   27 1   
    19    7    8 1   
    20    7    9 1   
    21    8   28 1   
    22    8   29 1   
    23    8   30 1   
    24    9   31 1   
    25    9   32 1   
    26    9   33 1   
    27   10   34 1   
    28   10   35 1   
    29   10   36 1   
    30   11   12 1   
    31   11   13 1   
    32   11   14 1   
    33   11   15 1   
    34   15   16 1   
    35   16   17 1   
    36   16   18 1   
    37   16   19 1   
@<TRIPOS>SUBSTRUCTURE
     1 BP2         1 TEMP              0 ****  ****    0 ROOT
