@<TRIPOS>MOLECULE
BP2
   36    37     1     0     0
SMALL
bcc


@<TRIPOS>ATOM
      1 C2          0.3450    0.1550    0.0190 c3        1 BP2     -0.051000
      2 C3          1.8600    0.4450    0.3650 c3        1 BP2      0.195100
      3 C4          1.8640    0.3100    1.9230 c3        1 BP2     -0.106400
      4 C5          0.4150   -0.0570    2.2850 c3        1 BP2     -0.074700
      5 C6         -0.4240    1.2170    2.0670 c3        1 BP2     -0.066400
      6 C7         -0.4590    1.3670    0.5370 c3        1 BP2     -0.073400
      7 C8         -0.0030   -0.9530    1.0750 c3        1 BP2     -0.053000
      8 C9         -1.4660   -1.3410    1.1020 c3        1 BP2     -0.087100
      9 C10         0.8350   -2.2100    0.9480 c3        1 BP2     -0.087100
     10 C11         0.1330   -0.1960   -1.4150 c3        1 BP2     -0.091100
     11 P1          3.7690    1.8600   -0.7880 p5        1 BP2      1.571800
     12 O1          4.6560    2.2220    0.3530 o         1 BP2     -0.919000
     13 O2          3.5050    2.9150   -1.8070 o         1 BP2     -0.919000
     14 O3          2.2490    1.6980   -0.0470 os        1 BP2     -0.585200
     15 O           4.0430    0.4300   -1.3780 os        1 BP2     -0.823800
     16 P2          4.2420   -1.2140   -1.9750 p5        1 BP2      1.467900
     17 O4          4.3480   -1.1010   -3.4690 o         1 BP2     -0.959167
     18 O5          5.4730   -1.7440   -1.2980 o         1 BP2     -0.959167
     19 O6          2.9480   -1.8290   -1.4810 o         1 BP2     -0.959167
     20 HC3         2.5060   -0.3570   -0.1240 h1        1 BP2      0.152700
     21 HC41        2.1810    1.2650    2.4020 hc        1 BP2      0.036200
     22 HC42        2.5670   -0.4990    2.2310 hc        1 BP2      0.036200
     23 HC5         0.2810   -0.5210    3.2820 hc        1 BP2      0.001700
     24 HC61       -1.4500    1.1070    2.4980 hc        1 BP2     -0.002300
     25 HC62        0.0560    2.1010    2.5500 hc        1 BP2     -0.002300
     26 HC71        0.0460    2.3080    0.2070 hc        1 BP2      0.031700
     27 HC72       -1.5070    1.3620    0.1530 hc        1 BP2      0.031700
     28 HC91       -1.6690   -2.0220    1.9650 hc        1 BP2      0.026200
     29 HC92       -1.7300   -1.8770    0.1570 hc        1 BP2      0.026200
     30 HC93       -2.1410   -0.4580    1.1940 hc        1 BP2      0.026200
     31 H101        1.5980   -2.1140    0.1130 hc        1 BP2      0.026200
     32 H102        0.1940   -3.0990    0.7250 hc        1 BP2      0.026200
     33 H103        1.3770   -2.4170    1.9020 hc        1 BP2      0.026200
     34 H111        0.8540   -1.0140   -1.7040 hc        1 BP2      0.044367
     35 H112       -0.9210   -0.5280   -1.5980 hc        1 BP2      0.044367
     36 H113        0.3480    0.6940   -2.0540 hc        1 BP2      0.044367
@<TRIPOS>BOND
     1    1    2 1   
     2    1    6 1   
     3    1    7 1   
     4    1   10 1   
     5    2    3 1   
     6    2   14 1   
     7    2   20 1   
     8    3    4 1   
     9    3   21 1   
    10    3   22 1   
    11    4    5 1   
    12    4    7 1   
    13    4   23 1   
    14    5    6 1   
    15    5   24 1   
    16    5   25 1   
    17    6   26 1   
    18    6   27 1   
    19    7    8 1   
    20    7    9 1   
    21    8   28 1   
    22    8   29 1   
    23    8   30 1   
    24    9   31 1   
    25    9   32 1   
    26    9   33 1   
    27   10   34 1   
    28   10   35 1   
    29   10   36 1   
    30   11   12 1   
    31   11   13 1   
    32   11   14 1   
    33   11   15 1   
    34   15   16 1   
    35   16   17 1   
    36   16   18 1   
    37   16   19 1   
@<TRIPOS>SUBSTRUCTURE
     1 BP2         1 TEMP              0 ****  ****    0 ROOT
