@<TRIPOS>MOLECULE
BP2
   36    37     1     0     0
SMALL
bcc


@<TRIPOS>ATOM
      1 C2          1.2130   -2.7290   -1.1940 c3        1 BP2     -0.051000
      2 C3          2.6140   -2.6650   -0.4650 c3        1 BP2      0.195100
      3 C4          2.2250   -2.0480    0.9200 c3        1 BP2     -0.106400
      4 C5          0.7010   -1.8600    0.8480 c3        1 BP2     -0.074700
      5 C6          0.4520   -0.6860   -0.1180 c3        1 BP2     -0.066400
      6 C7          0.8120   -1.2700   -1.4940 c3        1 BP2     -0.073400
      7 C8          0.2620   -3.0980    0.0000 c3        1 BP2     -0.053000
      8 C9         -1.2090   -3.0820   -0.3550 c3        1 BP2     -0.087100
      9 C10         0.5920   -4.4210    0.6640 c3        1 BP2     -0.087100
     10 C11         1.2070   -3.6550   -2.3640 c3        1 BP2     -0.091100
     11 P1          5.1090   -2.4370   -1.2980 p5        1 BP2      1.571800
     12 O1          5.7930   -1.7950   -0.1410 o         1 BP2     -0.919000
     13 O2          5.4770   -1.9580   -2.6600 o         1 BP2     -0.919000
     14 O3          3.5110   -1.8800   -1.1480 os        1 BP2     -0.585200
     15 O           4.9670   -3.9960   -1.1670 os        1 BP2     -0.823800
     16 P2          4.6810   -5.7240   -0.9880 p5        1 BP2      1.467900
     17 O4          5.1460   -6.3540   -2.2680 o         1 BP2     -0.959167
     18 O5          5.4530   -6.1380    0.2320 o         1 BP2     -0.959167
     19 O6          3.1770   -5.7200   -0.7990 o         1 BP2     -0.959167
     20 HC3         3.0130   -3.7270   -0.3500 h1        1 BP2      0.152700
     21 HC41        2.7550   -1.0810    1.0830 hc        1 BP2      0.036200
     22 HC42        2.5000   -2.7540    1.7380 hc        1 BP2      0.036200
     23 HC5         0.1920   -1.7560    1.8260 hc        1 BP2      0.001700
     24 HC61        1.1020    0.1860    0.1350 hc        1 BP2     -0.002300
     25 HC62       -0.6110   -0.3420   -0.0760 hc        1 BP2     -0.002300
     26 HC71       -0.0550   -1.2150   -2.1970 hc        1 BP2      0.031700
     27 HC72        1.6830   -0.7370   -1.9490 hc        1 BP2      0.031700
     28 HC91       -1.5190   -2.1320   -0.8500 hc        1 BP2      0.026200
     29 HC92       -1.4350   -3.9240   -1.0550 hc        1 BP2      0.026200
     30 HC93       -1.8300   -3.2100    0.5660 hc        1 BP2      0.026200
     31 H101        0.7980   -4.2720    1.7510 hc        1 BP2      0.026200
     32 H102       -0.2630   -5.1370    0.5780 hc        1 BP2      0.026200
     33 H103        1.5010   -4.9060    0.1880 hc        1 BP2      0.026200
     34 H111        0.1730   -3.7830   -2.7730 hc        1 BP2      0.044367
     35 H112        1.8660   -3.2450   -3.1670 hc        1 BP2      0.044367
     36 H113        1.6270   -4.6520   -2.0450 hc        1 BP2      0.044367
@<TRIPOS>BOND
     1    1    2 1   
     2    1    6 1   
     3    1    7 1   
     4    1   10 1   
     5    2    3 1   
     6    2   14 1   
     7    2   20 1   
     8    3    4 1   
     9    3   21 1   
    10    3   22 1   
    11    4    5 1   
    12    4    7 1   
    13    4   23 1   
    14    5    6 1   
    15    5   24 1   
    16    5   25 1   
    17    6   26 1   
    18    6   27 1   
    19    7    8 1   
    20    7    9 1   
    21    8   28 1   
    22    8   29 1   
    23    8   30 1   
    24    9   31 1   
    25    9   32 1   
    26    9   33 1   
    27   10   34 1   
    28   10   35 1   
    29   10   36 1   
    30   11   12 1   
    31   11   13 1   
    32   11   14 1   
    33   11   15 1   
    34   15   16 1   
    35   16   17 1   
    36   16   18 1   
    37   16   19 1   
@<TRIPOS>SUBSTRUCTURE
     1 BP2         1 TEMP              0 ****  ****    0 ROOT
