@<TRIPOS>MOLECULE
BP2
   36    36     1     0     0
SMALL
bcc


@<TRIPOS>ATOM
      1 C2         -1.0750   -0.1750   -0.2070 c3        1 BP2     -0.077000
      2 C3          0.3250   -0.1750   -0.2070 c3        1 BP2      0.259100
      3 C4          0.7900   -0.1750    1.1860 c3        1 BP2     -0.108400
      4 C5         -0.3500   -0.1670    2.0420 c3        1 BP2     -0.069700
      5 C6         -1.2450    0.8750    1.8340 c3        1 BP2     -0.068400
      6 C7         -1.6850    0.8440    0.4070 c3        1 BP2     -0.066400
      7 C8         -1.1540   -1.1840    1.1970 c3        1 BP2     -0.075000
      8 C9         -2.5760   -1.3630    1.7030 c3        1 BP2     -0.065600
      9 C10        -0.4150   -2.4950    1.0110 c3        1 BP2     -0.065600
     10 C11        -1.2640   -0.3420   -0.5280 c3        1 BP2     -0.089100
     11 P1          2.0790    0.9080   -1.8740 p4        1 BP2      1.945100
     12 O1          1.7410   -0.0390   -2.9990 o         1 BP2     -0.977300
     13 O2          3.2590    0.3700   -1.1020 os        1 BP2     -1.248000
     14 O3          0.8260    1.0460   -0.9010 os        1 BP2     -0.547200
     15 O           2.4460    2.3350   -2.4760 os        1 BP2     -0.797800
     16 P2          3.6550    2.5840   -3.4810 p5        1 BP2      1.457900
     17 O4          3.6180    4.0140   -3.9700 o         1 BP2     -0.957167
     18 O5          4.9630    2.3300   -2.7680 o         1 BP2     -0.957167
     19 O6          3.5320    1.6460   -4.6580 o         1 BP2     -0.957167
     20 HC3         0.6550   -0.9720   -0.6640 h1        1 BP2      0.051700
     21 HC41        1.3220   -0.9760    1.3550 hc        1 BP2      0.037700
     22 HC42        1.3310    0.6200    1.3520 hc        1 BP2      0.037700
     23 HC5        -0.2050   -0.4430    2.9670 hc        1 BP2      0.006700
     24 HC61       -2.0190    0.7650    2.4190 hc        1 BP2      0.012700
     25 HC62       -0.8080    1.7270    2.0250 hc        1 BP2      0.012700
     26 HC71       -1.4410    1.6830   -0.0290 hc        1 BP2      0.052200
     27 HC72       -2.6520    0.7210    0.3650 hc        1 BP2      0.052200
     28 HC91       -3.0520   -0.5130    1.6460 hc        1 BP2      0.013533
     29 HC92       -3.0340   -2.0300    1.1570 hc        1 BP2      0.013533
     30 HC93       -2.5550   -1.6630    2.6320 hc        1 BP2      0.013533
     31 H101       -0.2860   -2.9220    1.8790 hc        1 BP2      0.013533
     32 H102        0.4540   -2.3240    0.6010 hc        1 BP2      0.013533
     33 H103       -0.9370   -3.0840    0.4330 hc        1 BP2      0.013533
     34 H111       -0.8160   -1.1740   -0.7720 hc        1 BP2      0.040367
     35 H112       -1.2330    0.2780   -1.2810 hc        1 BP2      0.040367
     36 H113       -2.1940   -0.5290   -0.2980 hc        1 BP2      0.040367
@<TRIPOS>BOND
     1    1    2 1   
     2    1    6 1   
     3    1    7 1   
     4    1   10 1   
     5    2    3 1   
     6    2   14 1   
     7    2   20 1   
     8    3    4 1   
     9    3   21 1   
    10    3   22 1   
    11    4    5 1   
    12    4    7 1   
    13    4   23 1   
    14    5    6 1   
    15    5   24 1   
    16    5   25 1   
    17    6   26 1   
    18    6   27 1   
    19    7    8 1   
    20    7    9 1   
    21    8   28 1   
    22    8   29 1   
    23    8   30 1   
    24    9   31 1   
    25    9   32 1   
    26    9   33 1   
    27   10   34 1   
    28   10   35 1   
    29   10   36 1   
    30   11   12 2   
    31   11   14 1   
    32   11   15 1   
    33   15   16 1   
    34   16   17 1   
    35   16   18 1   
    36   16   19 1   
@<TRIPOS>SUBSTRUCTURE
     1 BP2         1 TEMP              0 ****  ****    0 ROOT
