@<TRIPOS>MOLECULE
BP3
   24    25     1     0     0
SMALL
bcc


@<TRIPOS>ATOM
      1 CA1         0.0340   -0.0610   -0.0650 cp        1 BP3     -0.044000
      2 CA2         1.2950    0.5620    0.0050 ca        1 BP3      0.127100
      3 OA2         1.8030    1.1470   -1.1290 oh        1 BP3     -0.490100
      4 CA3         1.9940    0.5900    1.2330 ca        1 BP3      0.035100
      5 OA3         3.2250    1.2170    1.2090 oh        1 BP3     -0.519100
      6 CA4         1.4460    0.0190    2.3820 ca        1 BP3     -0.163000
      7 CA5         0.1900   -0.5810    2.3080 ca        1 BP3     -0.132000
      8 CA6        -0.5050   -0.6190    1.1030 ca        1 BP3     -0.105000
      9 CB1        -0.7180   -0.1020   -1.3200 cp        1 BP3     -0.019000
     10 CB2        -1.1860   -1.3020   -1.8810 ca        1 BP3      0.029400
     11 CB3        -1.9300   -1.2910   -3.0670 ca        1 BP3     -0.131000
     12 CB4        -2.2060   -0.0850   -3.7040 ca        1 BP3     -0.119000
     13 CB5        -1.7330    1.1120   -3.1670 ca        1 BP3     -0.133000
     14 CB6        -0.9920    1.1020   -1.9880 ca        1 BP3     -0.093000
     15 Cl1        -0.8520   -2.8090   -1.1630 cl        1 BP3     -0.095400
     16 HA2         2.7210    1.4040   -0.9490 ho        1 BP3      0.438000
     17 HA3         3.6450    1.0760    2.0690 ho        1 BP3      0.429000
     18 HA4         2.0000    0.0460    3.3310 ha        1 BP3      0.136000
     19 HA5        -0.2530   -1.0280    3.2110 ha        1 BP3      0.138000
     20 HA6        -1.4950   -1.0980    1.0580 ha        1 BP3      0.146000
     21 HB3        -2.2910   -2.2370   -3.4980 ha        1 BP3      0.146000
     22 HB4        -2.7930   -0.0790   -4.6350 ha        1 BP3      0.136000
     23 HB5        -1.9400    2.0660   -3.6750 ha        1 BP3      0.136000
     24 HB6        -0.5950    2.0410   -1.5730 ha        1 BP3      0.148000
@<TRIPOS>BOND
     1    1    2 ar  
     2    1    8 ar  
     3    1    9 1   
     4    2    3 1   
     5    2    4 ar  
     6    3   16 1   
     7    4    5 1   
     8    4    6 ar  
     9    5   17 1   
    10    6    7 ar  
    11    6   18 1   
    12    7    8 ar  
    13    7   19 1   
    14    8   20 1   
    15    9   10 ar  
    16    9   14 ar  
    17   10   11 ar  
    18   10   15 1   
    19   11   12 ar  
    20   11   21 1   
    21   12   13 ar  
    22   12   22 1   
    23   13   14 ar  
    24   13   23 1   
    25   14   24 1   
@<TRIPOS>SUBSTRUCTURE
     1 BP3         1 TEMP              0 ****  ****    0 ROOT
