@<TRIPOS>MOLECULE
BP3
   24    25     1     0     0
SMALL
bcc


@<TRIPOS>ATOM
      1 CA1        -0.6640   -0.1490    0.4970 cp        1 BP3     -0.082000
      2 CA2         0.1480    0.5470    1.4060 ca        1 BP3      0.065100
      3 OA2         1.0980    1.4780    1.0430 oh        1 BP3     -0.515100
      4 CA3         0.0040    0.3360    2.7960 ca        1 BP3      0.107100
      5 OA3         0.7680    1.0000    3.7260 oh        1 BP3     -0.495100
      6 CA4        -0.9510   -0.5690    3.2730 ca        1 BP3     -0.129000
      7 CA5        -1.7530   -1.2560    2.3640 ca        1 BP3     -0.129000
      8 CA6        -1.6150   -1.0510    0.9950 ca        1 BP3     -0.115000
      9 CB1        -0.5550    0.0620   -0.9490 cp        1 BP3     -0.043000
     10 CB2         0.5260   -0.4260   -1.7010 ca        1 BP3      0.014400
     11 CB3         0.5820   -0.2210   -3.0840 ca        1 BP3     -0.127000
     12 CB4        -0.4410    0.4740   -3.7240 ca        1 BP3     -0.116000
     13 CB5        -1.5220    0.9620   -2.9890 ca        1 BP3     -0.130000
     14 CB6        -1.5780    0.7550   -1.6130 ca        1 BP3     -0.103000
     15 CL1         1.7890   -1.2880   -0.9570 cl        1 BP3     -0.083400
     16 HA2         1.2620    1.3820    0.0930 ho        1 BP3      0.437000
     17 HA3         1.4130    1.5460    3.2510 ho        1 BP3      0.438000
     18 HA4        -1.0510   -0.7240    4.3570 ha        1 BP3      0.153000
     19 HA5        -2.5030   -1.9700    2.7370 ha        1 BP3      0.138000
     20 HA6        -2.2540   -1.6010    0.2880 ha        1 BP3      0.140000
     21 HB3         1.4320   -0.6110   -3.6650 ha        1 BP3      0.150000
     22 HB4        -0.3950    0.6350   -4.8120 ha        1 BP3      0.140000
     23 HB5        -2.3310    1.5090   -3.4950 ha        1 BP3      0.140000
     24 HB6        -2.4320    1.1370   -1.0310 ha        1 BP3      0.147000
@<TRIPOS>BOND
     1    1    2 ar  
     2    1    8 ar  
     3    1    9 1   
     4    2    3 1   
     5    2    4 ar  
     6    3   16 1   
     7    4    5 1   
     8    4    6 ar  
     9    5   17 1   
    10    6    7 ar  
    11    6   18 1   
    12    7    8 ar  
    13    7   19 1   
    14    8   20 1   
    15    9   10 ar  
    16    9   14 ar  
    17   10   11 ar  
    18   10   15 1   
    19   11   12 ar  
    20   11   21 1   
    21   12   13 ar  
    22   12   22 1   
    23   13   14 ar  
    24   13   23 1   
    25   14   24 1   
@<TRIPOS>SUBSTRUCTURE
     1 BP3         1 TEMP              0 ****  ****    0 ROOT
