@<TRIPOS>MOLECULE
BP3
   24    25     1     0     0
SMALL
bcc


@<TRIPOS>ATOM
      1 CA1         0.0400   -0.0660   -0.0670 cp        1 BP3     -0.044000
      2 CA2         1.3010    0.5580   -0.0050 ca        1 BP3      0.127100
      3 OA2         1.7960    1.1540   -1.1400 oh        1 BP3     -0.490100
      4 CA3         2.0140    0.5760    1.2160 ca        1 BP3      0.035100
      5 OA3         3.2440    1.2040    1.1830 oh        1 BP3     -0.519100
      6 CA4         1.4780   -0.0050    2.3650 ca        1 BP3     -0.163000
      7 CA5         0.2220   -0.6060    2.3000 ca        1 BP3     -0.132000
      8 CA6        -0.4860   -0.6350    1.1030 ca        1 BP3     -0.105000
      9 CB1        -0.7260   -0.0960   -1.3140 cp        1 BP3     -0.019000
     10 CB2        -1.1990   -1.2910   -1.8810 ca        1 BP3      0.029400
     11 CB3        -1.9560   -1.2710   -3.0580 ca        1 BP3     -0.131000
     12 CB4        -2.2400   -0.0590   -3.6820 ca        1 BP3     -0.119000
     13 CB5        -1.7620    1.1330   -3.1390 ca        1 BP3     -0.133000
     14 CB6        -1.0090    1.1130   -1.9690 ca        1 BP3     -0.093000
     15 CL1        -0.8560   -2.8050   -1.1790 cl        1 BP3     -0.095400
     16 HA2         2.7160    1.4090   -0.9670 ho        1 BP3      0.438000
     17 HA3         3.6720    1.0560    2.0380 ho        1 BP3      0.429000
     18 HA4         2.0420    0.0140    3.3090 ha        1 BP3      0.136000
     19 HA5        -0.2110   -1.0610    3.2030 ha        1 BP3      0.138000
     20 HA6        -1.4760   -1.1140    1.0640 ha        1 BP3      0.146000
     21 HB3        -2.3210   -2.2140   -3.4930 ha        1 BP3      0.146000
     22 HB4        -2.8370   -0.0460   -4.6050 ha        1 BP3      0.136000
     23 HB5        -1.9760    2.0910   -3.6360 ha        1 BP3      0.136000
     24 HB6        -0.6070    2.0490   -1.5490 ha        1 BP3      0.148000
@<TRIPOS>BOND
     1    1    2 ar  
     2    1    8 ar  
     3    1    9 1   
     4    2    3 1   
     5    2    4 ar  
     6    3   16 1   
     7    4    5 1   
     8    4    6 ar  
     9    5   17 1   
    10    6    7 ar  
    11    6   18 1   
    12    7    8 ar  
    13    7   19 1   
    14    8   20 1   
    15    9   10 ar  
    16    9   14 ar  
    17   10   11 ar  
    18   10   15 1   
    19   11   12 ar  
    20   11   21 1   
    21   12   13 ar  
    22   12   22 1   
    23   13   14 ar  
    24   13   23 1   
    25   14   24 1   
@<TRIPOS>SUBSTRUCTURE
     1 BP3         1 TEMP              0 ****  ****    0 ROOT
