@<TRIPOS>MOLECULE
BP3
   24    18     1     0     0
SMALL
bcc


@<TRIPOS>ATOM
      1 CA1         0.0090    0.0600    0.5420 c1        1 BP3     -0.044000
      2 CA2         1.3920    0.1590    0.5610 c1        1 BP3      0.082000
      3 OA2         2.1020    0.3240   -0.6420 oh        1 BP3     -0.244000
      4 CA3         2.0710    0.1380    1.7690 c1        1 BP3     -0.010000
      5 OA3         3.4740    0.2450    1.7890 o         1 BP3     -0.273000
      6 CA4         1.3680    0.0190    2.9580 c2        1 BP3     -0.163000
      7 CA5        -0.0140   -0.0800    2.9390 c1        1 BP3     -0.132000
      8 CA6        -0.6940   -0.0590    1.7310 c1        1 BP3     -0.105000
      9 CB1        -0.6700    0.0750   -0.6660 c1        1 BP3     -0.019000
     10 CB2        -0.9320   -1.1140   -1.3280 c1        1 BP3     -0.049000
     11 CB3        -1.6220   -1.1000   -2.5300 c1        1 BP3     -0.119000
     12 CB4        -2.0500    0.1030   -3.0700 c1        1 BP3     -0.119000
     13 CB5        -1.7880    1.2920   -2.4070 c1        1 BP3     -0.119000
     14 CB6        -1.0980    1.2780   -1.2060 c1        1 BP3     -0.119000
     15 CL1        -0.3540   -2.6220   -0.6720 cl        1 BP3     -0.017000
     16 HA2         2.6610   -0.3590   -0.7520 ho        1 BP3      0.237000
     17 HA3         3.8230   -0.5010    2.1230 ho        1 BP3      0.228000
     18 HA4         1.8460    0.0040    3.8080 ha        1 BP3      0.136000
     19 HA5        -0.5090   -0.1650    3.7760 ha        1 BP3      0.138000
     20 HA6        -1.6670   -0.1290    1.7170 ha        1 BP3      0.146000
     21 HB3        -1.8070   -1.9370   -2.9960 ha        1 BP3      0.141500
     22 HB4        -2.5360    0.1130   -3.9160 ha        1 BP3      0.141500
     23 HB5        -2.0890    2.1390   -2.7880 ha        1 BP3      0.141500
     24 HB6        -0.9130    2.1160   -0.7390 ha        1 BP3      0.141500
@<TRIPOS>BOND
     1    1    8 1   
     2    2    3 1   
     3    2    4 1   
     4    3   16 1   
     5    4    6 1   
     6    5   17 1   
     7    6    7 1   
     8    6   18 1   
     9    7   19 1   
    10    8   20 1   
    11    9   10 1   
    12   10   15 1   
    13   11   12 1   
    14   11   21 1   
    15   12   22 1   
    16   13   14 1   
    17   13   23 1   
    18   14   24 1   
@<TRIPOS>SUBSTRUCTURE
     1 BP3         1 TEMP              0 ****  ****    0 ROOT
