@<TRIPOS>MOLECULE
BP4
   27    28     1     0     0
SMALL
bcc


@<TRIPOS>ATOM
      1 CA          0.1450   -0.1570    0.0430 c3        1 BP4     -0.181100
      2 C           1.6410    0.2240   -0.0830 c         1 BP4      0.919600
      3 O           1.9830    1.4040    0.2130 o         1 BP4     -0.838300
      4 C2         -1.3710   -0.0850    4.0670 cp        1 BP4     -0.097000
      5 C3         -0.5750    0.9650    3.5820 ca        1 BP4     -0.122000
      6 C4         -0.0720    0.9330    2.2880 ca        1 BP4     -0.144500
      7 C5         -0.3560   -0.1470    1.4360 ca        1 BP4      0.000700
      8 C6         -1.1390   -1.2000    1.9260 ca        1 BP4     -0.144500
      9 C1         -1.6400   -1.1720    3.2250 ca        1 BP4     -0.122000
     10 C11        -2.9400    0.0290    8.0360 ca        1 BP4     -0.152000
     11 C18        -1.9800   -1.2150    6.1990 ca        1 BP4     -0.131000
     12 C20        -1.9060   -0.0460    5.4250 cp        1 BP4      0.006000
     13 C23        -2.4930   -1.1750    7.4930 ca        1 BP4     -0.135000
     14 C25        -2.3570    1.1610    5.9810 ca        1 BP4     -0.131000
     15 C26        -2.8700    1.1960    7.2760 ca        1 BP4     -0.135000
     16 HA1        -0.4350    0.5970   -0.5530 hc        1 BP4      0.039700
     17 HA2        -0.0070   -1.1640   -0.4220 hc        1 BP4      0.039700
     18 O2          2.4290   -0.6610   -0.5150 o         1 BP4     -0.838300
     19 H6         -1.3550   -2.0630    1.2790 ha        1 BP4      0.156000
     20 H1         -2.2590   -2.0040    3.5900 ha        1 BP4      0.113500
     21 H11        -3.3440    0.0590    9.0570 ha        1 BP4      0.117000
     22 H18        -1.6180   -2.1660    5.7790 ha        1 BP4      0.135500
     23 H23        -2.5420   -2.0980    8.0900 ha        1 BP4      0.119000
     24 H25        -2.3070    2.0830    5.3830 ha        1 BP4      0.135500
     25 H26        -3.2200    2.1480    7.6990 ha        1 BP4      0.119000
     26 H3         -0.3340    1.8130    4.2400 ha        1 BP4      0.113500
     27 H4          0.5900    1.7340    1.9040 ha        1 BP4      0.156000
@<TRIPOS>BOND
     1    1    2 1   
     2    1    7 1   
     3    1   16 1   
     4    1   17 1   
     5    2    3 1   
     6    2   18 1   
     7    4    5 ar  
     8    4    9 ar  
     9    4   12 1   
    10    5    6 ar  
    11    5   26 1   
    12    6    7 ar  
    13    6   27 1   
    14    7    8 ar  
    15    8    9 ar  
    16    8   19 1   
    17    9   20 1   
    18   10   13 ar  
    19   10   15 ar  
    20   10   21 1   
    21   11   12 ar  
    22   11   13 ar  
    23   11   22 1   
    24   12   14 ar  
    25   13   23 1   
    26   14   15 ar  
    27   14   24 1   
    28   15   25 1   
@<TRIPOS>SUBSTRUCTURE
     1 BP4         1 TEMP              0 ****  ****    0 ROOT
