@<TRIPOS>MOLECULE
BP4
   27    28     1     0     0
SMALL
bcc


@<TRIPOS>ATOM
      1 CA         -3.3830   -0.0640   -0.8990 c3        1 BP4     -0.181100
      2 C          -4.2230    0.3580    0.3320 c         1 BP4      0.919600
      3 O          -4.1130    1.5460    0.7500 o         1 BP4     -0.838300
      4 C2          0.8660   -0.0550   -0.2330 cp        1 BP4     -0.097000
      5 C3          0.2460   -1.1450   -0.8590 ca        1 BP4     -0.122000
      6 C4         -1.1310   -1.1530   -1.0640 ca        1 BP4     -0.144500
      7 C5         -1.9250   -0.0760   -0.6470 ca        1 BP4      0.000700
      8 C6         -1.3040    1.0080   -0.0030 ca        1 BP4     -0.144500
      9 C1          0.0700    1.0180    0.1980 ca        1 BP4     -0.122000
     10 C11         5.0930   -0.0060    0.3600 ca        1 BP4     -0.152000
     11 C18         3.0390    1.1530   -0.1720 ca        1 BP4     -0.131000
     12 C20         2.3110   -0.0390   -0.0280 cp        1 BP4      0.006000
     13 C23         4.4190    1.1670    0.0210 ca        1 BP4     -0.135000
     14 C25         3.0000   -1.2130    0.3150 ca        1 BP4     -0.131000
     15 C26         4.3790   -1.1940    0.5070 ca        1 BP4     -0.135000
     16 HA1        -3.7310   -1.0730   -1.2390 hc        1 BP4      0.039700
     17 HA2        -3.6010    0.6760   -1.7130 hc        1 BP4      0.039700
     18 O2         -5.0040   -0.5030    0.8220 o         1 BP4     -0.838300
     19 H6         -1.9490    1.8290    0.3660 ha        1 BP4      0.156000
     20 H1          0.5390    1.8690    0.7140 ha        1 BP4      0.113500
     21 H11         6.1810    0.0070    0.5120 ha        1 BP4      0.117000
     22 H18         2.5110    2.0790   -0.4440 ha        1 BP4      0.135500
     23 H23         4.9770    2.1070   -0.0960 ha        1 BP4      0.119000
     24 H25         2.4390   -2.1510    0.4420 ha        1 BP4      0.135500
     25 H26         4.9050   -2.1210    0.7780 ha        1 BP4      0.119000
     26 H3          0.8540   -1.9960   -1.1990 ha        1 BP4      0.113500
     27 H4         -1.6030   -2.0170   -1.5520 ha        1 BP4      0.156000
@<TRIPOS>BOND
     1    1    2 1   
     2    1    7 1   
     3    1   16 1   
     4    1   17 1   
     5    2    3 1   
     6    2   18 1   
     7    4    5 ar  
     8    4    9 ar  
     9    4   12 1   
    10    5    6 ar  
    11    5   26 1   
    12    6    7 ar  
    13    6   27 1   
    14    7    8 ar  
    15    8    9 ar  
    16    8   19 1   
    17    9   20 1   
    18   10   13 ar  
    19   10   15 ar  
    20   10   21 1   
    21   11   12 ar  
    22   11   13 ar  
    23   11   22 1   
    24   12   14 ar  
    25   13   23 1   
    26   14   15 ar  
    27   14   24 1   
    28   15   25 1   
@<TRIPOS>SUBSTRUCTURE
     1 BP4         1 TEMP              0 ****  ****    0 ROOT
