@<TRIPOS>MOLECULE
BP4
   27    21     1     0     0
SMALL
bcc


@<TRIPOS>ATOM
      1 CA          1.2200    0.1680   -3.7340 c3        1 BP4     -0.217000
      2 C           2.7000   -0.1300   -3.8080 c2        1 BP4      0.339000
      3 O           3.5070    0.7680   -4.1650 o         1 BP4     -0.573000
      4 C2         -0.2050    0.0000    0.3030 c1        1 BP4     -0.045500
      5 C3          0.2900    1.1890   -0.2090 c1        1 BP4     -0.139333
      6 C4          0.7730    1.2380   -1.5070 c1        1 BP4     -0.139333
      7 C5          0.7630    0.0970   -2.2930 c1        1 BP4      0.008000
      8 C6          0.2680   -1.0930   -1.7820 c1        1 BP4     -0.129000
      9 C1         -0.2160   -1.1410   -0.4840 c1        1 BP4     -0.126000
     10 C11        -1.8360   -0.0700    4.1270 c1        1 BP4     -0.139333
     11 C18         0.0690   -0.2390    2.6760 c1        1 BP4     -0.139333
     12 C20        -0.7500   -0.0320    1.5770 c1        1 BP4     -0.045500
     13 C23        -0.4740   -0.2580    3.9510 c1        1 BP4     -0.139333
     14 C25        -2.1120    0.1560    1.7530 c1        1 BP4     -0.126000
     15 C26        -2.6550    0.1370    3.0280 c1        1 BP4     -0.139333
     16 HA1         0.7280   -0.4890   -4.2660 hc        1 BP4      0.079000
     17 HA2         1.0510    1.0650   -4.0860 hc        1 BP4      0.079000
     18 O2          3.1230   -1.2870   -3.5460 o         1 BP4     -0.573000
     19 H3          0.3110    1.9890    0.3500 ha        1 BP4      0.120333
     20 H4          1.1220    2.0760   -1.8670 ha        1 BP4      0.120333
     21 H6          0.2600   -1.8960   -2.3360 ha        1 BP4      0.190000
     22 H1         -0.5510   -1.9820   -0.1200 ha        1 BP4      0.126500
     23 H11        -2.2210   -0.1020    5.0240 ha        1 BP4      0.120333
     24 H18         1.0280   -0.3720    2.5520 ha        1 BP4      0.120333
     25 H23         0.1060   -0.3840    4.7260 ha        1 BP4      0.120333
     26 H25        -2.6850    0.3220    0.9810 ha        1 BP4      0.126500
     27 H26        -3.6140    0.2700    3.1520 ha        1 BP4      0.120333
@<TRIPOS>BOND
     1    1    2 1   
     2    1    7 1   
     3    1   16 1   
     4    1   17 1   
     5    2    3 1   
     6    2   18 1   
     7    4    9 1   
     8    5    6 1   
     9    5   19 1   
    10    6   20 1   
    11    7    8 1   
    12    8   21 1   
    13    9   22 1   
    14   10   15 1   
    15   10   23 1   
    16   11   13 1   
    17   11   24 1   
    18   12   14 1   
    19   13   25 1   
    20   14   26 1   
    21   15   27 1   
@<TRIPOS>SUBSTRUCTURE
     1 BP4         1 TEMP              0 ****  ****    0 ROOT
