@<TRIPOS>MOLECULE
BP5
   30    31     1     0     0
SMALL
bcc


@<TRIPOS>ATOM
      1 C9         -1.0980    0.0370    0.6570 ca        1 BP5     -0.128600
      2 C8         -0.4180    1.2360    0.4250 ca        1 BP5     -0.098000
      3 C7          0.9670    1.2190    0.2510 ca        1 BP5     -0.206300
      4 C6          1.6470   -0.0140    0.3090 cp        1 BP5      0.301300
      5 C5          5.8480   -0.1200   -0.3000 ca        1 BP5     -0.261300
      6 C4          5.2050    0.8840    0.4460 ca        1 BP5      0.388200
      7 C3          3.1190   -0.0510    0.1060 cp        1 BP5      0.380300
      8 C2          3.6820   -1.1010   -0.6590 ca        1 BP5     -0.214300
      9 C1          5.0610   -1.1270   -0.8590 ca        1 BP5     -0.105000
     10 C12        -2.5670   -0.0130    0.8580 c3        1 BP5     -0.035100
     11 C11        -0.3240   -1.1490    0.6990 ca        1 BP5      0.379200
     12 N1          3.8780    0.9330    0.6550 nb        1 BP5     -0.664000
     13 N2          1.0050   -1.1920    0.5330 nb        1 BP5     -0.672000
     14 C13        -3.3520    0.0870   -0.4560 c3        1 BP5      0.020500
     15 C14        -4.8170   -0.3970   -0.1780 c         1 BP5      0.888600
     16 O1         -4.9600   -1.5040    0.4090 o         1 BP5     -0.838300
     17 O2         -5.7650    0.3380   -0.5740 o         1 BP5     -0.838300
     18 N          -3.2600    1.4040   -1.0720 n3        1 BP5     -0.890800
     19 H8         -0.9780    2.1810    0.3620 ha        1 BP5      0.151000
     20 H7          1.5170    2.1520    0.0690 ha        1 BP5      0.142000
     21 H2          3.0360   -1.8830   -1.0810 ha        1 BP5      0.161000
     22 H1          5.5210   -1.9330   -1.4480 ha        1 BP5      0.130000
     23 H121       -2.8640   -0.9880    1.3370 hc        1 BP5      0.064700
     24 H122       -2.8770    0.8140    1.5500 hc        1 BP5      0.064700
     25 H11        -0.8170   -2.1240    0.8740 h4        1 BP5      0.028100
     26 H13        -2.9090   -0.6490   -1.1880 h1        1 BP5      0.045700
     27 HN1        -3.8540    1.3930   -1.8840 hn        1 BP5      0.332800
     28 HN2        -3.6660    2.0740   -0.4410 hn        1 BP5      0.332800
     29 H5          6.9360   -0.1040   -0.4340 ha        1 BP5      0.132000
     30 H4          5.7860    1.7010    0.9090 h4        1 BP5      0.011100
@<TRIPOS>BOND
     1    1    2 ar  
     2    1   10 1   
     3    1   11 ar  
     4    2    3 ar  
     5    2   19 1   
     6    3    4 ar  
     7    3   20 1   
     8    4    7 1   
     9    4   13 ar  
    10    5    6 ar  
    11    5    9 ar  
    12    5   29 1   
    13    6   12 ar  
    14    6   30 1   
    15    7    8 ar  
    16    7   12 ar  
    17    8    9 ar  
    18    8   21 1   
    19    9   22 1   
    20   10   14 1   
    21   10   23 1   
    22   10   24 1   
    23   11   13 ar  
    24   11   25 1   
    25   14   15 1   
    26   14   18 1   
    27   14   26 1   
    28   15   16 1   
    29   15   17 1   
    30   18   27 1   
    31   18   28 1   
@<TRIPOS>SUBSTRUCTURE
     1 BP5         1 TEMP              0 ****  ****    0 ROOT
