@<TRIPOS>MOLECULE
BP5
   30    26     1     0     0
SMALL
bcc


@<TRIPOS>ATOM
      1 C9         -0.6040    0.3080   -1.3430 c1        1 BP5     -0.056000
      2 C8          0.7250    0.2260   -1.3870 c1        1 BP5     -0.100000
      3 C7          1.4950    0.2160   -0.1660 c1        1 BP5     -0.141000
      4 C6          0.8620    0.2910    1.0380 c1        1 BP5     -0.028000
      5 C5          2.7020    0.2870    4.8530 c1        1 BP5     -0.136000
      6 C4          2.5910   -0.8810    4.1290 c1        1 BP5     -0.136000
      7 C3          1.4950    0.2680    2.4490 c2        1 BP5      0.052000
      8 C2          1.6060    1.4370    3.1730 c2        1 BP5     -0.151000
      9 C1          2.2070    1.4300    4.3620 c1        1 BP5     -0.105000
     10 C12        -1.3880    0.4140   -2.6270 c2        1 BP5     -0.121000
     11 C11        -1.2840    0.3870   -0.0620 c2        1 BP5     -0.086000
     12 N1          1.9900   -0.8740    2.9410 n1        1 BP5     -0.136000
     13 N2         -0.5630    0.3790    1.0900 n1        1 BP5     -0.147000
     14 C13        -1.9690   -0.9010   -2.9640 c3        1 BP5     -0.127000
     15 C14        -3.4800   -0.7490   -3.2420 c2        1 BP5      0.308000
     16 O1         -3.8720    0.0540   -4.0750 o         1 BP5     -0.573000
     17 O2         -4.2860   -1.4800   -2.6660 o         1 BP5     -0.573000
     18 N          -1.3250   -1.4100   -4.1110 n3        1 BP5     -0.323000
     19 H8          1.1490    0.1780   -2.1910 ha        1 BP5      0.153000
     20 H7          2.4260    0.1450   -0.2020 ha        1 BP5      0.143000
     21 H5          3.1040    0.2820    5.6540 ha        1 BP5      0.140500
     22 H4          2.9470   -1.7080    4.4860 ha        1 BP5      0.140500
     23 H2          1.2280    2.3060    2.7960 ha        1 BP5      0.160000
     24 H1          2.2880    2.2710    4.8810 ha        1 BP5      0.129000
     25 H121       -0.8280    0.6790   -3.3040 ha        1 BP5      0.103000
     26 H122       -2.0770    1.0470   -2.5200 ha        1 BP5      0.103000
     27 H11        -2.3230    0.4970   -0.0260 h4        1 BP5      0.165000
     28 H13        -1.8300   -1.5430   -2.1800 h1        1 BP5      0.087000
     29 HN1        -1.8190   -1.3020   -4.7830 hn        1 BP5      0.127500
     30 HN2        -1.1670   -2.2540   -4.0020 hn        1 BP5      0.127500
@<TRIPOS>BOND
     1    1    2 1   
     2    1   11 1   
     3    2   19 1   
     4    3    4 1   
     5    3   20 1   
     6    4    7 1   
     7    5    6 1   
     8    5   21 1   
     9    6   22 1   
    10    7    8 1   
    11    7   12 1   
    12    8    9 1   
    13    8   23 1   
    14    9   24 1   
    15   10   14 1   
    16   10   25 1   
    17   10   26 1   
    18   11   13 1   
    19   11   27 1   
    20   14   15 1   
    21   14   18 1   
    22   14   28 1   
    23   15   16 1   
    24   15   17 1   
    25   18   29 1   
    26   18   30 1   
@<TRIPOS>SUBSTRUCTURE
     1 BP5         1 TEMP              0 ****  ****    0 ROOT
