@<TRIPOS>MOLECULE
BP6
   24    25     1     0     0
SMALL
bcc


@<TRIPOS>ATOM
      1 CA1         0.0060   -0.0130   -0.0430 cp        1 BP6     -0.054000
      2 CA2         1.4120   -0.0040   -0.0460 ca        1 BP6      0.142100
      3 OA2         2.0650    0.0150   -1.2530 oh        1 BP6     -0.484100
      4 CA3         2.1100   -0.0150    1.1850 ca        1 BP6      0.034100
      5 OA3         3.4880   -0.0060    1.0930 oh        1 BP6     -0.518100
      6 CA4         1.4210   -0.0350    2.3970 ca        1 BP6     -0.160000
      7 CA5         0.0260   -0.0430    2.3880 ca        1 BP6     -0.135000
      8 CA6        -0.6710   -0.0320    1.1840 ca        1 BP6     -0.099000
      9 CB1        -0.7560   -0.0010   -1.2960 cp        1 BP6     -0.009000
     10 CB2        -1.1420    1.2100   -1.8960 ca        1 BP6      0.043400
     11 CB3        -1.8710    1.2220   -3.0890 ca        1 BP6     -0.130000
     12 CB4        -2.2250    0.0200   -3.6960 ca        1 BP6     -0.111000
     13 CB5        -1.8570   -1.1930   -3.1190 ca        1 BP6     -0.130000
     14 CB6        -1.1280   -1.2020   -1.9260 ca        1 BP6      0.043400
     15 CL1        -0.7330    2.6980   -1.1820 cl        1 BP6     -0.080400
     16 CL2        -0.7000   -2.7020   -1.2500 cl        1 BP6     -0.080400
     17 HA2         3.0190    0.0190   -1.0790 ho        1 BP6      0.438000
     18 HA3         3.8430   -0.0150    1.9930 ho        1 BP6      0.430000
     19 HA4         1.9740   -0.0430    3.3470 ha        1 BP6      0.136000
     20 HA5        -0.5240   -0.0590    3.3400 ha        1 BP6      0.138000
     21 HA6        -1.7720   -0.0390    1.1880 ha        1 BP6      0.143000
     22 HB3        -2.1630    2.1800   -3.5470 ha        1 BP6      0.150000
     23 HB4        -2.7960    0.0280   -4.6360 ha        1 BP6      0.142000
     24 HB5        -2.1370   -2.1420   -3.6020 ha        1 BP6      0.150000
@<TRIPOS>BOND
     1    1    2 ar  
     2    1    8 ar  
     3    1    9 1   
     4    2    3 1   
     5    2    4 ar  
     6    3   17 1   
     7    4    5 1   
     8    4    6 ar  
     9    5   18 1   
    10    6    7 ar  
    11    6   19 1   
    12    7    8 ar  
    13    7   20 1   
    14    8   21 1   
    15    9   10 ar  
    16    9   14 ar  
    17   10   11 ar  
    18   10   15 1   
    19   11   12 ar  
    20   11   22 1   
    21   12   13 ar  
    22   12   23 1   
    23   13   14 ar  
    24   13   24 1   
    25   14   16 1   
@<TRIPOS>SUBSTRUCTURE
     1 BP6         1 TEMP              0 ****  ****    0 ROOT
