@<TRIPOS>MOLECULE
BP6
   24    25     1     0     0
SMALL
bcc


@<TRIPOS>ATOM
      1 CA1         0.0010   -0.4100    0.6090 cp        1 BP6     -0.088000
      2 CA2         0.0230    0.6270    1.5540 ca        1 BP6      0.071100
      3 OA2         0.0360    1.9680    1.2370 oh        1 BP6     -0.513100
      4 CA3         0.0330    0.3290    2.9360 ca        1 BP6      0.106100
      5 OA3         0.0540    1.3060    3.9030 oh        1 BP6     -0.495100
      6 CA4         0.0200   -1.0020    3.3660 ca        1 BP6     -0.125000
      7 CA5        -0.0020   -2.0260    2.4200 ca        1 BP6     -0.131000
      8 CA6        -0.0110   -1.7380    1.0580 ca        1 BP6     -0.104000
      9 CB1        -0.0100   -0.1280   -0.8300 cp        1 BP6     -0.045000
     10 CB2        -1.2210    0.0140   -1.5300 ca        1 BP6      0.034400
     11 CB3        -1.2330    0.2580   -2.9080 ca        1 BP6     -0.131000
     12 CB4        -0.0300    0.3630   -3.6020 ca        1 BP6     -0.107000
     13 CB5         1.1820    0.2270   -2.9310 ca        1 BP6     -0.131000
     14 CB6         1.1910   -0.0170   -1.5540 ca        1 BP6      0.034400
     15 CL1        -2.7070   -0.1080   -0.7170 cl        1 BP6     -0.068400
     16 CL2         2.6890   -0.1780   -0.7700 cl        1 BP6     -0.068400
     17 HA2         0.0280    2.0490    0.2720 ho        1 BP6      0.435000
     18 HA3         0.0600    2.1690    3.4590 ho        1 BP6      0.437000
     19 HA4         0.0280   -1.2190    4.4440 ha        1 BP6      0.154000
     20 HA5        -0.0110   -3.0730    2.7560 ha        1 BP6      0.139000
     21 HA6        -0.0290   -2.5550    0.3220 ha        1 BP6      0.141000
     22 HB3        -2.1900    0.3640   -3.4410 ha        1 BP6      0.154000
     23 HB4        -0.0390    0.5520   -4.6860 ha        1 BP6      0.146000
     24 HB5         2.1320    0.3090   -3.4830 ha        1 BP6      0.154000
@<TRIPOS>BOND
     1    1    2 ar  
     2    1    8 ar  
     3    1    9 1   
     4    2    3 1   
     5    2    4 ar  
     6    3   17 1   
     7    4    5 1   
     8    4    6 ar  
     9    5   18 1   
    10    6    7 ar  
    11    6   19 1   
    12    7    8 ar  
    13    7   20 1   
    14    8   21 1   
    15    9   10 ar  
    16    9   14 ar  
    17   10   11 ar  
    18   10   15 1   
    19   11   12 ar  
    20   11   22 1   
    21   12   13 ar  
    22   12   23 1   
    23   13   14 ar  
    24   13   24 1   
    25   14   16 1   
@<TRIPOS>SUBSTRUCTURE
     1 BP6         1 TEMP              0 ****  ****    0 ROOT
