@<TRIPOS>MOLECULE
BP6
   24    25     1     0     0
SMALL
bcc


@<TRIPOS>ATOM
      1 CA1         0.0050   -0.0140   -0.0430 cp        1 BP6     -0.054000
      2 CA2         1.4110   -0.0040   -0.0430 ca        1 BP6      0.142100
      3 OA2         2.0660    0.0210   -1.2480 oh        1 BP6     -0.484100
      4 CA3         2.1060   -0.0180    1.1900 ca        1 BP6      0.034100
      5 OA3         3.4850   -0.0060    1.1010 oh        1 BP6     -0.518100
      6 CA4         1.4140   -0.0430    2.4000 ca        1 BP6     -0.160000
      7 CA5         0.0190   -0.0530    2.3880 ca        1 BP6     -0.135000
      8 CA6        -0.6750   -0.0400    1.1830 ca        1 BP6     -0.099000
      9 CB1        -0.7540   -0.0000   -1.2970 cp        1 BP6     -0.009000
     10 CB2        -1.1400    1.2120   -1.8940 ca        1 BP6      0.043400
     11 CB3        -1.8670    1.2280   -3.0890 ca        1 BP6     -0.130000
     12 CB4        -2.2180    0.0280   -3.7010 ca        1 BP6     -0.111000
     13 CB5        -1.8500   -1.1870   -3.1270 ca        1 BP6     -0.130000
     14 CB6        -1.1240   -1.1980   -1.9320 ca        1 BP6      0.043400
     15 Cl1        -0.7340    2.6990   -1.1750 cl        1 BP6     -0.080400
     16 Cl2        -0.6970   -2.7010   -1.2600 cl        1 BP6     -0.080400
     17 HA2         3.0210    0.0260   -1.0730 ho        1 BP6      0.438000
     18 HA3         3.8380   -0.0170    2.0010 ho        1 BP6      0.430000
     19 HA4         1.9650   -0.0540    3.3520 ha        1 BP6      0.136000
     20 HA5        -0.5320   -0.0730    3.3390 ha        1 BP6      0.138000
     21 HA6        -1.7760   -0.0480    1.1840 ha        1 BP6      0.143000
     22 HB3        -2.1580    2.1870   -3.5450 ha        1 BP6      0.150000
     23 HB4        -2.7880    0.0380   -4.6420 ha        1 BP6      0.142000
     24 HB5        -2.1280   -2.1350   -3.6130 ha        1 BP6      0.150000
@<TRIPOS>BOND
     1    1    2 ar  
     2    1    8 ar  
     3    1    9 1   
     4    2    3 1   
     5    2    4 ar  
     6    3   17 1   
     7    4    5 1   
     8    4    6 ar  
     9    5   18 1   
    10    6    7 ar  
    11    6   19 1   
    12    7    8 ar  
    13    7   20 1   
    14    8   21 1   
    15    9   10 ar  
    16    9   14 ar  
    17   10   11 ar  
    18   10   15 1   
    19   11   12 ar  
    20   11   22 1   
    21   12   13 ar  
    22   12   23 1   
    23   13   14 ar  
    24   13   24 1   
    25   14   16 1   
@<TRIPOS>SUBSTRUCTURE
     1 BP6         1 TEMP              0 ****  ****    0 ROOT
