@<TRIPOS>MOLECULE
BP6
   24    18     1     0     0
SMALL
bcc


@<TRIPOS>ATOM
      1 CA1         0.0170    0.0600    0.5200 c1        1 BP6     -0.054000
      2 CA2         1.4020    0.0290    0.5090 c1        1 BP6      0.097000
      3 OA2         2.0970    0.0460   -0.7140 oh        1 BP6     -0.238000
      4 CA3         2.1040   -0.0030    1.7040 c1        1 BP6     -0.011000
      5 OA3         3.5090   -0.0550    1.6930 o         1 BP6     -0.272000
      6 CA4         1.4210   -0.0030    2.9090 c2        1 BP6     -0.160000
      7 CA5         0.0350    0.0280    2.9200 c1        1 BP6     -0.135000
      8 CA6        -0.6670    0.0600    1.7250 c1        1 BP6     -0.099000
      9 CB1        -0.6860    0.0210   -0.6740 c1        1 BP6     -0.009000
     10 CB2        -0.9740   -1.1980   -1.2690 c1        1 BP6     -0.035000
     11 CB3        -1.6750   -1.2380   -2.4640 c1        1 BP6     -0.120500
     12 CB4        -2.0890   -0.0590   -3.0640 c1        1 BP6     -0.120500
     13 CB5        -1.8020    1.1600   -2.4690 c1        1 BP6     -0.130000
     14 CB6        -1.1000    1.2000   -1.2740 c1        1 BP6     -0.035000
     15 CL1        -0.4610   -2.6830   -0.5080 cl        1 BP6     -0.002000
     16 CL2        -0.7800    2.7320   -0.5010 cl        1 BP6     -0.002000
     17 HA2         2.5940    0.7810   -0.7630 ho        1 BP6      0.237000
     18 HA3         3.7830   -0.7670    2.1480 ho        1 BP6      0.229000
     19 HA4         1.9150   -0.0260    3.7510 ha        1 BP6      0.136000
     20 HA5        -0.4460    0.0270    3.7690 ha        1 BP6      0.138000
     21 HA6        -1.6420    0.0810    1.7330 ha        1 BP6      0.143000
     22 HB3        -1.8780   -2.0970   -2.8830 ha        1 BP6      0.146000
     23 HB4        -2.5840   -0.0870   -3.9060 ha        1 BP6      0.146000
     24 HB5        -2.0930    1.9900   -2.8920 ha        1 BP6      0.150000
@<TRIPOS>BOND
     1    1    8 1   
     2    2    3 1   
     3    2    4 1   
     4    3   17 1   
     5    4    6 1   
     6    5   18 1   
     7    6    7 1   
     8    6   19 1   
     9    7   20 1   
    10    8   21 1   
    11    9   10 1   
    12   10   15 1   
    13   11   12 1   
    14   11   22 1   
    15   12   23 1   
    16   13   14 1   
    17   13   24 1   
    18   14   16 1   
@<TRIPOS>SUBSTRUCTURE
     1 BP6         1 TEMP              0 ****  ****    0 ROOT
