@<TRIPOS>MOLECULE
BP7
   24    25     1     0     0
SMALL
bcc


@<TRIPOS>ATOM
      1 CA1         0.0080    0.0780    0.0000 cp        1 BP7     -0.033000
      2 CA2         1.4100    0.1320   -0.0010 ca        1 BP7     -0.175000
      3 CA3         2.1140    0.1690    1.2040 ca        1 BP7      0.100100
      4 OA3         3.4870    0.2250    1.2690 oh        1 BP7     -0.475100
      5 CA4         1.4120    0.1470    2.4330 ca        1 BP7      0.104100
      6 OA4         2.1620    0.1830    3.5840 oh        1 BP7     -0.473100
      7 CA5         0.0150    0.0920    2.4280 ca        1 BP7     -0.186000
      8 CA6        -0.6780    0.0590    1.2200 ca        1 BP7     -0.114000
      9 CB1        -0.7250    0.0410   -1.2640 cp        1 BP7     -0.035000
     10 CB2        -1.8990    0.7900   -1.4250 ca        1 BP7     -0.119500
     11 CB3        -2.5960    0.7540   -2.6310 ca        1 BP7     -0.130000
     12 CB4        -2.1320   -0.0300   -3.6870 ca        1 BP7     -0.127000
     13 CB5        -0.9650   -0.7800   -3.5330 ca        1 BP7     -0.130000
     14 CB6        -0.2640   -0.7450   -2.3300 ca        1 BP7     -0.119500
     15 HA2         1.9570    0.1540   -0.9550 ha        1 BP7      0.140000
     16 HA3         3.8210    0.2550    0.3600 ho        1 BP7      0.415000
     17 HA4         1.5480    0.1600    4.3330 ho        1 BP7      0.415000
     18 HA5        -0.5340    0.0720    3.3800 ha        1 BP7      0.137000
     19 HA6        -1.7780    0.0110    1.2270 ha        1 BP7      0.139000
     20 HB2        -2.2650    1.4150   -0.5970 ha        1 BP7      0.134500
     21 HB3        -3.5140    1.3480   -2.7500 ha        1 BP7      0.132000
     22 HB4        -2.6840   -0.0580   -4.6380 ha        1 BP7      0.132000
     23 HB5        -0.5980   -1.4020   -4.3630 ha        1 BP7      0.132000
     24 HB6         0.6520   -1.3440   -2.2100 ha        1 BP7      0.134500
@<TRIPOS>BOND
     1    1    2 ar  
     2    1    8 ar  
     3    1    9 1   
     4    2    3 ar  
     5    2   15 1   
     6    3    4 1   
     7    3    5 ar  
     8    4   16 1   
     9    5    6 1   
    10    5    7 ar  
    11    6   17 1   
    12    7    8 ar  
    13    7   18 1   
    14    8   19 1   
    15    9   10 ar  
    16    9   14 ar  
    17   10   11 ar  
    18   10   20 1   
    19   11   12 ar  
    20   11   21 1   
    21   12   13 ar  
    22   12   22 1   
    23   13   14 ar  
    24   13   23 1   
    25   14   24 1   
@<TRIPOS>SUBSTRUCTURE
     1 BP7         1 TEMP              0 ****  ****    0 ROOT
