@<TRIPOS>MOLECULE
BP7
   24    25     1     0     0
SMALL
bcc


@<TRIPOS>ATOM
      1 CA1        -0.0030    0.2570    0.0690 cp        1 BP7     -0.038000
      2 CA2         0.8400   -0.8310   -0.1980 ca        1 BP7     -0.159000
      3 CA3         2.2240   -0.6620   -0.1470 ca        1 BP7      0.038100
      4 OA3         3.1230   -1.6810   -0.3980 oh        1 BP7     -0.518100
      5 CA4         2.7830    0.5940    0.1740 ca        1 BP7      0.114100
      6 OA4         4.1370    0.8140    0.2410 oh        1 BP7     -0.493100
      7 CA5         1.9360    1.6770    0.4420 ca        1 BP7     -0.135000
      8 CA6         0.5560    1.5020    0.3860 ca        1 BP7     -0.115000
      9 CB1        -1.4540    0.0880    0.0150 cp        1 BP7     -0.035000
     10 CB2        -2.2620    1.0790   -0.5620 ca        1 BP7     -0.119500
     11 CB3        -3.6450    0.9160   -0.6130 ca        1 BP7     -0.129500
     12 CB4        -4.2370   -0.2320   -0.0870 ca        1 BP7     -0.127000
     13 CB5        -3.4400   -1.2200    0.4900 ca        1 BP7     -0.129500
     14 CB6        -2.0560   -1.0640    0.5410 ca        1 BP7     -0.119500
     15 HA2         0.4140   -1.8120   -0.4540 ha        1 BP7      0.139000
     16 HA3         2.6160   -2.4690   -0.6390 ho        1 BP7      0.429000
     17 HA4         4.5870   -0.0190    0.0280 ho        1 BP7      0.437000
     18 HA5         2.3760    2.6520    0.6950 ha        1 BP7      0.154000
     19 HA6        -0.1050    2.3550    0.6030 ha        1 BP7      0.141000
     20 HB2        -1.7980    1.9840   -0.9820 ha        1 BP7      0.134500
     21 HB3        -4.2700    1.6970   -1.0710 ha        1 BP7      0.132500
     22 HB4        -5.3280   -0.3570   -0.1280 ha        1 BP7      0.132000
     23 HB5        -3.9040   -2.1260    0.9080 ha        1 BP7      0.132500
     24 HB6        -1.4320   -1.8430    1.0050 ha        1 BP7      0.134500
@<TRIPOS>BOND
     1    1    2 ar  
     2    1    8 ar  
     3    1    9 1   
     4    2    3 ar  
     5    2   15 1   
     6    3    4 1   
     7    3    5 ar  
     8    4   16 1   
     9    5    6 1   
    10    5    7 ar  
    11    6   17 1   
    12    7    8 ar  
    13    7   18 1   
    14    8   19 1   
    15    9   10 ar  
    16    9   14 ar  
    17   10   11 ar  
    18   10   20 1   
    19   11   12 ar  
    20   11   21 1   
    21   12   13 ar  
    22   12   22 1   
    23   13   14 ar  
    24   13   23 1   
    25   14   24 1   
@<TRIPOS>SUBSTRUCTURE
     1 BP7         1 TEMP              0 ****  ****    0 ROOT
