@<TRIPOS>MOLECULE
BP7
   24    18     1     0     0
SMALL
bcc


@<TRIPOS>ATOM
      1 CA1         0.0500    0.0010    0.3160 c1        1 BP7     -0.034500
      2 CA2         1.4350   -0.0500    0.3250 c1        1 BP7     -0.124000
      3 CA3         2.1220   -0.0250    1.5280 c1        1 BP7      0.065000
      4 OA3         3.5270   -0.1120    1.5380 o         1 BP7     -0.249000
      5 CA4         1.4240    0.0520    2.7230 c2        1 BP7     -0.004000
      6 OA4         2.1230    0.1220    3.9430 oh        1 BP7     -0.270000
      7 CA5         0.0390    0.1040    2.7150 c1        1 BP7     -0.170000
      8 CA6        -0.6480    0.0780    1.5110 c1        1 BP7     -0.119500
      9 CB1        -0.6370   -0.0140   -0.8880 c1        1 BP7     -0.034500
     10 CB2        -0.9990    1.1780   -1.4950 c1        1 BP7     -0.119500
     11 CB3        -1.7040    1.1630   -2.6880 c1        1 BP7     -0.126250
     12 CB4        -2.0480   -0.0450   -3.2740 c1        1 BP7     -0.126250
     13 CB5        -1.6860   -1.2380   -2.6670 c1        1 BP7     -0.126250
     14 CB6        -0.9810   -1.2220   -1.4740 c1        1 BP7     -0.126250
     15 HA2         1.9270   -0.1050   -0.5170 ha        1 BP7      0.157000
     16 HA3         3.8750    0.7040    1.4760 ho        1 BP7      0.236000
     17 HA4         2.1700   -0.6890    4.3040 ho        1 BP7      0.228000
     18 HA5        -0.4520    0.1580    3.5560 ha        1 BP7      0.136000
     19 HA6        -1.6230    0.1150    1.5050 ha        1 BP7      0.137000
     20 HB2        -0.7570    2.0290   -1.0820 ha        1 BP7      0.137000
     21 HB3        -1.9590    2.0030   -3.1150 ha        1 BP7      0.133500
     22 HB4        -2.5450   -0.0560   -4.1140 ha        1 BP7      0.133500
     23 HB5        -1.9280   -2.0880   -3.0800 ha        1 BP7      0.133500
     24 HB6        -0.7260   -2.0620   -1.0470 ha        1 BP7      0.133500
@<TRIPOS>BOND
     1    1    8 1   
     2    2    3 1   
     3    2   15 1   
     4    3    5 1   
     5    4   16 1   
     6    5    6 1   
     7    5    7 1   
     8    6   17 1   
     9    7   18 1   
    10    8   19 1   
    11    9   10 1   
    12   10   20 1   
    13   11   12 1   
    14   11   21 1   
    15   12   22 1   
    16   13   14 1   
    17   13   23 1   
    18   14   24 1   
@<TRIPOS>SUBSTRUCTURE
     1 BP7         1 TEMP              0 ****  ****    0 ROOT
