@<TRIPOS>MOLECULE
BP7
   24    25     1     0     0
SMALL
bcc


@<TRIPOS>ATOM
      1 CA1         0.0080    0.0770    0.0010 cp        1 BP7     -0.033000
      2 CA2         1.4100    0.1220   -0.0000 ca        1 BP7     -0.175000
      3 CA3         2.1130    0.1530    1.2060 ca        1 BP7      0.100100
      4 OA3         3.4860    0.2010    1.2720 oh        1 BP7     -0.475100
      5 CA4         1.4110    0.1340    2.4340 ca        1 BP7      0.104100
      6 OA4         2.1590    0.1640    3.5860 oh        1 BP7     -0.473100
      7 CA5         0.0130    0.0870    2.4280 ca        1 BP7     -0.186000
      8 CA6        -0.6800    0.0610    1.2190 ca        1 BP7     -0.114000
      9 CB1        -0.7240    0.0460   -1.2640 cp        1 BP7     -0.035000
     10 CB2        -1.8930    0.8030   -1.4260 ca        1 BP7     -0.119500
     11 CB3        -2.5890    0.7730   -2.6320 ca        1 BP7     -0.130000
     12 CB4        -2.1290   -0.0130   -3.6890 ca        1 BP7     -0.127000
     13 CB5        -0.9680   -0.7700   -3.5350 ca        1 BP7     -0.130000
     14 CB6        -0.2670   -0.7420   -2.3310 ca        1 BP7     -0.119500
     15 HA2         1.9580    0.1420   -0.9540 ha        1 BP7      0.140000
     16 HA3         3.8220    0.2300    0.3630 ho        1 BP7      0.415000
     17 HA4         1.5440    0.1440    4.3350 ho        1 BP7      0.415000
     18 HA5        -0.5370    0.0700    3.3800 ha        1 BP7      0.137000
     19 HA6        -1.7800    0.0190    1.2260 ha        1 BP7      0.139000
     20 HB2        -2.2560    1.4290   -0.5970 ha        1 BP7      0.134500
     21 HB3        -3.5040    1.3730   -2.7510 ha        1 BP7      0.132000
     22 HB4        -2.6810   -0.0360   -4.6400 ha        1 BP7      0.132000
     23 HB5        -0.6040   -1.3930   -4.3650 ha        1 BP7      0.132000
     24 HB6         0.6440   -1.3460   -2.2120 ha        1 BP7      0.134500
@<TRIPOS>BOND
     1    1    2 ar  
     2    1    8 ar  
     3    1    9 1   
     4    2    3 ar  
     5    2   15 1   
     6    3    4 1   
     7    3    5 ar  
     8    4   16 1   
     9    5    6 1   
    10    5    7 ar  
    11    6   17 1   
    12    7    8 ar  
    13    7   18 1   
    14    8   19 1   
    15    9   10 ar  
    16    9   14 ar  
    17   10   11 ar  
    18   10   20 1   
    19   11   12 ar  
    20   11   21 1   
    21   12   13 ar  
    22   12   22 1   
    23   13   14 ar  
    24   13   23 1   
    25   14   24 1   
@<TRIPOS>SUBSTRUCTURE
     1 BP7         1 TEMP              0 ****  ****    0 ROOT
