@<TRIPOS>MOLECULE
BP8
   31    32     1     0     0
SMALL
bcc


@<TRIPOS>ATOM
      1 C1         -0.0000   -1.2760    0.0150 c3        1 BP8     -0.081400
      2 C32        -1.2420   -0.4180   -0.1040 c3        1 BP8     -0.076400
      3 C30        -2.4860   -1.2840   -0.1730 c3        1 BP8     -0.103700
      4 C33        -3.7200   -0.4720   -0.2850 cc        1 BP8      0.343700
      5 S35        -4.9370   -0.4810    0.9360 ss        1 BP8     -0.220800
      6 N26        -4.0250    0.3370   -1.3220 nd        1 BP8     -0.295000
      7 N28        -5.1540    0.9660   -1.1970 nd        1 BP8     -0.380000
      8 C31        -5.8250    0.6630   -0.0370 cc        1 BP8      0.575300
      9 N27        -7.1020    1.0830    0.3030 nh        1 BP8     -0.886500
     10 H1         -0.0770   -1.9310    0.9230 hc        1 BP8      0.039700
     11 H2          0.0770   -1.9520   -0.8770 hc        1 BP8      0.039700
     12 H3         -1.3100    0.2730    0.7760 hc        1 BP8      0.055700
     13 H4         -2.4140   -1.9740   -1.0590 hc        1 BP8      0.059700
     14 H5         -2.5500   -1.9270    0.7460 hc        1 BP8      0.059700
     15 H6         -7.1730    1.4120    1.2420 hn        1 BP8      0.406300
     16 H7         -7.5280    1.7020   -0.3580 hn        1 BP8      0.406300
     17 C2          1.2420   -0.4160    0.1140 c3        1 BP8     -0.076400
     18 C3          2.4860   -1.2800    0.2030 c3        1 BP8     -0.103700
     19 C4          3.7190   -0.4650    0.2960 cc        1 BP8      0.343700
     20 S1          4.9360   -0.5030   -0.9240 ss        1 BP8     -0.220800
     21 C6          5.8250    0.6650    0.0220 cc        1 BP8      0.575300
     22 N2          5.1540    0.9950    1.1740 nd        1 BP8     -0.380000
     23 N1          4.0250    0.3680    1.3140 nd        1 BP8     -0.295000
     24 N3          7.1020    1.0760   -0.3280 nh        1 BP8     -0.886500
     25 H8         -1.1760    0.2190   -1.0250 hc        1 BP8      0.055700
     26 H9          1.3090    0.2540   -0.7820 hc        1 BP8      0.055700
     27 H10         1.1750    0.2430    1.0200 hc        1 BP8      0.055700
     28 H11         2.4140   -1.9480    1.1060 hc        1 BP8      0.059700
     29 H12         2.5500   -1.9440   -0.7010 hc        1 BP8      0.059700
     30 H13         7.1730    1.3830   -1.2750 hn        1 BP8      0.406300
     31 H14         7.5270    1.7100    0.3180 hn        1 BP8      0.406300
@<TRIPOS>BOND
     1    1    2 1   
     2    1   10 1   
     3    1   11 1   
     4    1   17 1   
     5    2    3 1   
     6    2   12 1   
     7    2   25 1   
     8    3    4 1   
     9    3   13 1   
    10    3   14 1   
    11    4    5 1   
    12    4    6 2   
    13    5    8 1   
    14    6    7 1   
    15    7    8 2   
    16    8    9 1   
    17    9   15 1   
    18    9   16 1   
    19   17   18 1   
    20   17   26 1   
    21   17   27 1   
    22   18   19 1   
    23   18   28 1   
    24   18   29 1   
    25   19   20 1   
    26   19   23 2   
    27   20   21 1   
    28   21   22 2   
    29   21   24 1   
    30   22   23 1   
    31   24   30 1   
    32   24   31 1   
@<TRIPOS>SUBSTRUCTURE
     1 BP8         1 TEMP              0 ****  ****    0 ROOT
