@<TRIPOS>MOLECULE
BP8
   31    30     1     0     0
SMALL
bcc


@<TRIPOS>ATOM
      1 C1         -0.0610   -0.2690   -0.0700 c3        1 BP8     -0.213000
      2 C32         1.3490   -0.7380   -0.3870 c3        1 BP8     -0.134000
      3 C30         2.1960   -0.7280    0.8700 c3        1 BP8     -0.167000
      4 C33         3.5390   -1.3770    0.6730 c2        1 BP8     -0.139000
      5 S35         3.9700   -2.6440    1.4530 s         1 BP8      0.035000
      6 N26         4.3300   -0.8080   -0.3830 n2        1 BP8     -0.005000
      7 N28         5.2040    0.0180   -0.3700 n2        1 BP8      0.007000
      8 C31         5.7440    0.7460    0.7700 c2        1 BP8     -0.083000
      9 N27         5.1070    0.9760    1.8600 n2        1 BP8     -0.241000
     10 H1         -0.3420   -1.7800    2.8850 ha        1 BP8      0.001000
     11 H2         -0.2210   -2.4070    2.6590 ha        1 BP8      0.001000
     12 H3          1.3090   -1.7760   -0.8110 hc        1 BP8      0.106000
     13 H4          2.3480    0.3300    1.2200 hc        1 BP8      0.118500
     14 H5          1.6580   -1.2800    1.6900 hc        1 BP8      0.118500
     15 H6          6.7710    1.0910    0.5060 h5        1 BP8      0.149000
     16 H7          5.5880    1.5290    2.5370 hn        1 BP8      0.170000
     17 C2         -0.8620   -0.1190   -1.2660 c1        1 BP8     -0.060000
     18 C3         -2.3130   -0.3070   -1.2440 c3        1 BP8     -0.149000
     19 C4         -2.7670    0.0910   -2.5940 c2        1 BP8     -0.377000
     20 S1         -1.5010    0.5410   -3.6600 ss        1 BP8      0.547000
     21 C6         -2.7410    0.8190   -4.8510 c2        1 BP8     -0.253000
     22 N2         -4.0060    0.5530   -4.3610 n2        1 BP8     -0.137000
     23 N1         -4.0030    0.1640   -3.1200 n2        1 BP8     -0.023000
     24 N3         -2.4790    1.3620   -6.0990 nh        1 BP8     -0.283000
     25 H8          1.7940   -0.0730   -1.1730 hc        1 BP8      0.106000
     26 H9         -0.5170   -0.9390    0.7140 hc        1 BP8      0.116000
     27 H10        -0.0130    0.7710    0.3800 hc        1 BP8      0.116000
     28 H11        -2.8220    0.3000   -0.4430 hc        1 BP8      0.140500
     29 H12        -2.5700   -1.3870   -1.0340 hc        1 BP8      0.140500
     30 H13        -1.6830    0.9610   -6.5460 hn        1 BP8      0.196000
     31 H14        -3.2700    1.4360   -6.7050 hn        1 BP8      0.196000
@<TRIPOS>BOND
     1    1    2 1   
     2    1   17 1   
     3    1   26 1   
     4    1   27 1   
     5    2    3 1   
     6    2   12 1   
     7    2   25 1   
     8    3    4 1   
     9    3   13 1   
    10    3   14 1   
    11    4    5 1   
    12    4    6 1   
    13    6    7 1   
    14    7    8 1   
    15    8    9 1   
    16    8   15 1   
    17    9   16 1   
    18   10   11 1   
    19   17   18 1   
    20   18   19 1   
    21   18   28 1   
    22   18   29 1   
    23   19   20 1   
    24   19   23 1   
    25   20   21 1   
    26   21   22 1   
    27   21   24 1   
    28   22   23 1   
    29   24   30 1   
    30   24   31 1   
@<TRIPOS>SUBSTRUCTURE
     1 BP8         1 TEMP              0 ****  ****    0 ROOT
