@<TRIPOS>MOLECULE
BP8
   31    32     1     0     0
SMALL
bcc


@<TRIPOS>ATOM
      1 C1          0.4050   -1.3820   -0.5350 cx        1 BP8     -0.108400
      2 C32         1.5780   -0.5150   -0.9040 cx        1 BP8     -0.124700
      3 C30         1.9130    0.6940   -0.0890 c3        1 BP8     -0.081700
      4 C33         3.1010    0.4860    0.7740 cc        1 BP8      0.343700
      5 S35         4.0190   -0.9720    0.7880 ss        1 BP8     -0.212800
      6 N26         3.5830    1.4170    1.6290 nd        1 BP8     -0.294500
      7 N28         4.6470    1.0500    2.2750 nd        1 BP8     -0.380000
      8 C31         5.0590   -0.2250    1.9720 cc        1 BP8      0.571800
      9 N27         6.0840   -0.9220    2.5950 nh        1 BP8     -0.886000
     10 H1         -1.0740    1.2950    1.5870 ha        1 BP8      0.001500
     11 H2         -1.0670    0.6180    1.5980 ha        1 BP8      0.001500
     12 H3         -0.2060   -1.1080    0.3460 hc        1 BP8      0.080700
     13 H4          1.0340    0.9830    0.5570 hc        1 BP8      0.069200
     14 H5          2.1110    1.5610   -0.7820 hc        1 BP8      0.069200
     15 H6          6.7020   -1.3720    1.9510 hn        1 BP8      0.406300
     16 H7          6.5720   -0.4050    3.2980 hn        1 BP8      0.406300
     17 C2          0.3320   -0.5200   -1.7640 cx        1 BP8     -0.124700
     18 C3         -0.5590    0.6840   -1.7880 c3        1 BP8     -0.081700
     19 C4         -1.7700    0.4700   -2.6150 cc        1 BP8      0.343700
     20 S1         -2.1790    1.5170   -3.9220 ss        1 BP8     -0.212800
     21 C6         -3.5860    0.5190   -4.1900 cc        1 BP8      0.571800
     22 N2         -3.6490   -0.5160   -3.2890 nd        1 BP8     -0.380000
     23 N1         -2.6690   -0.5230   -2.4380 nd        1 BP8     -0.294500
     24 N3         -4.5560    0.8500   -5.1230 nh        1 BP8     -0.886000
     25 H8          2.4770   -1.0120   -1.3280 hc        1 BP8      0.084700
     26 H9          0.4020   -1.0210   -2.7510 hc        1 BP8      0.084700
     27 H10         0.4870   -2.4770   -0.6550 hc        1 BP8      0.080700
     28 H11        -0.8750    0.9550   -0.7400 hc        1 BP8      0.069200
     29 H12         0.0180    1.5570   -2.2000 hc        1 BP8      0.069200
     30 H13        -4.1850    1.0600   -6.0260 hn        1 BP8      0.406300
     31 H14        -5.3370    0.2260   -5.1570 hn        1 BP8      0.406300
@<TRIPOS>BOND
     1    1    2 1   
     2    1   12 1   
     3    1   17 1   
     4    1   27 1   
     5    2    3 1   
     6    2   17 1   
     7    2   25 1   
     8    3    4 1   
     9    3   13 1   
    10    3   14 1   
    11    4    5 1   
    12    4    6 2   
    13    5    8 1   
    14    6    7 1   
    15    7    8 2   
    16    8    9 1   
    17    9   15 1   
    18    9   16 1   
    19   10   11 1   
    20   17   18 1   
    21   17   26 1   
    22   18   19 1   
    23   18   28 1   
    24   18   29 1   
    25   19   20 1   
    26   19   23 2   
    27   20   21 1   
    28   21   22 2   
    29   21   24 1   
    30   22   23 1   
    31   24   30 1   
    32   24   31 1   
@<TRIPOS>SUBSTRUCTURE
     1 BP8         1 TEMP              0 ****  ****    0 ROOT
