@<TRIPOS>MOLECULE
BP8
   31    30     1     0     0
SMALL
bcc


@<TRIPOS>ATOM
      1 C1         -0.4910   -0.6880    0.4870 c3        1 BP8     -0.159000
      2 C32         1.0160   -0.7370    0.3690 c3        1 BP8     -0.156000
      3 C30         1.5030   -2.1310    0.7020 c3        1 BP8     -0.088000
      4 C33         2.7860   -2.4110   -0.0500 c2        1 BP8     -0.328000
      5 S35         4.0870   -2.9440    0.5560 ss        1 BP8      0.407000
      6 N26         2.9620   -2.3270   -1.4510 n2        1 BP8     -0.032000
      7 N28         4.4210   -2.8170   -1.7990 n2        1 BP8     -0.117000
      8 C31         5.0700   -3.1770   -0.5960 c1        1 BP8     -0.195000
      9 N27         6.4200   -3.5930   -0.4680 n2        1 BP8     -0.284000
     10 H1         -0.7540   -0.9150    1.4020 hc        1 BP8      0.079000
     11 H2         -0.8890   -1.3300   -0.1350 hc        1 BP8      0.079000
     12 H3          1.2790   -0.5100   -0.5460 hc        1 BP8      0.095500
     13 H4          1.6690   -2.1970    1.6640 hc        1 BP8      0.098500
     14 H5          0.8240   -2.7850    0.4430 hc        1 BP8      0.098500
     15 H6          6.9900   -3.5200   -1.1790 hn        1 BP8      0.201500
     16 H7          6.7150   -3.9520    0.3190 hn        1 BP8      0.201500
     17 C2         -0.9790    0.7050    0.1530 c3        1 BP8     -0.156000
     18 C3         -2.4860    0.6940    0.0190 c3        1 BP8     -0.088000
     19 C4         -3.0120    2.1080    0.1220 c2        1 BP8     -0.328000
     20 S1         -4.1570    2.7050   -0.7030 ss        1 BP8      0.407000
     21 C6         -4.4090    4.1230   -0.1810 c1        1 BP8     -0.195000
     22 N2         -3.4950    4.3670    0.8700 n2        1 BP8     -0.117000
     23 N1         -2.6030    3.0810    1.0640 n2        1 BP8     -0.032000
     24 N3         -5.4380    4.9990   -0.6110 n2        1 BP8     -0.284000
     25 H8          1.4140   -0.0950    0.9910 hc        1 BP8      0.095500
     26 H9         -0.7190    1.3210    0.8670 hc        1 BP8      0.095500
     27 H10        -0.5780    0.9970   -0.6900 hc        1 BP8      0.095500
     28 H11        -2.7330    0.3160   -0.8490 hc        1 BP8      0.098500
     29 H12        -2.8730    0.1500    0.7340 hc        1 BP8      0.098500
     30 H13        -5.5240    5.8250   -0.2310 hn        1 BP8      0.201500
     31 H14        -6.0150    4.7370   -1.2700 hn        1 BP8      0.201500
@<TRIPOS>BOND
     1    1    2 1   
     2    1   10 1   
     3    1   11 1   
     4    1   17 1   
     5    2    3 1   
     6    2   12 1   
     7    2   25 1   
     8    3    4 1   
     9    3   13 1   
    10    3   14 1   
    11    4    5 1   
    12    4    6 1   
    13    5    8 1   
    14    6    7 1   
    15    7    8 1   
    16    9   15 1   
    17    9   16 1   
    18   17   18 1   
    19   17   26 1   
    20   17   27 1   
    21   18   19 1   
    22   18   28 1   
    23   18   29 1   
    24   19   20 1   
    25   19   23 1   
    26   20   21 1   
    27   21   22 1   
    28   22   23 1   
    29   24   30 1   
    30   24   31 1   
@<TRIPOS>SUBSTRUCTURE
     1 BP8         1 TEMP              0 ****  ****    0 ROOT
