@<TRIPOS>MOLECULE
BP8
   31    31     1     0     0
SMALL
bcc


@<TRIPOS>ATOM
      1 C1         -0.0050    0.1040   -0.4440 c2        1 BP8     -0.154200
      2 C32         1.4740    0.1750   -0.3420 c3        1 BP8     -0.048200
      3 C30         1.9330   -0.0160    1.0930 c3        1 BP8     -0.101700
      4 C33         3.4080    0.0400    1.2140 cc        1 BP8      0.341700
      5 S35         4.3260   -1.2870    1.8210 ss        1 BP8     -0.218800
      6 N26         4.1760    1.1010    0.8840 nd        1 BP8     -0.295000
      7 N28         5.4490    0.9180    1.0620 nd        1 BP8     -0.380000
      8 C31         5.7580   -0.3190    1.5750 cc        1 BP8      0.575300
      9 N27         7.0120   -0.7440    1.9840 nv        1 BP8     -0.886500
     10 H1         -0.9280   -0.9800    2.7930 ha        1 BP8      0.000000
     11 H2         -0.3970   -0.6340    2.5540 ha        1 BP8      0.000000
     12 H3          1.8530    1.1580   -0.7310 hc        1 BP8      0.063700
     13 H4          1.5680   -1.0070    1.4780 hc        1 BP8      0.062700
     14 H5          1.4750    0.7820    1.7420 hc        1 BP8      0.062700
     15 H6          7.2430   -1.6620    1.6660 hn        1 BP8      0.406800
     16 H7          7.7480   -0.0840    1.8310 hn        1 BP8      0.406800
     17 C2         -0.7100    0.8230   -1.3210 c2        1 BP8     -0.170200
     18 C3         -2.1900    0.7500   -1.4300 c3        1 BP8     -0.070500
     19 C4         -2.6200    0.3920   -2.8040 cc        1 BP8      0.345700
     20 S1         -3.1760    1.5720   -3.9330 ss        1 BP8     -0.222800
     21 C6         -3.3750    0.2750   -5.0850 cc        1 BP8      0.578300
     22 N2         -3.0180   -0.9370   -4.5460 nd        1 BP8     -0.381000
     23 N1         -2.6230   -0.8590   -3.3110 nd        1 BP8     -0.290000
     24 N3         -3.9480    0.4780   -6.3300 nv        1 BP8     -0.886500
     25 H8          1.9180   -0.6310   -0.9880 hc        1 BP8      0.063700
     26 H9         -0.2190    1.5230   -2.0170 ha        1 BP8      0.126000
     27 H10        -0.4980   -0.6010    0.2470 ha        1 BP8      0.125000
     28 H11        -2.6070    0.0000   -0.7010 hc        1 BP8      0.067200
     29 H12        -2.6240    1.7530   -1.1600 hc        1 BP8      0.067200
     30 H13        -3.5430    1.2400   -6.8340 hn        1 BP8      0.406800
     31 H14        -4.0450   -0.3470   -6.8870 hn        1 BP8      0.406800
@<TRIPOS>BOND
     1    1    2 1   
     2    1   17 2   
     3    1   27 1   
     4    2    3 1   
     5    2   12 1   
     6    2   25 1   
     7    3    4 1   
     8    3   13 1   
     9    3   14 1   
    10    4    5 1   
    11    4    6 2   
    12    5    8 1   
    13    6    7 1   
    14    7    8 2   
    15    8    9 1   
    16    9   15 1   
    17    9   16 1   
    18   10   11 1   
    19   17   18 1   
    20   17   26 1   
    21   18   19 1   
    22   18   28 1   
    23   18   29 1   
    24   19   20 1   
    25   19   23 2   
    26   20   21 1   
    27   21   22 2   
    28   21   24 1   
    29   22   23 1   
    30   24   30 1   
    31   24   31 1   
@<TRIPOS>SUBSTRUCTURE
     1 BP8         1 TEMP              0 ****  ****    0 ROOT
