@<TRIPOS>MOLECULE
BP9
   28    29     1     0     0
SMALL
bcc


@<TRIPOS>ATOM
      1 N26        -3.6470   -1.0800   -0.6680 nc        1 BP9     -0.295000
      2 N27        -6.7340    0.6100   -0.1380 nh        1 BP9     -0.886500
      3 N28        -4.8840   -0.7980   -0.9460 nc        1 BP9     -0.379000
      4 C30        -1.7280   -0.4470    0.8310 c3        1 BP9     -0.102700
      5 C31        -5.4120    0.1930   -0.1550 cd        1 BP9      0.575300
      6 C32        -0.7020   -0.3990   -0.2860 c3        1 BP9     -0.076400
      7 C33        -3.1150   -0.3340    0.3240 cd        1 BP9      0.345700
      8 S35        -4.2380    0.7920    0.9910 ss        1 BP9     -0.224800
      9 H1         -7.3240    0.1560   -0.8070 hn        1 BP9      0.406300
     10 H2         -6.8360    1.6030   -0.1440 hn        1 BP9      0.406300
     11 H3         -1.6200   -1.4150    1.3950 hc        1 BP9      0.061200
     12 H4         -1.5330    0.3880    1.5580 hc        1 BP9      0.061200
     13 H5         -0.8410   -1.2840   -0.9620 hc        1 BP9      0.054700
     14 H6         -0.8590    0.5220   -0.9050 hc        1 BP9      0.054700
     15 C1          0.7020   -0.4020    0.2830 c3        1 BP9     -0.076400
     16 C2          1.7280   -0.4350   -0.8340 c3        1 BP9     -0.102700
     17 C3          3.1140   -0.3290   -0.3260 cc        1 BP9      0.345700
     18 N1          3.6470   -1.0860    0.6560 nd        1 BP9     -0.295000
     19 N2          4.8840   -0.8070    0.9380 nd        1 BP9     -0.379000
     20 C6          5.4110    0.1950    0.1600 cc        1 BP9      0.575300
     21 S1          4.2370    0.8070   -0.9780 ss        1 BP9     -0.224800
     22 N3          6.7330    0.6130    0.1480 nh        1 BP9     -0.886500
     23 H7          0.8590    0.5120    0.9140 hc        1 BP9      0.054700
     24 H8          0.8410   -1.2950    0.9480 hc        1 BP9      0.054700
     25 H9          1.6210   -1.3960   -1.4100 hc        1 BP9      0.061200
     26 H10         1.5330    0.4080   -1.5510 hc        1 BP9      0.061200
     27 H11         7.3230    0.1510    0.8110 hn        1 BP9      0.406300
     28 H12         6.8350    1.6060    0.1660 hn        1 BP9      0.406300
@<TRIPOS>BOND
     1    1    3 1   
     2    1    7 2   
     3    2    5 1   
     4    2    9 1   
     5    2   10 1   
     6    3    5 2   
     7    4    6 1   
     8    4    7 1   
     9    4   11 1   
    10    4   12 1   
    11    5    8 1   
    12    6   13 1   
    13    6   14 1   
    14    6   15 1   
    15    7    8 1   
    16   15   16 1   
    17   15   23 1   
    18   15   24 1   
    19   16   17 1   
    20   16   25 1   
    21   16   26 1   
    22   17   18 2   
    23   17   21 1   
    24   18   19 1   
    25   19   20 2   
    26   20   21 1   
    27   20   22 1   
    28   22   27 1   
    29   22   28 1   
@<TRIPOS>SUBSTRUCTURE
     1 BP9         1 TEMP              0 ****  ****    0 ROOT
