@<TRIPOS>MOLECULE
BP9
   28    28     1     0     0
SMALL
bcc


@<TRIPOS>ATOM
      1 N26         2.8260   -1.3020   -2.8290 n2        1 BP9     -0.032000
      2 N27         0.3580   -1.0750   -5.7000 nh        1 BP9     -0.284000
      3 N28         2.3420   -1.5870   -4.3030 n2        1 BP9     -0.116000
      4 C30         1.9670    0.0940   -0.7990 c3        1 BP9     -0.087000
      5 C31         1.1020   -0.9350   -4.5000 c2        1 BP9     -0.195000
      6 C32         1.4370   -0.9040    0.2070 c3        1 BP9     -0.156000
      7 C33         1.8600   -0.4890   -2.1910 c2        1 BP9     -0.327000
      8 S35         0.7370   -0.2180   -3.1970 ss        1 BP9      0.404000
      9 H1          0.6540   -1.6360   -6.3580 hn        1 BP9      0.201500
     10 H2         -0.4170   -0.6040   -5.8140 hn        1 BP9      0.201500
     11 H3          1.4420    0.9180   -0.7490 hc        1 BP9      0.100000
     12 H4          2.9040    0.2910   -0.6000 hc        1 BP9      0.100000
     13 H5          2.1560   -1.5080    0.4780 hc        1 BP9      0.094500
     14 H6          0.7120   -1.4210   -0.1980 hc        1 BP9      0.094500
     15 C1          0.9140   -0.1670    1.4200 c3        1 BP9     -0.155000
     16 C2         -0.3210   -0.8680    1.9430 c3        1 BP9     -0.087000
     17 C3         -1.1710    0.1170    2.7150 c2        1 BP9     -0.326000
     18 N1         -1.2040    0.2640    4.1210 n2        1 BP9     -0.032000
     19 N2         -2.3060    1.3310    4.4850 n2        1 BP9     -0.117000
     20 C6         -2.8980    1.7890    3.2850 c1        1 BP9     -0.195000
     21 S1         -2.2230    1.0580    2.1210 ss        1 BP9      0.405000
     22 N3         -3.8760    2.8100    3.1740 n2        1 BP9     -0.284000
     23 H7          1.6010   -0.1550    2.1160 hc        1 BP9      0.094000
     24 H8          0.6860    0.7520    1.1710 hc        1 BP9      0.094000
     25 H9         -0.8360   -1.2240    1.1920 hc        1 BP9      0.101000
     26 H10        -0.0540   -1.6010    2.5330 hc        1 BP9      0.101000
     27 H11        -4.2010    3.2160    3.9270 hn        1 BP9      0.201500
     28 H12        -4.1910    3.0540    2.3520 hn        1 BP9      0.201500
@<TRIPOS>BOND
     1    1    3 1   
     2    1    7 1   
     3    2    5 1   
     4    2    9 1   
     5    2   10 1   
     6    3    5 1   
     7    4    6 1   
     8    4    7 1   
     9    4   11 1   
    10    4   12 1   
    11    5    8 1   
    12    6   13 1   
    13    6   14 1   
    14    6   15 1   
    15    7    8 1   
    16   15   16 1   
    17   15   23 1   
    18   15   24 1   
    19   16   17 1   
    20   16   25 1   
    21   16   26 1   
    22   17   18 1   
    23   17   21 1   
    24   18   19 1   
    25   19   20 1   
    26   20   21 1   
    27   22   27 1   
    28   22   28 1   
@<TRIPOS>SUBSTRUCTURE
     1 BP9         1 TEMP              0 ****  ****    0 ROOT
