@<TRIPOS>MOLECULE
BP9
   28    26     1     0     0
SMALL
bcc


@<TRIPOS>ATOM
      1 N26        -0.4700   -0.0320    1.0940 n2        1 BP9      0.045000
      2 N27         1.7050    1.5140    3.3660 nv        1 BP9     -0.319000
      3 N28         0.0040    0.9570    1.7100 n2        1 BP9     -0.134000
      4 C30        -0.1240   -2.5370    0.9540 c1        1 BP9     -0.112000
      5 C31         1.0600    0.5960    2.6110 c2        1 BP9     -0.160000
      6 C32        -1.0890   -3.0020   -0.0070 c3        1 BP9     -0.210000
      7 C33         0.0990   -1.2560    1.3910 c2        1 BP9     -0.417000
      8 S35         1.3650   -1.0740    2.5830 ss        1 BP9      0.511000
      9 H1          2.4250    1.2280    3.9820 hn        1 BP9      0.249000
     10 H2          1.4580    2.4740    3.3180 hn        1 BP9      0.249000
     11 H3         -3.1360   -0.8390   -1.9220 ha        1 BP9      0.000500
     12 H4         -3.2450   -1.4910   -2.0680 ha        1 BP9      0.000500
     13 H5         -3.5790   -3.8500   -1.9690 ha        1 BP9      0.000500
     14 H6         -1.7980   -3.6920    0.5270 hc        1 BP9      0.099667
     15 C1         -4.7850   -2.2860    0.6250 c1        1 BP9     -0.145000
     16 C2         -5.7440   -2.2840    1.3410 c1        1 BP9     -0.119000
     17 C3         -6.8600   -2.2750    2.1760 c2        1 BP9     -0.231000
     18 N1         -7.6680   -3.3370    2.4410 n2        1 BP9     -0.003000
     19 N2         -8.6530   -3.0630    3.2310 n2        1 BP9     -0.117000
     20 C6         -8.6730   -1.7520    3.6590 c2        1 BP9     -0.202000
     21 S1         -7.3510   -0.8380    2.9940 ss        1 BP9      0.455000
     22 N3         -9.5390   -1.2230    4.6020 nv        1 BP9     -0.285000
     23 H7         -1.6870   -2.2090   -0.5280 hc        1 BP9      0.099667
     24 H8         -0.5510   -3.6110   -0.7830 hc        1 BP9      0.099667
     25 H9         -3.9310   -2.2790   -0.0100 ha        1 BP9      0.238000
     26 H10        -3.0150   -3.8110   -1.5950 ha        1 BP9      0.000500
     27 H11       -10.2370   -1.8560    4.9360 hn        1 BP9      0.203500
     28 H12        -9.9090   -0.3310    4.3490 hn        1 BP9      0.203500
@<TRIPOS>BOND
     1    1    3 1   
     2    1    7 1   
     3    2    5 1   
     4    2    9 1   
     5    2   10 1   
     6    3    5 1   
     7    4    6 1   
     8    4    7 1   
     9    5    8 1   
    10    6   14 1   
    11    6   23 1   
    12    6   24 1   
    13    7    8 1   
    14   11   12 1   
    15   13   26 1   
    16   15   16 1   
    17   15   25 1   
    18   16   17 1   
    19   17   18 1   
    20   17   21 1   
    21   18   19 1   
    22   19   20 1   
    23   20   21 1   
    24   20   22 1   
    25   22   27 1   
    26   22   28 1   
@<TRIPOS>SUBSTRUCTURE
     1 BP9         1 TEMP              0 ****  ****    0 ROOT
