@<TRIPOS>MOLECULE
BP9
   30    30     1     0     0
SMALL
bcc


@<TRIPOS>ATOM
      1 N26         0.2880   -1.2760    0.5980 ne        1 BP9     -0.091400
      2 N27         3.2540    0.3610    0.6760 nh        1 BP9     -0.418100
      3 N28         1.4780   -1.3440    0.4580 nf        1 BP9     -0.183300
      4 C30        -1.7720   -0.2480    1.5830 c3        1 BP9     -0.117400
      5 C31         2.4230   -0.5240    1.2310 cf        1 BP9      0.466200
      6 C32        -2.4220   -1.6020    1.8160 c3        1 BP9     -0.076400
      7 C33        -0.2860   -0.2860    1.5460 c         1 BP9      0.259800
      8 S35         0.7170    0.5930    2.3500 s         1 BP9      0.049600
      9 H1          2.7930   -1.0490    2.1580 h5        1 BP9      0.084800
     10 H2          4.1250    0.5790    1.1210 hn        1 BP9      0.331700
     11 H3         -2.1350    0.1650    0.5950 hc        1 BP9      0.108200
     12 H4         -2.1010    0.4700    2.3860 hc        1 BP9      0.108200
     13 H5         -2.0360   -2.0520    2.7680 hc        1 BP9      0.065700
     14 H6         -4.1960   -0.7990    2.7810 hc        1 BP9      0.072700
     15 C1         -3.9290   -1.4360    1.8970 c3        1 BP9     -0.076400
     16 C2         -4.6050   -2.7910    2.0170 c3        1 BP9     -0.126700
     17 C3         -6.0830   -2.6990    2.1130 cc        1 BP9      0.386700
     18 N1         -6.8280   -1.7090    1.5070 nd        1 BP9     -0.278000
     19 N2         -8.0870   -1.8300    1.6790 nd        1 BP9     -0.219000
     20 C6         -8.4200   -2.9380    2.4440 cc        1 BP9      0.241300
     21 S1         -7.0430   -3.8230    2.9410 ss        1 BP9      0.087200
     22 N3         -9.7980   -3.2530    2.7420 n4        1 BP9     -0.765300
     23 H7         -4.2960   -0.9080    0.9770 hc        1 BP9      0.072700
     24 H8         -2.1700   -2.3050    0.9780 hc        1 BP9      0.065700
     25 H9         -4.3540   -3.4110    1.1080 hc        1 BP9      0.087700
     26 H10        -4.2080   -3.3340    2.9180 hc        1 BP9      0.087700
     27 H11        -9.9360   -3.2840    3.7610 hn        1 BP9      0.481133
     28 H12       -10.4250   -2.5300    2.3470 hn        1 BP9      0.481133
     29 H273        3.0860    0.7740   -0.2190 hn        1 BP9      0.331700
     30 H33       -10.0450   -4.1610    2.3260 hn        1 BP9      0.481133
@<TRIPOS>BOND
     1    1    3 2   
     2    1    7 1   
     3    2    5 2   
     4    2   10 1   
     5    2   29 1   
     6    3    5 1   
     7    4    6 1   
     8    4    7 1   
     9    4   11 1   
    10    4   12 1   
    11    5    9 1   
    12    6   13 1   
    13    6   15 1   
    14    6   24 1   
    15    7    8 2   
    16   14   15 1   
    17   15   16 1   
    18   15   23 1   
    19   16   17 1   
    20   16   25 1   
    21   16   26 1   
    22   17   18 2   
    23   17   21 1   
    24   18   19 1   
    25   19   20 2   
    26   20   21 1   
    27   20   22 1   
    28   22   27 1   
    29   22   28 1   
    30   22   30 1   
@<TRIPOS>SUBSTRUCTURE
     1 BP9         1 TEMP              0 ****  ****    0 ROOT
