@<TRIPOS>MOLECULE
BP9
   28    26     1     0     0
SMALL
bcc


@<TRIPOS>ATOM
      1 N26        -2.2940   -0.8870    1.7080 nc        1 BP9     -0.325000
      2 N27         0.0640    1.0530    3.5300 nh        1 BP9     -0.889500
      3 N28        -1.9490    0.0140    2.5800 nc        1 BP9     -0.398000
      4 C30        -1.3950   -2.4240   -0.0670 c3        1 BP9     -0.108700
      5 C31        -0.5960    0.2460    2.6210 cd        1 BP9      0.589300
      6 C32        -1.8610   -3.7560    0.4710 c3        1 BP9     -0.089100
      7 C33        -1.2680   -1.4040    1.0010 cd        1 BP9      0.355700
      8 S35         0.2580   -0.7450    1.4630 ss        1 BP9     -0.214800
      9 H1          0.7990    1.5960    3.1320 hn        1 BP9      0.411300
     10 H2         -0.5260    1.5730    4.1470 hn        1 BP9      0.411300
     11 H3         -2.1230   -2.0580   -0.8440 hc        1 BP9      0.062200
     12 H4         -0.3990   -2.5510   -0.5730 hc        1 BP9      0.062200
     13 H5          0.4230   -4.7040   -0.5800 ha        1 BP9      0.000000
     14 H6         -2.8640   -3.6590    0.9540 hc        1 BP9      0.044367
     15 C1         -9.5470    0.1120    1.9360 c1        1 BP9     -0.057500
     16 C2         -8.8150   -0.8170    1.7430 cg        1 BP9     -0.145200
     17 C3         -7.9540   -1.9060    1.4760 c         1 BP9      0.371000
     18 N1         -7.3480   -2.4970    2.6500 ne        1 BP9     -0.143400
     19 N2         -6.3120   -2.2590    3.2090 nf        1 BP9     -0.222300
     20 C6         -5.3050   -1.2560    2.8890 cf        1 BP9      0.555200
     21 S1         -7.8050   -2.5190    0.0580 s         1 BP9     -0.228400
     22 N3         -5.4660   -0.3070    2.0410 n2        1 BP9     -0.767100
     23 H7         -1.9390   -4.4910   -0.3670 hc        1 BP9      0.044367
     24 H8         -1.1410   -4.1540    1.2250 hc        1 BP9      0.044367
     25 H9          1.0090   -4.8570   -0.8850 ha        1 BP9      0.000000
     26 H10       -10.1960    0.9350    2.0980 ha        1 BP9      0.173500
     27 H11        -4.4010   -1.4590    3.5080 h5        1 BP9      0.027800
     28 H12        -4.6970    0.3180    1.9300 hn        1 BP9      0.435400
@<TRIPOS>BOND
     1    1    3 1   
     2    1    7 2   
     3    2    5 1   
     4    2    9 1   
     5    2   10 1   
     6    3    5 2   
     7    4    6 1   
     8    4    7 1   
     9    4   11 1   
    10    4   12 1   
    11    5    8 1   
    12    6   14 1   
    13    6   23 1   
    14    6   24 1   
    15    7    8 1   
    16   13   25 1   
    17   15   16 3   
    18   15   26 1   
    19   16   17 1   
    20   17   18 1   
    21   17   21 2   
    22   18   19 2   
    23   19   20 1   
    24   20   22 2   
    25   20   27 1   
    26   22   28 1   
@<TRIPOS>SUBSTRUCTURE
     1 BP9         1 TEMP              0 ****  ****    0 ROOT
