@<TRIPOS>MOLECULE
BPA
   39    43     1     0     0
SMALL
bcc


@<TRIPOS>ATOM
      1 C10         0.0950   -0.0950   -0.0020 c3        1 BPA     -0.071100
      2 C9          1.6090    0.0450    0.0970 c3        1 BPA      0.109100
      3 C8          2.0690   -0.0590    1.5550 c3        1 BPA      0.114100
      4 C7          1.7240   -1.4630    2.0770 c3        1 BPA      0.196400
      5 C6A         0.2710   -1.7790    1.8760 ca        1 BPA     -0.080300
      6 C6         -0.3040   -2.7520    2.6970 ca        1 BPA     -0.080000
      7 C5A        -1.6390   -3.1290    2.5360 ca        1 BPA     -0.040000
      8 C5         -2.2470   -4.1360    3.3660 ca        1 BPA     -0.109000
      9 C4         -3.5430   -4.4970    3.1990 ca        1 BPA     -0.118000
     10 C3A        -4.3630   -3.8830    2.1860 ca        1 BPA     -0.031000
     11 C3         -5.7030   -4.2440    2.0020 ca        1 BPA     -0.114000
     12 C2         -6.4710   -3.6270    1.0160 ca        1 BPA     -0.126000
     13 C1         -5.9200   -2.6420    0.2010 ca        1 BPA     -0.114000
     14 C2A        -4.5820   -2.2590    0.3600 ca        1 BPA     -0.035000
     15 C2B        -3.7900   -2.8830    1.3570 ca        1 BPA     -0.016000
     16 C2C        -2.4170   -2.5030    1.5280 ca        1 BPA     -0.008000
     17 C12        -3.9770   -1.2410   -0.4560 ca        1 BPA     -0.112000
     18 C11        -2.6790   -0.8840   -0.2920 ca        1 BPA     -0.120000
     19 C1B        -1.8380   -1.5060    0.7000 ca        1 BPA     -0.033000
     20 C1A        -0.4830   -1.1520    0.8730 ca        1 BPA     -0.050300
     21 O9          2.0320    1.3260   -0.3550 oh        1 BPA     -0.608800
     22 O8          3.4770    0.0720    1.6620 oh        1 BPA     -0.612800
     23 O7          2.0240   -1.5560    3.4630 oh        1 BPA     -0.596800
     24 H101       -0.1640   -0.3090   -1.0750 hc        1 BPA      0.063200
     25 H102       -0.3750    0.8920    0.2670 hc        1 BPA      0.063200
     26 H9          2.1200   -0.7500   -0.5160 h1        1 BPA      0.052700
     27 H8          1.5690    0.7320    2.1790 h1        1 BPA      0.069700
     28 H7          2.3480   -2.2230    1.5200 h1        1 BPA      0.056700
     29 H6          0.3080   -3.2160    3.4890 ha        1 BPA      0.156000
     30 H5         -1.6210   -4.6020    4.1420 ha        1 BPA      0.137000
     31 H4         -4.0070   -5.2680    3.8330 ha        1 BPA      0.134000
     32 H3         -6.1490   -5.0190    2.6420 ha        1 BPA      0.134000
     33 H2         -7.5230   -3.9210    0.8820 ha        1 BPA      0.134000
     34 H1         -6.5350   -2.1590   -0.5740 ha        1 BPA      0.134000
     35 H12        -4.6060   -0.7560   -1.2180 ha        1 BPA      0.133000
     36 H11        -2.2460   -0.0910   -0.9220 ha        1 BPA      0.130000
     37 HO9         1.7520    1.4050   -1.2750 ho        1 BPA      0.410000
     38 HO8         3.7110    0.9060    1.2340 ho        1 BPA      0.428000
     39 HO7         2.9350   -1.2460    3.5620 ho        1 BPA      0.423000
@<TRIPOS>BOND
     1    1    2 1   
     2    1   20 1   
     3    1   24 1   
     4    1   25 1   
     5    2    3 1   
     6    2   21 1   
     7    2   26 1   
     8    3    4 1   
     9    3   22 1   
    10    3   27 1   
    11    4    5 1   
    12    4   23 1   
    13    4   28 1   
    14    5    6 ar  
    15    5   20 ar  
    16    6    7 ar  
    17    6   29 1   
    18    7    8 ar  
    19    7   16 ar  
    20    8    9 ar  
    21    8   30 1   
    22    9   10 ar  
    23    9   31 1   
    24   10   11 ar  
    25   10   15 ar  
    26   11   12 ar  
    27   11   32 1   
    28   12   13 ar  
    29   12   33 1   
    30   13   14 ar  
    31   13   34 1   
    32   14   15 ar  
    33   14   17 ar  
    34   15   16 ar  
    35   16   19 ar  
    36   17   18 ar  
    37   17   35 1   
    38   18   19 ar  
    39   18   36 1   
    40   19   20 ar  
    41   21   37 1   
    42   22   38 1   
    43   23   39 1   
@<TRIPOS>SUBSTRUCTURE
     1 BPA         1 TEMP              0 ****  ****    0 ROOT
