@<TRIPOS>MOLECULE
BPA
   39    43     1     0     0
SMALL
bcc


@<TRIPOS>ATOM
      1 C10         0.0960   -0.0980   -0.0050 c3        1 BPA     -0.071100
      2 C9          1.6090    0.0430    0.0960 c3        1 BPA      0.109100
      3 C8          2.0670   -0.0560    1.5540 c3        1 BPA      0.114100
      4 C7          1.7230   -1.4590    2.0790 c3        1 BPA      0.196400
      5 C6A         0.2700   -1.7770    1.8770 ca        1 BPA     -0.080300
      6 C6         -0.3050   -2.7480    2.7010 ca        1 BPA     -0.080000
      7 C5A        -1.6400   -3.1260    2.5390 ca        1 BPA     -0.040000
      8 C5         -2.2480   -4.1310    3.3710 ca        1 BPA     -0.109000
      9 C4         -3.5440   -4.4930    3.2030 ca        1 BPA     -0.118000
     10 C3A        -4.3620   -3.8820    2.1890 ca        1 BPA     -0.031000
     11 C3         -5.7030   -4.2450    2.0030 ca        1 BPA     -0.114000
     12 C2         -6.4700   -3.6310    1.0150 ca        1 BPA     -0.126000
     13 C1         -5.9190   -2.6480    0.1980 ca        1 BPA     -0.114000
     14 C2A        -4.5810   -2.2630    0.3570 ca        1 BPA     -0.035000
     15 C2B        -3.7900   -2.8840    1.3570 ca        1 BPA     -0.016000
     16 C2C        -2.4170   -2.5030    1.5290 ca        1 BPA     -0.008000
     17 C12        -3.9750   -1.2470   -0.4600 ca        1 BPA     -0.112000
     18 C11        -2.6780   -0.8880   -0.2960 ca        1 BPA     -0.120000
     19 C1B        -1.8380   -1.5080    0.6990 ca        1 BPA     -0.033000
     20 C1A        -0.4830   -1.1530    0.8720 ca        1 BPA     -0.050300
     21 O9          2.0310    1.3230   -0.3600 oh        1 BPA     -0.608800
     22 O8          3.4750    0.0750    1.6630 oh        1 BPA     -0.612800
     23 O7          2.0220   -1.5490    3.4660 oh        1 BPA     -0.596800
     24 H101       -0.1620   -0.3150   -1.0780 hc        1 BPA      0.063200
     25 H102       -0.3750    0.8900    0.2620 hc        1 BPA      0.063200
     26 H9          2.1210   -0.7530   -0.5140 h1        1 BPA      0.052700
     27 H8          1.5670    0.7360    2.1760 h1        1 BPA      0.069700
     28 H7          2.3480   -2.2200    1.5250 h1        1 BPA      0.056700
     29 H6          0.3060   -3.2090    3.4940 ha        1 BPA      0.156000
     30 H5         -1.6220   -4.5950    4.1490 ha        1 BPA      0.137000
     31 H4         -4.0080   -5.2630    3.8390 ha        1 BPA      0.134000
     32 H3         -6.1490   -5.0190    2.6450 ha        1 BPA      0.134000
     33 H2         -7.5210   -3.9260    0.8810 ha        1 BPA      0.134000
     34 H1         -6.5330   -2.1670   -0.5780 ha        1 BPA      0.134000
     35 H12        -4.6040   -0.7650   -1.2250 ha        1 BPA      0.133000
     36 H11        -2.2440   -0.0980   -0.9270 ha        1 BPA      0.130000
     37 HO9         1.7530    1.4000   -1.2800 ho        1 BPA      0.410000
     38 HO8         3.7090    0.9090    1.2330 ho        1 BPA      0.428000
     39 HO7         2.9320   -1.2370    3.5660 ho        1 BPA      0.423000
@<TRIPOS>BOND
     1    1    2 1   
     2    1   20 1   
     3    1   24 1   
     4    1   25 1   
     5    2    3 1   
     6    2   21 1   
     7    2   26 1   
     8    3    4 1   
     9    3   22 1   
    10    3   27 1   
    11    4    5 1   
    12    4   23 1   
    13    4   28 1   
    14    5    6 ar  
    15    5   20 ar  
    16    6    7 ar  
    17    6   29 1   
    18    7    8 ar  
    19    7   16 ar  
    20    8    9 ar  
    21    8   30 1   
    22    9   10 ar  
    23    9   31 1   
    24   10   11 ar  
    25   10   15 ar  
    26   11   12 ar  
    27   11   32 1   
    28   12   13 ar  
    29   12   33 1   
    30   13   14 ar  
    31   13   34 1   
    32   14   15 ar  
    33   14   17 ar  
    34   15   16 ar  
    35   16   19 ar  
    36   17   18 ar  
    37   17   35 1   
    38   18   19 ar  
    39   18   36 1   
    40   19   20 ar  
    41   21   37 1   
    42   22   38 1   
    43   23   39 1   
@<TRIPOS>SUBSTRUCTURE
     1 BPA         1 TEMP              0 ****  ****    0 ROOT
