@<TRIPOS>MOLECULE
BPA
   39    36     1     0     0
SMALL
bcc


@<TRIPOS>ATOM
      1 C10         1.5470    1.4960   -1.6670 c3        1 BPA     -0.157000
      2 C9          2.9950    1.4960   -1.6670 c3        1 BPA     -0.002000
      3 C8          3.6680    1.4960   -0.3330 c3        1 BPA      0.003000
      4 C7          3.2600    0.4690    0.6030 c3        1 BPA      0.078000
      5 C6A         1.6990    0.0530    0.5840 c2        1 BPA     -0.073000
      6 C6          1.1780   -0.9150    1.4270 c1        1 BPA     -0.080000
      7 C5A        -0.2290   -1.2460    1.3660 c1        1 BPA     -0.035500
      8 C5         -0.7400   -2.2230    2.2210 c1        1 BPA     -0.113500
      9 C4         -2.0990   -2.5540    2.1730 c1        1 BPA     -0.113500
     10 C3A        -2.9660   -1.8900    1.2440 c1        1 BPA     -0.035500
     11 C3         -4.3340   -2.2240    1.1960 c1        1 BPA     -0.120000
     12 C2         -5.1890   -1.5700    0.2820 c1        1 BPA     -0.120000
     13 C1         -4.6740   -0.5800   -0.5860 c1        1 BPA     -0.113000
     14 C2A        -3.3040   -0.2440   -0.5400 c1        1 BPA     -0.035000
     15 C2B        -2.4480   -0.8970    0.3740 c1        1 BPA     -0.012000
     16 C2C        -1.1030   -0.5620    0.4150 c1        1 BPA     -0.012000
     17 C12        -2.7910    0.7460   -1.4080 c1        1 BPA     -0.113000
     18 C11        -1.4150    1.0880   -1.3670 c1        1 BPA     -0.120000
     19 C1B        -0.5720    0.4320   -0.4540 c1        1 BPA     -0.033000
     20 C1A         0.8260    0.6460   -0.5000 c2        1 BPA     -0.043000
     21 O9          3.4540    2.7150   -2.4130 oh        1 BPA     -0.336000
     22 O8          5.1440    1.3480   -0.5640 oh        1 BPA     -0.340000
     23 O7          3.5800    0.9250    1.9270 oh        1 BPA     -0.324000
     24 H101        1.2460    1.1440   -2.5260 hc        1 BPA      0.102500
     25 H102        1.2460    2.4220   -1.5950 hc        1 BPA      0.102500
     26 H9          3.2960    0.7080   -2.1570 h1        1 BPA      0.092000
     27 H8          3.5110    2.3640    0.0840 h1        1 BPA      0.109000
     28 H7          3.7880   -0.3320    0.4220 h1        1 BPA      0.096000
     29 H6          1.7130   -1.4700    2.0260 ha        1 BPA      0.156000
     30 H5         -0.2550   -2.7310    2.8990 ha        1 BPA      0.135500
     31 H4         -2.3580   -3.2480    2.8080 ha        1 BPA      0.135500
     32 H3         -4.8200   -2.8800    1.7300 ha        1 BPA      0.134000
     33 H2         -6.1370   -1.8020    0.2500 ha        1 BPA      0.134000
     34 H1         -5.3760   -0.2160   -1.1580 ha        1 BPA      0.133500
     35 H12        -3.3170    1.2010   -2.0930 ha        1 BPA      0.133500
     36 H11        -1.3810    1.9420   -1.8390 ha        1 BPA      0.130000
     37 HO9         3.6510    2.4940   -3.2500 ho        1 BPA      0.209000
     38 HO8         5.5680    2.0500   -0.2260 ho        1 BPA      0.227000
     39 HO7         4.1360    0.3510    2.3120 ho        1 BPA      0.222000
@<TRIPOS>BOND
     1    1    2 1   
     2    1   20 1   
     3    1   24 1   
     4    1   25 1   
     5    2    3 1   
     6    2   21 1   
     7    2   26 1   
     8    3    4 1   
     9    3   22 1   
    10    3   27 1   
    11    4    5 1   
    12    4   23 1   
    13    4   28 1   
    14    5    6 1   
    15    5   20 1   
    16    6   29 1   
    17    7    8 1   
    18    7   16 1   
    19    8   30 1   
    20    9   10 1   
    21    9   31 1   
    22   10   15 1   
    23   11   12 1   
    24   11   32 1   
    25   12   33 1   
    26   13   14 1   
    27   13   34 1   
    28   14   17 1   
    29   15   16 1   
    30   17   35 1   
    31   18   19 1   
    32   18   36 1   
    33   19   20 1   
    34   21   37 1   
    35   22   38 1   
    36   23   39 1   
@<TRIPOS>SUBSTRUCTURE
     1 BPA         1 TEMP              0 ****  ****    0 ROOT
