@<TRIPOS>MOLECULE
BPA
   39    43     1     0     0
SMALL
bcc


@<TRIPOS>ATOM
      1 C10         1.6770    0.0610   -2.0810 c3        1 BPA     -0.046100
      2 C9          1.2780    0.4570   -3.4970 c3        1 BPA      0.154100
      3 C8         -0.0120   -0.2660   -3.8960 c3        1 BPA      0.113100
      4 C7         -1.1570    0.2030   -2.9830 c3        1 BPA      0.156400
      5 C6A        -0.7910    0.1380   -1.5280 ca        1 BPA     -0.107300
      6 C6         -1.8200    0.1920   -0.5830 ca        1 BPA     -0.112000
      7 C5A        -1.5490    0.1500    0.7860 ca        1 BPA     -0.031000
      8 C5         -2.6000    0.2070    1.7690 ca        1 BPA     -0.117000
      9 C4         -2.3250    0.1580    3.0960 ca        1 BPA     -0.110000
     10 C3A        -0.9710    0.0460    3.5720 ca        1 BPA     -0.034000
     11 C3         -0.6700   -0.0080    4.9390 ca        1 BPA     -0.112000
     12 C2          0.6520   -0.1170    5.3670 ca        1 BPA     -0.126000
     13 C1          1.6930   -0.1760    4.4450 ca        1 BPA     -0.111000
     14 C2A         1.4260   -0.1240    3.0700 ca        1 BPA     -0.034000
     15 C2B         0.0840   -0.0110    2.6240 ca        1 BPA     -0.016000
     16 C2C        -0.2030    0.0450    1.2200 ca        1 BPA     -0.009000
     17 C12         2.4710   -0.1860    2.0850 ca        1 BPA     -0.110000
     18 C11         2.1960   -0.1280    0.7580 ca        1 BPA     -0.119000
     19 C1B         0.8460   -0.0000    0.2670 ca        1 BPA     -0.028000
     20 C1A         0.5480    0.0710   -1.1110 ca        1 BPA     -0.039300
     21 O9          2.3520    0.0780   -4.3440 oh        1 BPA     -0.600800
     22 O8         -0.2810    0.0840   -5.2440 oh        1 BPA     -0.611800
     23 O7         -2.2490   -0.6390   -3.3330 oh        1 BPA     -0.604800
     24 H101        2.1340   -0.9670   -2.1080 hc        1 BPA      0.073700
     25 H102        2.4780    0.7740   -1.7450 hc        1 BPA      0.073700
     26 H9          1.1210    1.5700   -3.5750 h1        1 BPA      0.050700
     27 H8          0.1150   -1.3810   -3.8130 h1        1 BPA      0.070700
     28 H7         -1.4230    1.2710   -3.2410 h1        1 BPA      0.056700
     29 H6         -2.8680    0.2760   -0.9100 ha        1 BPA      0.126000
     30 H5         -3.6360    0.2910    1.4060 ha        1 BPA      0.133000
     31 H4         -3.1290    0.2020    3.8470 ha        1 BPA      0.135000
     32 H3         -1.4850    0.0370    5.6760 ha        1 BPA      0.135000
     33 H2          0.8740   -0.1580    6.4440 ha        1 BPA      0.135000
     34 H1          2.7340   -0.2640    4.7920 ha        1 BPA      0.135000
     35 H12         3.5070   -0.2860    2.4440 ha        1 BPA      0.135000
     36 H11         3.0160   -0.1910    0.0250 ha        1 BPA      0.138000
     37 HO9         2.0460    0.2100   -5.2520 ho        1 BPA      0.423000
     38 HO8        -1.1110   -0.3510   -5.4800 ho        1 BPA      0.425000
     39 HO7        -3.0050   -0.3850   -2.7910 ho        1 BPA      0.409000
@<TRIPOS>BOND
     1    1    2 1   
     2    1   20 1   
     3    1   24 1   
     4    1   25 1   
     5    2    3 1   
     6    2   21 1   
     7    2   26 1   
     8    3    4 1   
     9    3   22 1   
    10    3   27 1   
    11    4    5 1   
    12    4   23 1   
    13    4   28 1   
    14    5    6 ar  
    15    5   20 ar  
    16    6    7 ar  
    17    6   29 1   
    18    7    8 ar  
    19    7   16 ar  
    20    8    9 ar  
    21    8   30 1   
    22    9   10 ar  
    23    9   31 1   
    24   10   11 ar  
    25   10   15 ar  
    26   11   12 ar  
    27   11   32 1   
    28   12   13 ar  
    29   12   33 1   
    30   13   14 ar  
    31   13   34 1   
    32   14   15 ar  
    33   14   17 ar  
    34   15   16 ar  
    35   16   19 ar  
    36   17   18 ar  
    37   17   35 1   
    38   18   19 ar  
    39   18   36 1   
    40   19   20 ar  
    41   21   37 1   
    42   22   38 1   
    43   23   39 1   
@<TRIPOS>SUBSTRUCTURE
     1 BPA         1 TEMP              0 ****  ****    0 ROOT
