@<TRIPOS>MOLECULE
BPC
   39    36     1     0     0
SMALL
bcc


@<TRIPOS>ATOM
      1 C1          0.8490   -0.0370   -4.9560 c1        1 BPC     -0.118250
      2 C2          2.2590   -0.0440   -4.9510 c1        1 BPC     -0.118250
      3 C3          2.9640   -0.0330   -3.7230 c1        1 BPC     -0.115000
      4 C3A         2.2510   -0.0160   -2.4940 c1        1 BPC     -0.033000
      5 C4          2.9620   -0.0910   -1.2610 c1        1 BPC     -0.118250
      6 C5          2.2620   -0.1340   -0.0540 c1        1 BPC     -0.118250
      7 C5A         0.8540   -0.1020   -0.0540 c1        1 BPC     -0.036000
      8 C6          0.1550   -0.0540    1.1580 c1        1 BPC     -0.040000
      9 C7         -1.3620    0.0090    1.1530 c1        1 BPC     -0.074000
     10 C8         -2.0520    0.0190   -0.0570 c1        1 BPC     -0.079000
     11 C8A        -1.3220   -0.0300   -1.3070 c1        1 BPC     -0.042000
     12 C9         -2.0140   -0.0160   -2.5170 c2        1 BPC     -0.109000
     13 C10        -1.3100   -0.0100   -3.7240 c1        1 BPC     -0.119000
     14 C1A         0.1280   -0.0190   -3.7190 c1        1 BPC     -0.030000
     15 C3B         0.8290   -0.0040   -2.4970 c2        1 BPC     -0.017000
     16 C5B         0.1350   -0.0310   -1.3020 c2        1 BPC     -0.007000
     17 C1'        -2.1240   -0.0570    2.5790 c3        1 BPC      0.082000
     18 O1'        -3.1250   -1.0860    2.5000 oh        1 BPC     -0.324000
     19 C2'        -1.2980   -0.3240    3.7440 c3        1 BPC     -0.046000
     20 O2'        -2.0270    0.1920    4.9530 oh        1 BPC     -0.341000
     21 C3'         0.0750    0.2720    3.7480 c3        1 BPC      0.013000
     22 O3'        -0.0700    1.7620    3.8790 oh        1 BPC     -0.326000
     23 C4'         0.9070    0.0070    2.5890 c3        1 BPC     -0.126000
     24 H1          0.3610   -0.0440   -5.8070 ha        1 BPC      0.133000
     25 H2          2.7530   -0.0470   -5.8000 ha        1 BPC      0.133000
     26 H3          3.9460   -0.0380   -3.7200 ha        1 BPC      0.134000
     27 H4          3.9440   -0.0750   -1.2590 ha        1 BPC      0.133000
     28 H5          2.7500   -0.2000    0.7940 ha        1 BPC      0.133000
     29 H8         -3.0320    0.0840   -0.0630 ha        1 BPC      0.156000
     30 H9         -2.9960   -0.0400   -2.5210 ha        1 BPC      0.136000
     31 H10        -1.7980    0.0080   -4.5760 ha        1 BPC      0.134000
     32 H1'        -2.5800    0.8040    2.7210 h1        1 BPC      0.106000
     33 HA         -3.9250   -0.7380    2.6860 ho        1 BPC      0.219000
     34 H2'        -1.2060   -1.2990    3.8350 h1        1 BPC      0.108000
     35 HB         -2.0080   -0.4260    5.5970 ho        1 BPC      0.211000
     36 H3'         0.5490   -0.0600    4.5450 h1        1 BPC      0.074000
     37 HC          0.3640    2.0400    4.6070 ho        1 BPC      0.214000
     38 H4'1        1.3600   -0.8540    2.7310 hc        1 BPC      0.111000
     39 H4'2        1.5940    0.7100    2.5410 hc        1 BPC      0.111000
@<TRIPOS>BOND
     1    1    2 1   
     2    1   24 1   
     3    2   25 1   
     4    3    4 1   
     5    3   26 1   
     6    4   15 1   
     7    5    6 1   
     8    5   27 1   
     9    6   28 1   
    10    7    8 1   
    11    7   16 1   
    12    8   23 1   
    13    9   10 1   
    14    9   17 1   
    15   10   29 1   
    16   11   12 1   
    17   11   16 1   
    18   12   13 1   
    19   12   30 1   
    20   13   31 1   
    21   14   15 1   
    22   15   16 1   
    23   17   18 1   
    24   17   19 1   
    25   17   32 1   
    26   18   33 1   
    27   19   20 1   
    28   19   21 1   
    29   19   34 1   
    30   20   35 1   
    31   21   22 1   
    32   21   23 1   
    33   21   36 1   
    34   22   37 1   
    35   23   38 1   
    36   23   39 1   
@<TRIPOS>SUBSTRUCTURE
     1 BPC         1 TEMP              0 ****  ****    0 ROOT
