@<TRIPOS>MOLECULE
BPC
   39    43     1     0     0
SMALL
bcc


@<TRIPOS>ATOM
      1 C1         -4.8540   -0.8100    0.0120 ca        1 BPC     -0.112000
      2 C2         -5.3320    0.4940   -0.0930 ca        1 BPC     -0.127000
      3 C3         -4.4500    1.5690   -0.1690 ca        1 BPC     -0.112000
      4 C3A        -3.0660    1.3520   -0.1410 ca        1 BPC     -0.035000
      5 C4         -2.1210    2.4330   -0.2210 ca        1 BPC     -0.111000
      6 C5         -0.7840    2.2060   -0.1900 ca        1 BPC     -0.121000
      7 C5A        -0.2410    0.8760   -0.0720 ca        1 BPC     -0.031000
      8 C6          1.1480    0.6280   -0.0320 ca        1 BPC     -0.042300
      9 C7          1.6110   -0.6940    0.0700 ca        1 BPC     -0.093300
     10 C8          0.7100   -1.7570    0.1350 ca        1 BPC     -0.105000
     11 C8A        -0.6700   -1.5370    0.1050 ca        1 BPC     -0.032000
     12 C9         -1.6130   -2.6220    0.1760 ca        1 BPC     -0.114000
     13 C10        -2.9490   -2.3960    0.1470 ca        1 BPC     -0.113000
     14 C1A        -3.4760   -1.0610    0.0430 ca        1 BPC     -0.033000
     15 C3B        -2.5690    0.0280   -0.0320 ca        1 BPC     -0.015000
     16 C5B        -1.1540   -0.2080    0.0010 ca        1 BPC     -0.011000
     17 C1'         3.0840   -0.9730    0.1510 c3        1 BPC      0.149400
     18 O1'         3.4560   -2.2020   -0.4610 oh        1 BPC     -0.604800
     19 C2'         3.8770    0.1140   -0.5960 c3        1 BPC      0.161100
     20 O2'         5.2720   -0.1010   -0.5140 oh        1 BPC     -0.589800
     21 C3'         3.5620    1.4680    0.0490 c3        1 BPC      0.143100
     22 O3'         3.9170    1.3860    1.4230 oh        1 BPC     -0.585800
     23 C4'         2.0780    1.7890   -0.1200 c3        1 BPC     -0.072100
     24 H1         -5.5600   -1.6520    0.0700 ha        1 BPC      0.135000
     25 H2         -6.4170    0.6770   -0.1160 ha        1 BPC      0.134000
     26 H3         -4.8370    2.5960   -0.2530 ha        1 BPC      0.134000
     27 H4         -2.5210    3.4550   -0.3110 ha        1 BPC      0.133000
     28 H5         -0.0830    3.0530   -0.2600 ha        1 BPC      0.131000
     29 H8          1.0830   -2.7910    0.2040 ha        1 BPC      0.130000
     30 H9         -1.2100   -3.6440    0.2530 ha        1 BPC      0.133000
     31 H10        -3.6690   -3.2270    0.2030 ha        1 BPC      0.134000
     32 H1'         3.4010   -0.9750    1.2360 h1        1 BPC      0.080700
     33 HA          3.1770   -2.9090    0.1310 ho        1 BPC      0.408000
     34 H2'         3.5680    0.1350   -1.6780 h1        1 BPC      0.056700
     35 HB          5.4200   -1.0340   -0.7230 ho        1 BPC      0.420000
     36 H3'         4.1820    2.2650   -0.4510 h1        1 BPC      0.053700
     37 HC          3.8800    2.2840    1.7720 ho        1 BPC      0.401000
     38 H4'1        1.7960    2.5420    0.6670 hc        1 BPC      0.061200
     39 H4'2        1.9380    2.2750   -1.1250 hc        1 BPC      0.061200
@<TRIPOS>BOND
     1    1    2 ar  
     2    1   14 ar  
     3    1   24 1   
     4    2    3 ar  
     5    2   25 1   
     6    3    4 ar  
     7    3   26 1   
     8    4    5 ar  
     9    4   15 ar  
    10    5    6 ar  
    11    5   27 1   
    12    6    7 ar  
    13    6   28 1   
    14    7    8 ar  
    15    7   16 ar  
    16    8    9 ar  
    17    8   23 1   
    18    9   10 ar  
    19    9   17 1   
    20   10   11 ar  
    21   10   29 1   
    22   11   12 ar  
    23   11   16 ar  
    24   12   13 ar  
    25   12   30 1   
    26   13   14 ar  
    27   13   31 1   
    28   14   15 ar  
    29   15   16 ar  
    30   17   18 1   
    31   17   19 1   
    32   17   32 1   
    33   18   33 1   
    34   19   20 1   
    35   19   21 1   
    36   19   34 1   
    37   20   35 1   
    38   21   22 1   
    39   21   23 1   
    40   21   36 1   
    41   22   37 1   
    42   23   38 1   
    43   23   39 1   
@<TRIPOS>SUBSTRUCTURE
     1 BPC         1 TEMP              0 ****  ****    0 ROOT
