@<TRIPOS>MOLECULE
BPC
   39    43     1     0     0
SMALL
bcc


@<TRIPOS>ATOM
      1 C1          0.0290   -0.0250   -0.0480 ca        1 BPC     -0.114000
      2 C2          1.4220    0.0010   -0.0550 ca        1 BPC     -0.126000
      3 C3          2.1370    0.0250    1.1390 ca        1 BPC     -0.114000
      4 C3A         1.4630    0.0260    2.3670 ca        1 BPC     -0.035000
      5 C4          2.1630    0.0470    3.6230 ca        1 BPC     -0.111000
      6 C5          1.4960    0.0480    4.8040 ca        1 BPC     -0.122000
      7 C5A         0.0560    0.0320    4.8630 ca        1 BPC     -0.034000
      8 C6         -0.6510    0.0370    6.0850 ca        1 BPC     -0.055300
      9 C7         -2.0530    0.0160    6.0690 ca        1 BPC     -0.071300
     10 C8         -2.7550   -0.0170    4.8620 ca        1 BPC     -0.081000
     11 C8A        -2.0760   -0.0220    3.6410 ca        1 BPC     -0.039000
     12 C9         -2.7800   -0.0520    2.3850 ca        1 BPC     -0.109000
     13 C10        -2.1130   -0.0530    1.2050 ca        1 BPC     -0.119000
     14 C1A        -0.6740   -0.0250    1.1620 ca        1 BPC     -0.031000
     15 C3B         0.0450    0.0020    2.3860 ca        1 BPC     -0.015000
     16 C5B        -0.6580    0.0050    3.6360 ca        1 BPC     -0.010000
     17 C1'        -2.8260    0.0740    7.3510 c3        1 BPC      0.161400
     18 O1'        -4.0800   -0.5720    7.1720 oh        1 BPC     -0.600800
     19 C2'        -2.0400   -0.5830    8.4980 c3        1 BPC      0.116100
     20 O2'        -2.7910   -0.5200    9.6950 oh        1 BPC     -0.600800
     21 C3'        -0.6800    0.1070    8.6450 c3        1 BPC      0.113100
     22 O3'        -0.9610    1.4430    9.0520 oh        1 BPC     -0.611800
     23 C4'         0.1280    0.0440    7.3550 c3        1 BPC     -0.065100
     24 H1         -0.5260   -0.0450   -0.9980 ha        1 BPC      0.134000
     25 H2          1.9620    0.0000   -1.0140 ha        1 BPC      0.133000
     26 H3          3.2370    0.0440    1.1240 ha        1 BPC      0.133000
     27 H4          3.2640    0.0600    3.5940 ha        1 BPC      0.133000
     28 H5          2.0580    0.0590    5.7500 ha        1 BPC      0.128000
     29 H8         -3.8570   -0.0460    4.8830 ha        1 BPC      0.158000
     30 H9         -3.8810   -0.0760    2.4190 ha        1 BPC      0.137000
     31 H10        -2.6520   -0.0750    0.2450 ha        1 BPC      0.134000
     32 H1'        -3.0170    1.1570    7.6150 h1        1 BPC      0.064700
     33 HA         -4.4170   -0.7660    8.0580 ho        1 BPC      0.420000
     34 H2'        -1.8990   -1.6820    8.3040 h1        1 BPC      0.096700
     35 HB         -2.8070    0.4050    9.9780 ho        1 BPC      0.420000
     36 H3'        -0.0990   -0.3980    9.4700 h1        1 BPC      0.050700
     37 HC         -0.1190    1.9110    9.0970 ho        1 BPC      0.412000
     38 H4'1        0.7500   -0.8940    7.3850 hc        1 BPC      0.061200
     39 H4'2        0.8370    0.9180    7.3410 hc        1 BPC      0.061200
@<TRIPOS>BOND
     1    1    2 ar  
     2    1   14 ar  
     3    1   24 1   
     4    2    3 ar  
     5    2   25 1   
     6    3    4 ar  
     7    3   26 1   
     8    4    5 ar  
     9    4   15 ar  
    10    5    6 ar  
    11    5   27 1   
    12    6    7 ar  
    13    6   28 1   
    14    7    8 ar  
    15    7   16 ar  
    16    8    9 ar  
    17    8   23 1   
    18    9   10 ar  
    19    9   17 1   
    20   10   11 ar  
    21   10   29 1   
    22   11   12 ar  
    23   11   16 ar  
    24   12   13 ar  
    25   12   30 1   
    26   13   14 ar  
    27   13   31 1   
    28   14   15 ar  
    29   15   16 ar  
    30   17   18 1   
    31   17   19 1   
    32   17   32 1   
    33   18   33 1   
    34   19   20 1   
    35   19   21 1   
    36   19   34 1   
    37   20   35 1   
    38   21   22 1   
    39   21   23 1   
    40   21   36 1   
    41   22   37 1   
    42   23   38 1   
    43   23   39 1   
@<TRIPOS>SUBSTRUCTURE
     1 BPC         1 TEMP              0 ****  ****    0 ROOT
