@<TRIPOS>MOLECULE
BPC
   39    43     1     0     0
SMALL
bcc


@<TRIPOS>ATOM
      1 C1          0.0330    0.0340   -0.0320 ca        1 BPC     -0.113000
      2 C2          1.4260    0.0340   -0.0440 ca        1 BPC     -0.126000
      3 C3          2.1460    0.0210    1.1470 ca        1 BPC     -0.113000
      4 C3A         1.4770    0.0100    2.3780 ca        1 BPC     -0.035000
      5 C4          2.1830   -0.0090    3.6310 ca        1 BPC     -0.110000
      6 C5          1.5200   -0.0180    4.8150 ca        1 BPC     -0.122000
      7 C5A         0.0800   -0.0030    4.8800 ca        1 BPC     -0.031000
      8 C6         -0.6210   -0.0040    6.1050 ca        1 BPC     -0.063300
      9 C7         -2.0230   -0.0030    6.0950 ca        1 BPC     -0.085300
     10 C8         -2.7300   -0.0030    4.8900 ca        1 BPC     -0.080000
     11 C8A        -2.0580    0.0030    3.6660 ca        1 BPC     -0.038000
     12 C9         -2.7670    0.0090    2.4130 ca        1 BPC     -0.110000
     13 C10        -2.1040    0.0200    1.2300 ca        1 BPC     -0.116000
     14 C1A        -0.6660    0.0230    1.1820 ca        1 BPC     -0.031000
     15 C3B         0.0590    0.0140    2.4030 ca        1 BPC     -0.017000
     16 C5B        -0.6390    0.0060    3.6560 ca        1 BPC     -0.009000
     17 C1'        -2.8040    0.0410    7.3740 c3        1 BPC      0.161400
     18 O1'        -4.0290   -0.6560    7.1940 oh        1 BPC     -0.595800
     19 C2'        -2.0080   -0.5610    8.5440 c3        1 BPC      0.076100
     20 O2'        -2.7560   -0.4270    9.7370 oh        1 BPC     -0.599800
     21 C3'        -0.6400    0.1190    8.6540 c3        1 BPC      0.113100
     22 O3'        -0.8000    1.4760    9.0350 oh        1 BPC     -0.601800
     23 C4'         0.1630   -0.0370    7.3710 c3        1 BPC     -0.072100
     24 H1         -0.5260    0.0430   -0.9800 ha        1 BPC      0.135000
     25 H2          1.9620    0.0430   -1.0050 ha        1 BPC      0.134000
     26 H3          3.2470    0.0190    1.1280 ha        1 BPC      0.134000
     27 H4          3.2830   -0.0190    3.5980 ha        1 BPC      0.134000
     28 H5          2.0860   -0.0410    5.7590 ha        1 BPC      0.132000
     29 H8         -3.8330   -0.0200    4.9150 ha        1 BPC      0.157000
     30 H9         -3.8670    0.0020    2.4510 ha        1 BPC      0.137000
     31 H10        -2.6480    0.0250    0.2720 ha        1 BPC      0.135000
     32 H1'        -3.0500    1.1190    7.6150 h1        1 BPC      0.040700
     33 HA         -4.3730   -0.8390    8.0800 ho        1 BPC      0.422000
     34 H2'        -1.8890   -1.6710    8.3990 h1        1 BPC      0.099700
     35 HB         -2.6480    0.4850   10.0450 ho        1 BPC      0.418000
     36 H3'        -0.0730   -0.3310    9.5210 h1        1 BPC      0.090700
     37 HC         -1.0950    1.9670    8.2580 ho        1 BPC      0.408000
     38 H4'1        0.7100   -1.0190    7.4180 hc        1 BPC      0.070700
     39 H4'2        0.9360    0.7810    7.3540 hc        1 BPC      0.070700
@<TRIPOS>BOND
     1    1    2 ar  
     2    1   14 ar  
     3    1   24 1   
     4    2    3 ar  
     5    2   25 1   
     6    3    4 ar  
     7    3   26 1   
     8    4    5 ar  
     9    4   15 ar  
    10    5    6 ar  
    11    5   27 1   
    12    6    7 ar  
    13    6   28 1   
    14    7    8 ar  
    15    7   16 ar  
    16    8    9 ar  
    17    8   23 1   
    18    9   10 ar  
    19    9   17 1   
    20   10   11 ar  
    21   10   29 1   
    22   11   12 ar  
    23   11   16 ar  
    24   12   13 ar  
    25   12   30 1   
    26   13   14 ar  
    27   13   31 1   
    28   14   15 ar  
    29   15   16 ar  
    30   17   18 1   
    31   17   19 1   
    32   17   32 1   
    33   18   33 1   
    34   19   20 1   
    35   19   21 1   
    36   19   34 1   
    37   20   35 1   
    38   21   22 1   
    39   21   23 1   
    40   21   36 1   
    41   22   37 1   
    42   23   38 1   
    43   23   39 1   
@<TRIPOS>SUBSTRUCTURE
     1 BPC         1 TEMP              0 ****  ****    0 ROOT
