@<TRIPOS>MOLECULE
BPD
   40    38     1     0     0
SMALL
bcc


@<TRIPOS>ATOM
      1 F1         -4.5790    3.3440    1.8920 f         1 BPD     -0.181667
      2 F2         -2.9330    3.0010    3.2910 f         1 BPD     -0.181667
      3 F3         -4.4670    1.4680    3.0110 f         1 BPD     -0.181667
      4 O1          2.0170   -1.2380   -0.9730 os        1 BPD     -0.078000
      5 O2          3.4960    1.0310   -3.5930 o         1 BPD     -0.552000
      6 O3          5.0800    0.0200   -2.4870 o         1 BPD     -0.552000
      7 O4          2.4520   -4.7730   -1.7820 o         1 BPD     -0.552000
      8 O5          0.6540   -4.1430   -2.8440 o         1 BPD     -0.552000
      9 N1          0.2620   -0.0080    0.8500 n3        1 BPD     -0.120000
     10 C1         -3.7520    2.4220    2.4030 c3        1 BPD      0.467000
     11 C2         -2.9330    1.8070    1.2880 c2        1 BPD     -0.170000
     12 C3         -3.4230    1.8000   -0.0090 c2        1 BPD     -0.118000
     13 C4         -2.6890    1.2070   -1.0240 c1        1 BPD     -0.130000
     14 C5         -1.4650    0.6200   -0.7420 c1        1 BPD     -0.103000
     15 C6         -0.9750    0.6260    0.5540 c2        1 BPD      0.050000
     16 C7         -1.7090    1.2200    1.5700 c2        1 BPD     -0.084000
     17 C8          1.3370    0.7460    0.2700 c2        1 BPD     -0.082000
     18 C9          1.5270    2.0930    0.6290 c2        1 BPD     -0.132000
     19 C10         2.5690    2.8210    0.0680 c1        1 BPD     -0.178500
     20 C11         3.4260    2.2180   -0.8510 c1        1 BPD     -0.113000
     21 C12         3.2390    0.8870   -1.2060 c1        1 BPD     -0.072500
     22 C13         2.1850    0.1490   -0.6390 c1        1 BPD      0.075000
     23 C14         3.9830    0.6380   -2.5000 c2        1 BPD      0.382000
     24 C16         0.1520   -1.4150    0.5880 c2        1 BPD     -0.082000
     25 C17        -0.8090   -2.1850    1.2660 c2        1 BPD     -0.132000
     26 C18        -0.9070   -3.5500    1.0190 c1        1 BPD     -0.178500
     27 C19        -0.0520   -4.1550    0.0990 c1        1 BPD     -0.113000
     28 C20         0.8980   -3.3940   -0.5720 c1        1 BPD     -0.072500
     29 C21         0.9980   -2.0140   -0.3230 c1        1 BPD      0.075000
     30 C22         1.3620   -4.1440   -1.8020 c2        1 BPD      0.382000
     31 H3         -4.2850    2.2130   -0.2070 ha        1 BPD      0.127000
     32 H4         -3.0350    1.2020   -1.9380 ha        1 BPD      0.133000
     33 H5         -0.9370    0.2230   -1.4610 ha        1 BPD      0.181000
     34 H7         -1.3670    1.2190    2.4840 ha        1 BPD      0.153000
     35 H9          0.9270    2.5160    1.2720 ha        1 BPD      0.111000
     36 H10         2.7110    3.7510    0.3300 ha        1 BPD      0.100000
     37 H11         4.1570    2.7300   -1.2450 ha        1 BPD      0.133000
     38 H17        -1.4080   -1.7620    1.9100 ha        1 BPD      0.111000
     39 H18        -1.5750   -4.0850    1.4900 ha        1 BPD      0.100000
     40 H19        -0.1320   -5.1090   -0.0860 ha        1 BPD      0.133000
@<TRIPOS>BOND
     1    1   10 1   
     2    2   10 1   
     3    3   10 1   
     4    4   22 1   
     5    4   29 1   
     6    5   23 1   
     7    6   23 1   
     8    7   30 1   
     9    8   30 1   
    10    9   15 1   
    11    9   17 1   
    12    9   24 1   
    13   10   11 1   
    14   11   12 1   
    15   11   16 1   
    16   12   13 1   
    17   12   31 1   
    18   13   32 1   
    19   14   15 1   
    20   14   33 1   
    21   15   16 1   
    22   16   34 1   
    23   17   18 1   
    24   17   22 1   
    25   18   19 1   
    26   18   35 1   
    27   19   36 1   
    28   20   21 1   
    29   20   37 1   
    30   21   23 1   
    31   24   25 1   
    32   24   29 1   
    33   25   26 1   
    34   25   38 1   
    35   26   39 1   
    36   27   28 1   
    37   27   40 1   
    38   28   30 1   
@<TRIPOS>SUBSTRUCTURE
     1 BPD         1 TEMP              0 ****  ****    0 ROOT
