@<TRIPOS>MOLECULE
BPD
   40    43     1     0     0
SMALL
bcc


@<TRIPOS>ATOM
      1 F1          1.8930    1.9990   -0.4720 f         1 BPD     -0.246633
      2 F2          3.6750    0.8590   -0.9330 f         1 BPD     -0.246633
      3 F3          1.7190   -0.0310   -1.1770 f         1 BPD     -0.246633
      4 O1          7.6970   -0.0450    3.5960 os        1 BPD     -0.332800
      5 O2          9.9280    2.7860    4.2640 o         1 BPD     -0.815800
      6 O3          9.5320    2.5140    2.0770 o         1 BPD     -0.815800
      7 O4         10.0320   -2.5990    4.7460 o         1 BPD     -0.815800
      8 O5          9.6410   -2.7600    2.5460 o         1 BPD     -0.815800
      9 N1          4.8190   -0.0590    4.0520 na        1 BPD     -0.041200
     10 C1          2.4570    0.7510   -0.3150 c3        1 BPD      0.687200
     11 C2          2.4820    0.2520    1.1220 ca        1 BPD     -0.164300
     12 C3          1.2980   -0.2500    1.6710 ca        1 BPD     -0.121000
     13 C4          1.2980   -0.6930    2.9880 ca        1 BPD     -0.145000
     14 C5          2.4590   -0.6360    3.7570 ca        1 BPD     -0.107000
     15 C6          3.6620   -0.1430    3.2090 ca        1 BPD      0.020800
     16 C7          3.6550    0.3060    1.8670 ca        1 BPD     -0.089000
     17 C8          5.5700    1.1490    3.8920 ca        1 BPD     -0.152100
     18 C9          4.8960    2.3800    4.0190 ca        1 BPD     -0.154000
     19 C10         5.6020    3.5710    3.9290 ca        1 BPD     -0.172500
     20 C11         6.9760    3.5480    3.7050 ca        1 BPD     -0.117500
     21 C12         7.6830    2.3490    3.5770 ca        1 BPD     -0.153900
     22 C13         6.9730    1.1380    3.6910 ca        1 BPD      0.338500
     23 C14         9.1810    2.5200    3.2860 c         1 BPD      0.934200
     24 C16         5.6110   -1.2520    4.1070 ca        1 BPD     -0.152100
     25 C17         4.9920   -2.4730    4.4390 ca        1 BPD     -0.154000
     26 C18         5.7480   -3.6320    4.5480 ca        1 BPD     -0.172500
     27 C19         7.1200   -3.5910    4.3210 ca        1 BPD     -0.117500
     28 C20         7.7750   -2.4010    3.9910 ca        1 BPD     -0.153900
     29 C21         7.0130   -1.2200    3.9000 ca        1 BPD      0.338500
     30 C22         9.2800   -2.5540    3.7350 c         1 BPD      0.934200
     31 H3          0.3860   -0.2940    1.0590 ha        1 BPD      0.128000
     32 H4          0.3720   -1.0870    3.4310 ha        1 BPD      0.120000
     33 H5          2.4310   -0.9740    4.8060 ha        1 BPD      0.146000
     34 H7          4.5840    0.7010    1.4170 ha        1 BPD      0.181000
     35 H9          3.8090    2.3960    4.1860 ha        1 BPD      0.107000
     36 H10         5.0730    4.5280    4.0320 ha        1 BPD      0.099000
     37 H11         7.5390    4.4910    3.6270 ha        1 BPD      0.132000
     38 H17         3.9070   -2.5180    4.6080 ha        1 BPD      0.107000
     39 H18         5.2570   -4.5790    4.8110 ha        1 BPD      0.099000
     40 H19         7.7220   -4.5090    4.4000 ha        1 BPD      0.132000
@<TRIPOS>BOND
     1    1   10 1   
     2    2   10 1   
     3    3   10 1   
     4    4   22 1   
     5    4   29 1   
     6    5   23 1   
     7    6   23 1   
     8    7   30 1   
     9    8   30 1   
    10    9   15 1   
    11    9   17 1   
    12    9   24 1   
    13   10   11 1   
    14   11   12 ar  
    15   11   16 ar  
    16   12   13 ar  
    17   12   31 1   
    18   13   14 ar  
    19   13   32 1   
    20   14   15 ar  
    21   14   33 1   
    22   15   16 ar  
    23   16   34 1   
    24   17   18 ar  
    25   17   22 ar  
    26   18   19 ar  
    27   18   35 1   
    28   19   20 ar  
    29   19   36 1   
    30   20   21 ar  
    31   20   37 1   
    32   21   22 ar  
    33   21   23 1   
    34   24   25 ar  
    35   24   29 ar  
    36   25   26 ar  
    37   25   38 1   
    38   26   27 ar  
    39   26   39 1   
    40   27   28 ar  
    41   27   40 1   
    42   28   29 ar  
    43   28   30 1   
@<TRIPOS>SUBSTRUCTURE
     1 BPD         1 TEMP              0 ****  ****    0 ROOT
