@<TRIPOS>MOLECULE
BPD
   40    43     1     0     0
SMALL
bcc


@<TRIPOS>ATOM
      1 F1          1.9020    2.0000   -0.4800 f         1 BPD     -0.246633
      2 F2          3.6810    0.8530   -0.9350 f         1 BPD     -0.246633
      3 F3          1.7220   -0.0320   -1.1770 f         1 BPD     -0.246633
      4 O1          7.6950   -0.0570    3.5890 os        1 BPD     -0.332800
      5 O2          9.9450    2.7660    4.2390 o         1 BPD     -0.815800
      6 O3          9.5400    2.4860    2.0540 o         1 BPD     -0.815800
      7 O4         10.0200   -2.6180    4.7460 o         1 BPD     -0.815800
      8 O5          9.6190   -2.7870    2.5490 o         1 BPD     -0.815800
      9 N1          4.8180   -0.0520    4.0540 na        1 BPD     -0.041200
     10 C1          2.4610    0.7520   -0.3170 c3        1 BPD      0.687200
     11 C2          2.4840    0.2580    1.1220 ca        1 BPD     -0.164300
     12 C3          1.2970   -0.2370    1.6720 ca        1 BPD     -0.121000
     13 C4          1.2940   -0.6740    2.9910 ca        1 BPD     -0.145000
     14 C5          2.4550   -0.6200    3.7610 ca        1 BPD     -0.107000
     15 C6          3.6610   -0.1340    3.2110 ca        1 BPD      0.020800
     16 C7          3.6570    0.3090    1.8670 ca        1 BPD     -0.089000
     17 C8          5.5760    1.1510    3.8870 ca        1 BPD     -0.152100
     18 C9          4.9090    2.3870    4.0120 ca        1 BPD     -0.153000
     19 C10         5.6220    3.5730    3.9150 ca        1 BPD     -0.172500
     20 C11         6.9950    3.5410    3.6870 ca        1 BPD     -0.117500
     21 C12         7.6950    2.3380    3.5610 ca        1 BPD     -0.153900
     22 C13         6.9780    1.1320    3.6830 ca        1 BPD      0.338000
     23 C14         9.1920    2.4990    3.2650 c         1 BPD      0.934200
     24 C16         5.6040   -1.2490    4.1160 ca        1 BPD     -0.152100
     25 C17         4.9800   -2.4640    4.4590 ca        1 BPD     -0.153000
     26 C18         5.7300   -3.6260    4.5740 ca        1 BPD     -0.172500
     27 C19         7.1010   -3.5940    4.3400 ca        1 BPD     -0.117500
     28 C20         7.7610   -2.4100    4.0000 ca        1 BPD     -0.153900
     29 C21         7.0060   -1.2250    3.9030 ca        1 BPD      0.338000
     30 C22         9.2650   -2.5740    3.7390 c         1 BPD      0.934200
     31 H3          0.3850   -0.2790    1.0600 ha        1 BPD      0.128000
     32 H4          0.3670   -1.0630    3.4360 ha        1 BPD      0.120000
     33 H5          2.4260   -0.9530    4.8100 ha        1 BPD      0.146000
     34 H7          4.5880    0.6980    1.4150 ha        1 BPD      0.181000
     35 H9          3.8230    2.4090    4.1830 ha        1 BPD      0.107000
     36 H10         5.0990    4.5330    4.0160 ha        1 BPD      0.099000
     37 H11         7.5630    4.4810    3.6030 ha        1 BPD      0.132000
     38 H17         3.8950   -2.5010    4.6320 ha        1 BPD      0.107000
     39 H18         5.2350   -4.5680    4.8450 ha        1 BPD      0.099000
     40 H19         7.6990   -4.5140    4.4250 ha        1 BPD      0.132000
@<TRIPOS>BOND
     1    1   10 1   
     2    2   10 1   
     3    3   10 1   
     4    4   22 1   
     5    4   29 1   
     6    5   23 1   
     7    6   23 1   
     8    7   30 1   
     9    8   30 1   
    10    9   15 1   
    11    9   17 1   
    12    9   24 1   
    13   10   11 1   
    14   11   12 ar  
    15   11   16 ar  
    16   12   13 ar  
    17   12   31 1   
    18   13   14 ar  
    19   13   32 1   
    20   14   15 ar  
    21   14   33 1   
    22   15   16 ar  
    23   16   34 1   
    24   17   18 ar  
    25   17   22 ar  
    26   18   19 ar  
    27   18   35 1   
    28   19   20 ar  
    29   19   36 1   
    30   20   21 ar  
    31   20   37 1   
    32   21   22 ar  
    33   21   23 1   
    34   24   25 ar  
    35   24   29 ar  
    36   25   26 ar  
    37   25   38 1   
    38   26   27 ar  
    39   26   39 1   
    40   27   28 ar  
    41   27   40 1   
    42   28   29 ar  
    43   28   30 1   
@<TRIPOS>SUBSTRUCTURE
     1 BPD         1 TEMP              0 ****  ****    0 ROOT
