@<TRIPOS>MOLECULE
BPD
   40    43     1     0     0
SMALL
bcc


@<TRIPOS>ATOM
      1 F1         -1.9990   -1.4990   -4.8500 f         1 BPD     -0.246633
      2 F2          0.0330   -2.0440   -5.3230 f         1 BPD     -0.246633
      3 F3         -0.8550   -2.7080   -3.4650 f         1 BPD     -0.246633
      4 O1          0.0540   -0.4840    2.1500 os        1 BPD     -0.332800
      5 O2          2.6150   -0.5090    4.7500 o         1 BPD     -0.815800
      6 O3          2.7820   -2.2830    3.3940 o         1 BPD     -0.815800
      7 O4         -2.7700   -0.9210    4.4500 o         1 BPD     -0.815800
      8 O5         -2.4910   -2.6850    3.0990 o         1 BPD     -0.815800
      9 N1          0.0510    1.2350   -0.2040 na        1 BPD     -0.041200
     10 C1         -0.7510   -1.6080   -4.2760 c3        1 BPD      0.687200
     11 C2         -0.2560   -0.3340   -3.6080 ca        1 BPD     -0.164300
     12 C3          0.2420    0.6910   -4.4200 ca        1 BPD     -0.121000
     13 C4          0.6800    1.8690   -3.8280 ca        1 BPD     -0.145000
     14 C5          0.6240    2.0340   -2.4450 ca        1 BPD     -0.108000
     15 C6          0.1360    1.0020   -1.6160 ca        1 BPD      0.020800
     16 C7         -0.3090   -0.1960   -2.2250 ca        1 BPD     -0.089000
     17 C8          1.2470    0.9360    0.5270 ca        1 BPD     -0.152100
     18 C9          2.4620    1.5270    0.1290 ca        1 BPD     -0.153000
     19 C10         3.6230    1.2900    0.8520 ca        1 BPD     -0.172500
     20 C11         3.5910    0.4600    1.9670 ca        1 BPD     -0.117500
     21 C12         2.4070   -0.1460    2.3990 ca        1 BPD     -0.153900
     22 C13         1.2230    0.1100    1.6800 ca        1 BPD      0.338000
     23 C14         2.5700   -1.0620    3.6190 c         1 BPD      0.934200
     24 C16        -1.1520    0.7440    0.3970 ca        1 BPD     -0.152100
     25 C17        -2.3870    1.1600   -0.1410 ca        1 BPD     -0.153000
     26 C18        -3.5740    0.7530    0.4510 ca        1 BPD     -0.172500
     27 C19        -3.5430   -0.0740    1.5710 ca        1 BPD     -0.117500
     28 C20        -2.3410   -0.5050    2.1380 ca        1 BPD     -0.153900
     29 C21        -1.1340   -0.0730    1.5530 ca        1 BPD      0.338000
     30 C22        -2.5030   -1.4480    3.3370 c         1 BPD      0.934200
     31 H3          0.2850    0.5550   -5.5090 ha        1 BPD      0.128000
     32 H4          1.0710    2.6830   -4.4560 ha        1 BPD      0.120000
     33 H5          0.9580    2.9850   -1.9990 ha        1 BPD      0.146000
     34 H7         -0.7000   -1.0170   -1.5970 ha        1 BPD      0.181000
     35 H9          2.5000    2.1740   -0.7580 ha        1 BPD      0.107000
     36 H10         4.5650    1.7590    0.5360 ha        1 BPD      0.099000
     37 H11         4.5100    0.2640    2.5400 ha        1 BPD      0.132000
     38 H17        -2.4090    1.8050   -1.0310 ha        1 BPD      0.107000
     39 H18        -4.5340    1.0810    0.0300 ha        1 BPD      0.099000
     40 H19        -4.4830   -0.4040    2.0390 ha        1 BPD      0.132000
@<TRIPOS>BOND
     1    1   10 1   
     2    2   10 1   
     3    3   10 1   
     4    4   22 1   
     5    4   29 1   
     6    5   23 1   
     7    6   23 1   
     8    7   30 1   
     9    8   30 1   
    10    9   15 1   
    11    9   17 1   
    12    9   24 1   
    13   10   11 1   
    14   11   12 ar  
    15   11   16 ar  
    16   12   13 ar  
    17   12   31 1   
    18   13   14 ar  
    19   13   32 1   
    20   14   15 ar  
    21   14   33 1   
    22   15   16 ar  
    23   16   34 1   
    24   17   18 ar  
    25   17   22 ar  
    26   18   19 ar  
    27   18   35 1   
    28   19   20 ar  
    29   19   36 1   
    30   20   21 ar  
    31   20   37 1   
    32   21   22 ar  
    33   21   23 1   
    34   24   25 ar  
    35   24   29 ar  
    36   25   26 ar  
    37   25   38 1   
    38   26   27 ar  
    39   26   39 1   
    40   27   28 ar  
    41   27   40 1   
    42   28   29 ar  
    43   28   30 1   
@<TRIPOS>SUBSTRUCTURE
     1 BPD         1 TEMP              0 ****  ****    0 ROOT
