@<TRIPOS>MOLECULE
BPD
   40    43     1     0     0
SMALL
bcc


@<TRIPOS>ATOM
      1 F1          1.5280    2.0650   -0.2190 f         1 BPD     -0.247300
      2 F2          3.2050    0.8810   -0.9060 f         1 BPD     -0.247300
      3 F3          1.2090    0.0510   -0.9200 f         1 BPD     -0.247300
      4 O1          7.8150   -0.0090    3.9890 os        1 BPD     -0.331800
      5 O2          9.8630    2.9080    4.6540 o         1 BPD     -0.816050
      6 O3          9.8640    2.4270    2.4660 o         1 BPD     -0.816050
      7 O4          9.8210   -2.4030    5.5250 o         1 BPD     -0.816050
      8 O5         10.0800   -2.8040    3.3370 o         1 BPD     -0.816050
      9 N1          4.9160   -0.0760    3.9030 na        1 BPD     -0.043200
     10 C1          2.0670    0.8000   -0.1440 c3        1 BPD      0.687200
     11 C2          2.2550    0.2780    1.2720 ca        1 BPD     -0.166300
     12 C3          1.1450   -0.2370    1.9460 ca        1 BPD     -0.121000
     13 C4          1.3000   -0.7040    3.2470 ca        1 BPD     -0.143000
     14 C5          2.5420   -0.6580    3.8760 ca        1 BPD     -0.106000
     15 C6          3.6740   -0.1480    3.2010 ca        1 BPD      0.026800
     16 C7          3.5070    0.3250    1.8770 ca        1 BPD     -0.095000
     17 C8          5.6540    1.1350    3.7150 ca        1 BPD     -0.137100
     18 C9          4.9600    2.3530    3.5710 ca        1 BPD     -0.172500
     19 C10         5.6610    3.5460    3.4620 ca        1 BPD     -0.167500
     20 C11         7.0510    3.5390    3.4820 ca        1 BPD     -0.121000
     21 C12         7.7790    2.3530    3.6260 ca        1 BPD     -0.151400
     22 C13         7.0710    1.1450    3.7640 ca        1 BPD      0.337500
     23 C14         9.3030    2.5340    3.5890 c         1 BPD      0.934200
     24 C16         5.6990   -1.2740    3.9050 ca        1 BPD     -0.137100
     25 C17         5.0690   -2.5330    3.8880 ca        1 BPD     -0.172500
     26 C18         5.8220   -3.6950    4.0010 ca        1 BPD     -0.167500
     27 C19         7.2030   -3.6180    4.1360 ca        1 BPD     -0.121000
     28 C20         7.8720   -2.3890    4.1480 ca        1 BPD     -0.151400
     29 C21         7.1140   -1.2120    4.0060 ca        1 BPD      0.337500
     30 C22         9.3900   -2.4960    4.3450 c         1 BPD      0.934200
     31 H3          0.1670   -0.2740    1.4460 ha        1 BPD      0.128000
     32 H4          0.4330   -1.1090    3.7880 ha        1 BPD      0.122000
     33 H5          2.6450   -1.0240    4.9100 ha        1 BPD      0.152000
     34 H7          4.3740    0.7380    1.3310 ha        1 BPD      0.177000
     35 H9          3.8610    2.3650    3.5510 ha        1 BPD      0.107000
     36 H10         5.1110    4.4910    3.3570 ha        1 BPD      0.099000
     37 H11         7.6120    4.4820    3.3870 ha        1 BPD      0.132000
     38 H17         3.9780   -2.6140    3.7840 ha        1 BPD      0.107000
     39 H18         5.3190   -4.6710    3.9830 ha        1 BPD      0.099000
     40 H19         7.8040   -4.5350    4.2320 ha        1 BPD      0.132000
@<TRIPOS>BOND
     1    1   10 1   
     2    2   10 1   
     3    3   10 1   
     4    4   22 1   
     5    4   29 1   
     6    5   23 1   
     7    6   23 1   
     8    7   30 1   
     9    8   30 1   
    10    9   15 1   
    11    9   17 1   
    12    9   24 1   
    13   10   11 1   
    14   11   12 ar  
    15   11   16 ar  
    16   12   13 ar  
    17   12   31 1   
    18   13   14 ar  
    19   13   32 1   
    20   14   15 ar  
    21   14   33 1   
    22   15   16 ar  
    23   16   34 1   
    24   17   18 ar  
    25   17   22 ar  
    26   18   19 ar  
    27   18   35 1   
    28   19   20 ar  
    29   19   36 1   
    30   20   21 ar  
    31   20   37 1   
    32   21   22 ar  
    33   21   23 1   
    34   24   25 ar  
    35   24   29 ar  
    36   25   26 ar  
    37   25   38 1   
    38   26   27 ar  
    39   26   39 1   
    40   27   28 ar  
    41   27   40 1   
    42   28   29 ar  
    43   28   30 1   
@<TRIPOS>SUBSTRUCTURE
     1 BPD         1 TEMP              0 ****  ****    0 ROOT
