@<TRIPOS>MOLECULE
BPE
   26    25     1     0     0
SMALL
bcc


@<TRIPOS>ATOM
      1 N          -2.6850   -1.4350   -0.4710 n3        1 BPE     -0.888800
      2 CA         -2.3470   -0.1430    0.0890 c3        1 BPE      0.182500
      3 CB         -1.0520    0.4310   -0.4850 c3        1 BPE     -0.022300
      4 SG          0.3050   -0.5890    0.0020 ss        1 BPE     -0.248200
      5 C05         1.6600    0.5120   -0.2790 c3        1 BPE     -0.027300
      6 C          -3.4360    0.9460   -0.0840 c3        1 BPE      0.085400
      7 O          -4.6340    0.4270    0.4680 oh        1 BPE     -0.604800
      8 C08         2.9240   -0.2440    0.0390 c3        1 BPE     -0.074400
      9 C09         4.1330    0.6850   -0.0800 c3        1 BPE      0.161800
     10 N10         5.3930    0.0130    0.1310 n3        1 BPE     -0.915800
     11 HN1        -3.5390   -1.7630   -0.0600 hn        1 BPE      0.355800
     12 HN2        -2.8010   -1.3750   -1.4630 hn        1 BPE      0.355800
     13 HA         -2.2090   -0.3040    1.2020 h1        1 BPE      0.086700
     14 HB1        -0.9070    1.4680   -0.0930 h1        1 BPE      0.057700
     15 HB2        -1.1070    0.4970   -1.5990 h1        1 BPE      0.057700
     16 H051        1.5680    1.4170    0.3700 h1        1 BPE      0.055200
     17 H052        1.6690    0.8610   -1.3410 h1        1 BPE      0.055200
     18 H1         -3.1310    1.8770    0.4610 h1        1 BPE      0.025200
     19 H2         -3.5880    1.1870   -1.1690 h1        1 BPE      0.025200
     20 HO         -5.2930    1.1280    0.4080 ho        1 BPE      0.405000
     21 H081        3.0380   -1.1100   -0.6670 hc        1 BPE      0.063200
     22 H082        2.8650   -0.6620    1.0790 hc        1 BPE      0.063200
     23 H091        3.9790    1.5500    0.6330 h1        1 BPE      0.023700
     24 H092        4.1570    1.1190   -1.1210 h1        1 BPE      0.023700
     25 H101        6.1370    0.6790    0.1900 hn        1 BPE      0.350300
     26 H102        5.3740   -0.5370    0.9670 hn        1 BPE      0.350300
@<TRIPOS>BOND
     1    1    2 1   
     2    1   11 1   
     3    1   12 1   
     4    2    3 1   
     5    2    6 1   
     6    2   13 1   
     7    3    4 1   
     8    3   14 1   
     9    3   15 1   
    10    4    5 1   
    11    5    8 1   
    12    5   16 1   
    13    5   17 1   
    14    6    7 1   
    15    6   18 1   
    16    6   19 1   
    17    7   20 1   
    18    8    9 1   
    19    8   21 1   
    20    8   22 1   
    21    9   10 1   
    22    9   23 1   
    23    9   24 1   
    24   10   25 1   
    25   10   26 1   
@<TRIPOS>SUBSTRUCTURE
     1 BPE         1 TEMP              0 ****  ****    0 ROOT
