@<TRIPOS>MOLECULE
BPE
   26    25     1     0     0
SMALL
bcc


@<TRIPOS>ATOM
      1 N          -2.3310   -1.0610   -2.4710 n3        1 BPE     -0.907800
      2 CA         -0.9420   -1.0570   -2.3220 c3        1 BPE      0.133500
      3 CB         -0.5850   -1.1430   -0.8250 c3        1 BPE     -0.053300
      4 SG         -0.1550    0.4890   -0.2200 ss        1 BPE     -0.318200
      5 C05         0.4060    0.3700    1.4580 c3        1 BPE      0.000700
      6 C          -0.3480   -2.2550   -3.0610 c3        1 BPE      0.141400
      7 O          -0.6460   -2.1450   -4.4750 oh        1 BPE     -0.597800
      8 C08         0.8580    1.7620    1.9490 c3        1 BPE     -0.116400
      9 C09         1.2760    1.6730    3.4030 c3        1 BPE      0.154800
     10 N10         1.6180    2.9850    3.8840 n3        1 BPE     -0.904800
     11 HN1        -2.5990   -0.2730   -2.8190 hn        1 BPE      0.357300
     12 HN2        -2.7240   -1.1830   -1.6570 hn        1 BPE      0.357300
     13 HA         -0.5800   -0.2370   -2.6940 h1        1 BPE      0.086700
     14 HB1         0.1810   -1.7510   -0.7040 h1        1 BPE      0.064200
     15 HB2        -1.3720   -1.4920   -0.3130 h1        1 BPE      0.064200
     16 H051        1.1450   -0.2420    1.5060 h1        1 BPE      0.061200
     17 H052       -0.3310    0.0430    2.0300 h1        1 BPE      0.061200
     18 H1          0.6240   -2.2690   -2.9320 h1        1 BPE      0.043700
     19 H2         -0.7350   -3.0800   -2.7090 h1        1 BPE      0.043700
     20 HO         -0.3160   -2.8500   -4.9030 ho        1 BPE      0.416000
     21 H081        0.1030    2.4100    1.8570 hc        1 BPE      0.055200
     22 H082        1.6080    2.0630    1.4160 hc        1 BPE      0.055200
     23 H091        2.0390    1.0940    3.4820 h1        1 BPE      0.052200
     24 H092        0.5240    1.3070    3.9420 h1        1 BPE      0.052200
     25 H101        0.9210    3.5740    3.7050 hn        1 BPE      0.347800
     26 H102        2.3620    3.2690    3.4740 hn        1 BPE      0.347800
@<TRIPOS>BOND
     1    1    2 1   
     2    1   11 1   
     3    1   12 1   
     4    2    3 1   
     5    2    6 1   
     6    2   13 1   
     7    3    4 1   
     8    3   14 1   
     9    3   15 1   
    10    4    5 1   
    11    5    8 1   
    12    5   16 1   
    13    5   17 1   
    14    6    7 1   
    15    6   18 1   
    16    6   19 1   
    17    7   20 1   
    18    8    9 1   
    19    8   21 1   
    20    8   22 1   
    21    9   10 1   
    22    9   23 1   
    23    9   24 1   
    24   10   25 1   
    25   10   26 1   
@<TRIPOS>SUBSTRUCTURE
     1 BPE         1 TEMP              0 ****  ****    0 ROOT
