@<TRIPOS>MOLECULE
BPF
   53    45     1     0     0
SMALL
bcc


@<TRIPOS>ATOM
      1 C1          0.7050   -0.0280    2.5080 c1        1 BPF      0.047000
      2 C2          1.0520   -1.2160    3.1250 c1        1 BPF     -0.093000
      3 C3          1.7560   -1.1950    4.3300 c1        1 BPF     -0.093000
      4 C4          2.1120    0.0320    4.9140 c1        1 BPF     -0.161000
      5 C5          1.7630    1.2200    4.2930 c1        1 BPF     -0.079500
      6 C6          1.0610    1.1990    3.0930 c1        1 BPF     -0.106000
      7 O1          0.4840    0.0470   -0.0610 os        1 BPF     -0.097000
      8 CA         -0.0620   -0.0490    1.1930 c2        1 BPF     -0.014000
      9 CB         -1.4360   -0.1340    1.0570 c1        1 BPF     -0.135000
     10 CB'        -1.7330   -0.0910   -0.2820 c1        1 BPF     -0.135000
     11 CA'        -0.5470    0.0210   -0.9780 c1        1 BPF     -0.014000
     12 C7          3.0020    0.0550    6.1540 c2        1 BPF      0.327000
     13 N1          4.3610    0.1270    6.0180 n3        1 BPF     -0.323000
     14 N2          2.4470    0.0000    7.3930 n2        1 BPF     -0.256000
     15 C8          1.0360   -0.0780    7.5360 c2        1 BPF     -0.044000
     16 C9          0.6620    0.0350    9.0090 c3        1 BPF     -0.244000
     17 C1'        -0.5290    0.0110   -2.5410 c1        1 BPF      0.047000
     18 C2'        -0.5170    1.2130   -3.2430 c2        1 BPF     -0.106000
     19 C3'        -0.5570    1.2070   -4.6350 c1        1 BPF     -0.083000
     20 C4'        -0.6080   -0.0080   -5.3310 c1        1 BPF     -0.161000
     21 C5'        -0.6200   -1.2050   -4.6350 c1        1 BPF     -0.079500
     22 C6'        -0.5800   -1.2030   -3.2350 c1        1 BPF     -0.110000
     23 C7'        -0.5630   -0.0120   -6.8930 c2        1 BPF      0.327000
     24 N1'         0.6680   -0.0100   -7.5560 n3        1 BPF     -0.323000
     25 N2'        -1.7230   -0.0160   -7.6080 n2        1 BPF     -0.256000
     26 C8'        -3.0130   -0.0170   -6.9130 c2        1 BPF     -0.044000
     27 C9'        -4.1230    0.0740   -7.9190 c3        1 BPF     -0.244000
     28 H2          0.7960   -2.1020    2.7030 ha        1 BPF      0.162500
     29 H3          1.9980   -2.0200    4.7590 ha        1 BPF      0.162500
     30 H5          2.0150    2.0940    4.7090 ha        1 BPF      0.156500
     31 H6          0.8140    2.0390    2.6550 ha        1 BPF      0.169000
     32 HB         -2.0730   -0.2100    1.7780 DU        1 BPF      0.183000
     33 HB'        -2.6390   -0.1330   -0.6780 DU        1 BPF      0.183000
     34 HN1         4.8820    0.1040    6.7390 hn        1 BPF      0.275000
     35 H8          0.7160   -0.9470    7.1820 ha        1 BPF      0.120500
     36 H91         1.0000    0.8900    9.3730 hc        1 BPF      0.112333
     37 H92         1.0620   -0.7200    9.5110 hc        1 BPF      0.112333
     38 H93        -0.3270    0.0060    9.0990 hc        1 BPF      0.112333
     39 H2'        -0.4820    2.0560   -2.7640 ha        1 BPF      0.169000
     40 H3'        -0.5480    2.0780   -5.1450 ha        1 BPF      0.155000
     41 H5'        -0.6560   -2.0670   -5.1310 ha        1 BPF      0.156500
     42 H6'        -0.5880   -2.0450   -2.7450 ha        1 BPF      0.167000
     43 HN11        1.4470   -0.0230   -7.0730 hn        1 BPF      0.275000
     44 HN12        0.6970    0.0340   -8.4830 hn        1 BPF      0.275000
     45 H8'1       -3.1030   -0.8280   -6.4090 ha        1 BPF      0.120500
     46 H8'2       -3.0570    0.7440   -6.3120 ha        1 BPF      0.120500
     47 H9'1       -3.9010   -0.4890   -8.7080 hc        1 BPF      0.112333
     48 H9'2       -4.9860   -0.2510   -7.5040 hc        1 BPF      0.112333
     49 H9'3       -4.2300    1.0170   -8.2060 hc        1 BPF      0.112333
     50 H23         4.7370    0.1610    5.1840 hn        1 BPF      0.275000
     51 H24         2.9990    0.0140    8.1560 hn        1 BPF      0.266000
     52 H25         0.6250    0.6360    7.0480 ha        1 BPF      0.120500
     53 H26        -1.6960   -0.0180   -8.5340 hn        1 BPF      0.266000
@<TRIPOS>BOND
     1    1    6 1   
     2    1    8 1   
     3    2    3 1   
     4    2   28 1   
     5    3   29 1   
     6    4    5 1   
     7    4   12 1   
     8    5   30 1   
     9    6   31 1   
    10    7    8 1   
    11    7   11 1   
    12    8    9 1   
    13    9   10 1   
    14   10   11 1   
    15   12   13 1   
    16   12   14 1   
    17   13   34 1   
    18   13   50 1   
    19   14   51 1   
    20   15   16 1   
    21   15   35 1   
    22   15   52 1   
    23   16   36 1   
    24   16   37 1   
    25   16   38 1   
    26   17   18 1   
    27   17   22 1   
    28   18   19 1   
    29   18   39 1   
    30   19   40 1   
    31   20   21 1   
    32   20   23 1   
    33   21   41 1   
    34   22   42 1   
    35   23   24 1   
    36   23   25 1   
    37   24   43 1   
    38   24   44 1   
    39   25   53 1   
    40   26   27 1   
    41   26   45 1   
    42   26   46 1   
    43   27   47 1   
    44   27   48 1   
    45   27   49 1   
@<TRIPOS>SUBSTRUCTURE
     1 BPF         1 TEMP              0 ****  ****    0 ROOT
