@<TRIPOS>MOLECULE
BPF
   53    55     1     0     0
SMALL
bcc


@<TRIPOS>ATOM
      1 C1          2.4140    0.8840   -0.2230 cc        1 BPF      0.049000
      2 C2          2.5530   -0.5130   -0.2790 cc        1 BPF     -0.106500
      3 C3          3.8120   -1.0920   -0.4020 cd        1 BPF     -0.079000
      4 C4          4.9490   -0.2760   -0.4620 cd        1 BPF     -0.165000
      5 C5          4.8240    1.1180   -0.4020 cd        1 BPF     -0.079000
      6 C6          3.5630    1.6930   -0.2870 cc        1 BPF     -0.106500
      7 O1          0.0000    0.6610   -0.0020 os        1 BPF     -0.355800
      8 CA          1.1190    1.5040   -0.1040 cd        1 BPF      0.180700
      9 CB          0.7160    2.8340   -0.0680 cd        1 BPF     -0.200300
     10 CB'        -0.7160    2.8340    0.0610 cc        1 BPF     -0.200300
     11 CA'        -1.1190    1.5040    0.0990 cc        1 BPF      0.180700
     12 C7          6.3000   -0.8920   -0.5930 c2        1 BPF      0.485000
     13 N1          6.4940   -1.8090   -1.5680 nh        1 BPF     -0.806600
     14 N2          7.2680   -0.5070    0.2690 nh        1 BPF     -0.702000
     15 C8          8.6330   -1.0010    0.2480 c3        1 BPF      0.178800
     16 C9          9.5020   -0.3690    1.3210 c3        1 BPF     -0.122100
     17 C1'        -2.4140    0.8840    0.2190 cd        1 BPF      0.049000
     18 C2'        -2.5520   -0.5130    0.2780 cd        1 BPF     -0.106500
     19 C3'        -3.8120   -1.0910    0.4020 cc        1 BPF     -0.079000
     20 C4'        -4.9490   -0.2760    0.4600 cc        1 BPF     -0.165000
     21 C5'        -4.8240    1.1180    0.3970 cc        1 BPF     -0.079000
     22 C6'        -3.5630    1.6940    0.2810 cd        1 BPF     -0.106500
     23 C7'        -6.3000   -0.8910    0.5920 c2        1 BPF      0.485000
     24 N1'        -6.4940   -1.8060    1.5690 nh        1 BPF     -0.806600
     25 N2'        -7.2670   -0.5080   -0.2710 nh        1 BPF     -0.702000
     26 C8'        -8.6330   -1.0020   -0.2490 c3        1 BPF      0.178800
     27 C9'        -9.5020   -0.3730   -1.3240 c3        1 BPF     -0.122100
     28 H2          1.6550   -1.1520   -0.2250 ha        1 BPF      0.168500
     29 H3          3.9020   -2.1900   -0.4340 ha        1 BPF      0.155500
     30 H5          5.7110    1.7690   -0.4630 ha        1 BPF      0.155500
     31 H6          3.4660    2.7910   -0.2470 ha        1 BPF      0.168500
     32 HB          1.3450    3.7200   -0.1270 ha        1 BPF      0.183000
     33 HB'        -1.3450    3.7200    0.1180 ha        1 BPF      0.183000
     34 HN1         5.7410   -2.0200   -2.1870 hn        1 BPF      0.480800
     35 H8          8.6140   -2.1210    0.3980 h1        1 BPF      0.074200
     36 H91         9.1130   -0.5870    2.3450 hc        1 BPF      0.075033
     37 H92        10.5300   -0.8050    1.2360 hc        1 BPF      0.075033
     38 H93         9.5790    0.7370    1.1890 hc        1 BPF      0.075033
     39 H2'        -1.6550   -1.1510    0.2250 ha        1 BPF      0.168500
     40 H3'        -3.9020   -2.1890    0.4360 ha        1 BPF      0.155500
     41 H5'        -5.7110    1.7700    0.4570 ha        1 BPF      0.155500
     42 H6'        -3.4660    2.7910    0.2390 ha        1 BPF      0.168500
     43 HN11       -5.7410   -2.0160    2.1880 hn        1 BPF      0.480800
     44 HN12       -7.3680   -2.2630    1.7140 hn        1 BPF      0.480800
     45 H8'1       -8.6130   -2.1220   -0.3960 h1        1 BPF      0.074200
     46 H8'2       -9.0800   -0.7830    0.7650 h1        1 BPF      0.074200
     47 H9'1       -9.5780    0.7340   -1.1950 hc        1 BPF      0.075033
     48 H9'2       -9.1120   -0.5920   -2.3480 hc        1 BPF      0.075033
     49 H9'3      -10.5290   -0.8080   -1.2380 hc        1 BPF      0.075033
     50 H23         7.3680   -2.2670   -1.7120 hn        1 BPF      0.480800
     51 H24         7.0250    0.1620    0.9750 hn        1 BPF      0.486800
     52 H25         9.0800   -0.7840   -0.7670 h1        1 BPF      0.074200
     53 H26        -7.0240    0.1600   -0.9790 hn        1 BPF      0.486800
@<TRIPOS>BOND
     1    1    2 1   
     2    1    6 1   
     3    1    8 2   
     4    2    3 2   
     5    2   28 1   
     6    3    4 1   
     7    3   29 1   
     8    4    5 1   
     9    4   12 2   
    10    5    6 2   
    11    5   30 1   
    12    6   31 1   
    13    7    8 1   
    14    7   11 1   
    15    8    9 1   
    16    9   10 2   
    17    9   32 1   
    18   10   11 1   
    19   10   33 1   
    20   11   17 2   
    21   12   13 1   
    22   12   14 1   
    23   13   34 1   
    24   13   50 1   
    25   14   15 1   
    26   14   51 1   
    27   15   16 1   
    28   15   35 1   
    29   15   52 1   
    30   16   36 1   
    31   16   37 1   
    32   16   38 1   
    33   17   18 1   
    34   17   22 1   
    35   18   19 2   
    36   18   39 1   
    37   19   20 1   
    38   19   40 1   
    39   20   21 1   
    40   20   23 2   
    41   21   22 2   
    42   21   41 1   
    43   22   42 1   
    44   23   24 1   
    45   23   25 1   
    46   24   43 1   
    47   24   44 1   
    48   25   26 1   
    49   25   53 1   
    50   26   27 1   
    51   26   45 1   
    52   26   46 1   
    53   27   47 1   
    54   27   48 1   
    55   27   49 1   
@<TRIPOS>SUBSTRUCTURE
     1 BPF         1 TEMP              0 ****  ****    0 ROOT
