@<TRIPOS>MOLECULE
BPG
   39    41     1     0     0
SMALL
bcc


@<TRIPOS>ATOM
      1 C3'         0.7310    1.1580    4.8780 c3        1 BPG      0.133400
      2 O3'         0.2760    0.6920    6.1390 oh        1 BPG     -0.601800
      3 C2'         0.9410   -0.0680    4.0050 c3        1 BPG     -0.084400
      4 C12         1.4580    0.3380    2.6440 c3        1 BPG     -0.102400
      5 C1'         1.6510   -0.9090    1.7780 c3        1 BPG      0.045300
      6 N9          2.1650   -0.6530    0.4650 na        1 BPG     -0.195900
      7 C4          1.4400   -0.2700   -0.6670 cc        1 BPG      0.099800
      8 N3          0.0700   -0.1320   -0.8180 nc        1 BPG     -0.647100
      9 C2         -0.3240    0.2100   -2.0630 cd        1 BPG      0.677800
     10 N2         -1.7150    0.2920   -2.3800 nh        1 BPG     -0.678600
     11 N1          0.5560    0.4700   -3.1350 n         1 BPG     -0.507400
     12 C6          1.9670    0.3440   -3.0220 c         1 BPG      0.649000
     13 O6          2.6470    0.5780   -4.0320 o         1 BPG     -0.597500
     14 C5          2.4180   -0.0450   -1.7020 cd        1 BPG      0.182800
     15 N7          3.7050   -0.2690   -1.2110 nd        1 BPG     -0.585000
     16 C8          3.5280   -0.6160    0.0780 cc        1 BPG      0.394400
     17 C04        -4.7480   -0.6990    0.3880 ca        1 BPG     -0.136000
     18 C05        -4.7240    0.5620   -0.2050 ca        1 BPG     -0.115500
     19 C06        -3.7040    0.9090   -1.0860 ca        1 BPG     -0.134500
     20 C01        -2.6900   -0.0220   -1.3970 ca        1 BPG      0.122600
     21 C02        -2.7210   -1.2960   -0.7940 ca        1 BPG     -0.134500
     22 C03        -3.7450   -1.6200    0.0910 ca        1 BPG     -0.115500
     23 H3'1       -0.0340    1.8420    4.4220 h1        1 BPG      0.023700
     24 H3'2        1.6940    1.7240    5.0030 h1        1 BPG      0.023700
     25 H3'         0.1320    1.4740    6.6850 ho        1 BPG      0.402000
     26 H2'1        1.6640   -0.7600    4.5100 hc        1 BPG      0.058200
     27 H2'2       -0.0310   -0.6190    3.9050 hc        1 BPG      0.058200
     28 H121        0.7300    1.0350    2.1510 hc        1 BPG      0.057200
     29 H122        2.4300    0.8870    2.7540 hc        1 BPG      0.057200
     30 H1'1        2.3690   -1.6090    2.2950 h1        1 BPG      0.069700
     31 H1'2        0.6570   -1.4330    1.6710 h1        1 BPG      0.069700
     32 HN21       -1.9490    1.1070   -2.9140 hn        1 BPG      0.420800
     33 HN1         0.1930    0.6800   -4.0400 hn        1 BPG      0.336500
     34 H8          4.3270   -0.8690    0.7830 h5        1 BPG      0.067100
     35 H051       -5.5130    1.2940    0.0260 ha        1 BPG      0.136000
     36 H061       -3.7030    1.9120   -1.5400 ha        1 BPG      0.140500
     37 H021       -1.9380   -2.0380   -1.0160 ha        1 BPG      0.140500
     38 H031       -3.7600   -2.6170    0.5570 ha        1 BPG      0.136000
     39 H041       -5.5540   -0.9650    1.0870 ha        1 BPG      0.136000
@<TRIPOS>BOND
     1    1    2 1   
     2    1    3 1   
     3    1   23 1   
     4    1   24 1   
     5    2   25 1   
     6    3    4 1   
     7    3   26 1   
     8    3   27 1   
     9    4    5 1   
    10    4   28 1   
    11    4   29 1   
    12    5    6 1   
    13    5   30 1   
    14    5   31 1   
    15    6    7 1   
    16    6   16 1   
    17    7    8 1   
    18    7   14 2   
    19    8    9 2   
    20    9   10 1   
    21    9   11 1   
    22   10   20 1   
    23   10   32 1   
    24   11   12 1   
    25   11   33 1   
    26   12   13 2   
    27   12   14 1   
    28   14   15 1   
    29   15   16 2   
    30   16   34 1   
    31   17   18 ar  
    32   17   22 ar  
    33   17   39 1   
    34   18   19 ar  
    35   18   35 1   
    36   19   20 ar  
    37   19   36 1   
    38   20   21 ar  
    39   21   22 ar  
    40   21   37 1   
    41   22   38 1   
@<TRIPOS>SUBSTRUCTURE
     1 BPG         1 TEMP              0 ****  ****    0 ROOT
