@<TRIPOS>MOLECULE
BPG
   40    42     1     0     0
SMALL
bcc


@<TRIPOS>ATOM
      1 C3'         0.6670   -0.8900    2.0090 c3        1 BPG      0.126400
      2 O3'         0.8710    0.3550    2.6520 oh        1 BPG     -0.606800
      3 C2'        -0.6280   -1.5460    2.4670 c3        1 BPG     -0.117400
      4 C12        -1.8230   -0.7510    1.9860 c3        1 BPG     -0.099400
      5 C1'        -3.0810   -1.1900    2.7340 c3        1 BPG      0.032300
      6 N9         -4.2820   -0.5020    2.3360 na        1 BPG     -0.155900
      7 C4         -4.5680    0.8590    2.4950 cc        1 BPG      0.017800
      8 N3         -3.8180    1.8580    3.0990 nc        1 BPG     -0.544100
      9 C2         -4.4000    3.0590    3.0680 cd        1 BPG      0.522800
     10 N2         -3.6150    4.1650    3.7290 n4        1 BPG     -0.585400
     11 N1         -5.6400    3.3890    2.5240 n         1 BPG     -0.490400
     12 C6         -6.4550    2.3960    1.8840 c         1 BPG      0.646000
     13 O6         -7.5290    2.7710    1.4140 o         1 BPG     -0.520500
     14 C5         -5.8660    1.0650    1.8920 cd        1 BPG      0.267800
     15 N7         -6.3490   -0.1260    1.3760 nd        1 BPG     -0.574000
     16 C8         -5.3850   -1.0410    1.6480 cc        1 BPG      0.448400
     17 C04        -3.5220    7.7470    1.4480 ca        1 BPG     -0.064000
     18 C05        -4.4850    7.5820    2.4470 ca        1 BPG     -0.100000
     19 C06        -4.5330    6.4090    3.1940 ca        1 BPG     -0.101000
     20 C01        -3.5930    5.3940    2.9320 ca        1 BPG     -0.073400
     21 C02        -2.6220    5.5500    1.9260 ca        1 BPG     -0.101000
     22 C03        -2.5970    6.7350    1.1920 ca        1 BPG     -0.100000
     23 H3'1        0.6240   -0.6390    0.9150 h1        1 BPG      0.059200
     24 H3'2        1.5330   -1.5780    2.1980 h1        1 BPG      0.059200
     25 H3'         1.1220    0.1680    3.5640 ho        1 BPG      0.401000
     26 H2'1       -0.6720   -2.5910    2.0650 hc        1 BPG      0.054200
     27 H2'2       -0.6330   -1.6110    3.5870 hc        1 BPG      0.054200
     28 H121       -1.9530   -0.8970    0.8820 hc        1 BPG      0.065200
     29 H122       -1.6290    0.3410    2.1630 hc        1 BPG      0.065200
     30 H1'1       -2.9340   -1.0190    3.8400 h1        1 BPG      0.078200
     31 H1'2       -3.2520   -2.2930    2.5640 h1        1 BPG      0.078200
     32 HN21       -2.6450    3.8410    3.8770 hn        1 BPG      0.479800
     33 HN1        -5.9470    4.3390    2.4790 hn        1 BPG      0.351500
     34 H8         -5.4390   -2.1060    1.3800 h5        1 BPG      0.094100
     35 H061       -5.2950    6.2990    3.9830 ha        1 BPG      0.162500
     36 H021       -1.8860    4.7580    1.7080 ha        1 BPG      0.162500
     37 H031       -1.8360    6.8650    0.4030 ha        1 BPG      0.176000
     38 H041       -3.4940    8.6810    0.8600 ha        1 BPG      0.175000
     39 H22        -4.0490    4.3520    4.6440 hn        1 BPG      0.479800
     40 H051       -5.2160    8.3840    2.6480 ha        1 BPG      0.176000
@<TRIPOS>BOND
     1    1    2 1   
     2    1    3 1   
     3    1   23 1   
     4    1   24 1   
     5    2   25 1   
     6    3    4 1   
     7    3   26 1   
     8    3   27 1   
     9    4    5 1   
    10    4   28 1   
    11    4   29 1   
    12    5    6 1   
    13    5   30 1   
    14    5   31 1   
    15    6    7 1   
    16    6   16 1   
    17    7    8 1   
    18    7   14 2   
    19    8    9 2   
    20    9   10 1   
    21    9   11 1   
    22   10   20 1   
    23   10   32 1   
    24   10   39 1   
    25   11   12 1   
    26   11   33 1   
    27   12   13 2   
    28   12   14 1   
    29   14   15 1   
    30   15   16 2   
    31   16   34 1   
    32   17   18 ar  
    33   17   22 ar  
    34   17   38 1   
    35   18   19 ar  
    36   18   40 1   
    37   19   20 ar  
    38   19   35 1   
    39   20   21 ar  
    40   21   22 ar  
    41   21   36 1   
    42   22   37 1   
@<TRIPOS>SUBSTRUCTURE
     1 BPG         1 TEMP              0 ****  ****    0 ROOT
