@<TRIPOS>MOLECULE
BPG
   39    35     1     0     0
SMALL
bcc


@<TRIPOS>ATOM
      1 C3'         2.8780   -4.6920   -2.7890 c3        1 BPG     -0.017000
      2 O3'         3.8510   -5.6370   -2.4330 oh        1 BPG     -0.329000
      3 C2'         2.7380   -3.6530   -1.6600 c3        1 BPG     -0.163000
      4 C12         1.4770   -2.8300   -1.8730 c3        1 BPG     -0.182000
      5 C1'         1.0790   -2.1520   -0.5440 c3        1 BPG     -0.013000
      6 N9         -0.3170   -1.9360   -0.5240 n3        1 BPG     -0.156000
      7 C4         -0.9600   -0.7930   -0.2020 c1        1 BPG      0.061000
      8 N3         -0.5260    0.6090   -0.1770 n1        1 BPG     -0.246000
      9 C2         -1.4730    1.6550    0.1530 c1        1 BPG      0.240000
     10 N2         -1.1070    3.0010   -0.0010 n2        1 BPG     -0.237000
     11 N1         -2.8120    1.3220    0.4510 n         1 BPG     -0.341000
     12 C6         -3.2240   -0.0140    0.4290 c2        1 BPG      0.397000
     13 O6         -4.3120   -0.3060    0.8270 o         1 BPG     -0.324000
     14 C5         -2.2440   -1.1010    0.0510 c2        1 BPG     -0.243000
     15 N7         -2.3950   -2.4290   -0.1140 n2        1 BPG     -0.058000
     16 C8         -1.2070   -2.9450   -0.4680 c1        1 BPG     -0.096000
     17 C04        -0.3770    5.5280    3.3400 c1        1 BPG     -0.125000
     18 C05         0.6570    5.2320    2.4350 c1        1 BPG     -0.125000
     19 C06         0.4180    4.3810    1.3540 c1        1 BPG     -0.125000
     20 C01        -0.8390    3.8270    1.1730 c1        1 BPG     -0.001000
     21 C02        -1.8790    4.1250    2.0820 c1        1 BPG     -0.128000
     22 C03        -1.6400    4.9720    3.1590 c1        1 BPG     -0.125000
     23 H3'1        2.0070   -5.1500   -2.9300 h1        1 BPG      0.063000
     24 H3'2        3.1550   -4.2290   -3.6410 h1        1 BPG      0.063000
     25 H3'         3.7560   -6.3710   -2.9410 ho        1 BPG      0.201000
     26 H2'1        2.6840   -4.1230   -0.7780 hc        1 BPG      0.096500
     27 H2'2        3.4980   -3.0750   -1.6660 hc        1 BPG      0.096500
     28 H121        0.7380   -3.4220   -2.1770 hc        1 BPG      0.097000
     29 H122        1.6450   -2.1490   -2.5450 hc        1 BPG      0.097000
     30 H1'1        1.3280   -2.7220    0.1970 h1        1 BPG      0.107500
     31 H1'2        1.5630   -1.2550   -0.4600 h1        1 BPG      0.107500
     32 HN21       -1.0000    3.3440   -0.8240 hn        1 BPG      0.236000
     33 HN1        -3.4130    1.9830    0.6610 hn        1 BPG      0.255000
     34 H8         -1.0490   -3.8490   -0.7430 DU        1 BPG      0.203000
     35 H041       -0.2060    6.1370    4.1120 ha        1 BPG      0.140750
     36 H051        1.5330    5.6160    2.5600 ha        1 BPG      0.140750
     37 H061        1.1260    4.1780    0.7350 ha        1 BPG      0.140750
     38 H021       -2.7590    3.7380    1.9570 ha        1 BPG      0.150000
     39 H031       -2.3920    5.1870    3.8160 ha        1 BPG      0.140750
@<TRIPOS>BOND
     1    1    2 1   
     2    1    3 1   
     3    1   23 1   
     4    1   24 1   
     5    2   25 1   
     6    3    4 1   
     7    3   26 1   
     8    3   27 1   
     9    4    5 1   
    10    4   28 1   
    11    4   29 1   
    12    5    6 1   
    13    5   30 1   
    14    5   31 1   
    15    6    7 1   
    16    6   16 1   
    17    7   14 1   
    18    8    9 1   
    19    9   11 1   
    20   10   20 1   
    21   10   32 1   
    22   11   12 1   
    23   11   33 1   
    24   12   13 1   
    25   12   14 1   
    26   14   15 1   
    27   15   16 1   
    28   17   22 1   
    29   17   35 1   
    30   18   19 1   
    31   18   36 1   
    32   19   37 1   
    33   20   21 1   
    34   21   38 1   
    35   22   39 1   
@<TRIPOS>SUBSTRUCTURE
     1 BPG         1 TEMP              0 ****  ****    0 ROOT
