@<TRIPOS>MOLECULE
BPG
   39    41     1     0     0
SMALL
bcc


@<TRIPOS>ATOM
      1 C3'         0.0010   -0.0330   -0.0890 c3        1 BPG      0.133400
      2 O3'         1.4130   -0.1400    0.0110 oh        1 BPG     -0.601800
      3 C2'        -0.5490   -0.1320    1.3240 c3        1 BPG     -0.084400
      4 C12        -2.0590   -0.0590    1.3070 c3        1 BPG     -0.102400
      5 C1'        -2.5900   -0.1490    2.7390 c3        1 BPG      0.045300
      6 N9         -4.0190   -0.1150    2.8510 na        1 BPG     -0.195900
      7 C4         -4.8390    1.0180    2.8700 cc        1 BPG      0.099800
      8 N3         -4.4760    2.3540    2.8740 nc        1 BPG     -0.647100
      9 C2         -5.5140    3.2150    2.9450 cd        1 BPG      0.677800
     10 N2         -5.2770    4.6200    3.0540 nu        1 BPG     -0.678600
     11 N1         -6.8710    2.8290    2.9570 ns        1 BPG     -0.507400
     12 C6         -7.2870    1.4700    2.9500 c         1 BPG      0.649000
     13 O6         -8.5040    1.2410    2.9810 o         1 BPG     -0.597500
     14 C5         -6.1920    0.5220    2.8980 cd        1 BPG      0.182800
     15 N7         -6.1990   -0.8730    2.8800 nd        1 BPG     -0.585000
     16 C8         -4.9000   -1.2250    2.8390 cc        1 BPG      0.394400
     17 C04        -1.3980    6.2610    3.3770 ca        1 BPG     -0.136000
     18 C05        -2.2490    6.6670    2.3500 ca        1 BPG     -0.115500
     19 C06        -3.5120    6.1010    2.2140 ca        1 BPG     -0.134500
     20 C01        -3.9490    5.1150    3.1260 ca        1 BPG      0.122600
     21 C02        -3.0830    4.7100    4.1630 ca        1 BPG     -0.134500
     22 C03        -1.8200    5.2830    4.2760 ca        1 BPG     -0.115500
     23 H3'1       -0.2780    0.9510   -0.5530 h1        1 BPG      0.023700
     24 H3'2       -0.4010   -0.8630   -0.7300 h1        1 BPG      0.023700
     25 H3'         1.7580   -0.0620   -0.8860 ho        1 BPG      0.402000
     26 H2'1       -0.1240    0.7000    1.9440 hc        1 BPG      0.058200
     27 H2'2       -0.2080   -1.0960    1.7840 hc        1 BPG      0.058200
     28 H121       -2.4740   -0.8950    0.6860 hc        1 BPG      0.057200
     29 H122       -2.3890    0.9060    0.8390 hc        1 BPG      0.057200
     30 H1'1       -2.1700    0.7110    3.3370 h1        1 BPG      0.069700
     31 H1'2       -2.2350   -1.1140    3.2030 h1        1 BPG      0.069700
     32 HN21       -5.8640    5.1650    2.4510 hn        1 BPG      0.420800
     33 HN1        -7.5860    3.5180    3.0500 hn        1 BPG      0.336500
     34 H8         -4.5200   -2.2520    2.8180 h5        1 BPG      0.067100
     35 H051       -1.9210    7.4380    1.6360 ha        1 BPG      0.136000
     36 H061       -4.1660    6.4340    1.3930 ha        1 BPG      0.140500
     37 H021       -3.3980    3.9390    4.8820 ha        1 BPG      0.140500
     38 H031       -1.1510    4.9590    5.0880 ha        1 BPG      0.136000
     39 H041       -0.3990    6.7100    3.4760 ha        1 BPG      0.136000
@<TRIPOS>BOND
     1    1    2 1   
     2    1    3 1   
     3    1   23 1   
     4    1   24 1   
     5    2   25 1   
     6    3    4 1   
     7    3   26 1   
     8    3   27 1   
     9    4    5 1   
    10    4   28 1   
    11    4   29 1   
    12    5    6 1   
    13    5   30 1   
    14    5   31 1   
    15    6    7 1   
    16    6   16 1   
    17    7    8 1   
    18    7   14 2   
    19    8    9 2   
    20    9   10 1   
    21    9   11 1   
    22   10   20 1   
    23   10   32 1   
    24   11   12 1   
    25   11   33 1   
    26   12   13 2   
    27   12   14 1   
    28   14   15 1   
    29   15   16 2   
    30   16   34 1   
    31   17   18 ar  
    32   17   22 ar  
    33   17   39 1   
    34   18   19 ar  
    35   18   35 1   
    36   19   20 ar  
    37   19   36 1   
    38   20   21 ar  
    39   21   22 ar  
    40   21   37 1   
    41   22   38 1   
@<TRIPOS>SUBSTRUCTURE
     1 BPG         1 TEMP              0 ****  ****    0 ROOT
