@<TRIPOS>MOLECULE
BPI
   37    40     1     0     0
SMALL
bcc


@<TRIPOS>ATOM
      1 C1          0.0130    0.0950    0.1910 c3        1 BPI     -0.074100
      2 C2          1.4740   -0.2780   -0.0730 c3        1 BPI      0.114100
      3 O2          2.1530    0.7600   -0.7680 oh        1 BPI     -0.613800
      4 C3          2.2660   -0.5280    1.2180 c3        1 BPI      0.119100
      5 O3          2.9350    0.6300    1.6910 oh        1 BPI     -0.610800
      6 C4          1.3560   -0.9650    2.3890 c3        1 BPI      0.190400
      7 O4          2.0790   -1.8510    3.2340 oh        1 BPI     -0.598800
      8 C5         -0.3440   -2.8250    2.5250 ca        1 BPI     -0.094000
      9 C6         -1.5090   -3.4160    2.0810 ca        1 BPI     -0.124000
     10 C7         -3.4690   -3.4540    0.5930 ca        1 BPI     -0.115000
     11 C8         -4.2520   -2.8710   -0.3480 ca        1 BPI     -0.117000
     12 C9         -4.9120   -0.8730   -1.6340 ca        1 BPI     -0.118000
     13 C10        -4.7790    0.4720   -1.9160 ca        1 BPI     -0.127000
     14 C11        -3.7590    1.2120   -1.2960 ca        1 BPI     -0.130000
     15 C12        -2.8530    0.5890   -0.4580 ca        1 BPI     -0.126000
     16 C13        -0.6580   -1.0080    0.9320 ca        1 BPI     -0.065300
     17 C14         0.0950   -1.6290    1.9330 ca        1 BPI     -0.080300
     18 C15        -2.3080   -2.7810    1.1060 ca        1 BPI     -0.034000
     19 C16        -1.9440   -1.5060    0.6000 ca        1 BPI     -0.013000
     20 C17        -2.9080   -0.8040   -0.2240 ca        1 BPI     -0.019000
     21 C18        -4.0100   -1.5170   -0.7590 ca        1 BPI     -0.036000
     22 H11A       -0.4800    0.2710   -0.8020 hc        1 BPI      0.066700
     23 H12A       -0.0210    1.0490    0.7820 hc        1 BPI      0.066700
     24 H2          1.5030   -1.2130   -0.7030 h1        1 BPI      0.052700
     25 HO2         1.5950    1.0200   -1.5090 ho        1 BPI      0.415000
     26 H3          3.0320   -1.3320    1.0190 h1        1 BPI      0.056700
     27 HO3         3.3920    1.0360    0.9430 ho        1 BPI      0.430000
     28 H4          1.0740   -0.0400    2.9780 h1        1 BPI      0.068700
     29 HO4         2.8410   -1.3500    3.5520 ho        1 BPI      0.417000
     30 H5          0.2660   -3.2910    3.3160 ha        1 BPI      0.159000
     31 H6         -1.8290   -4.3880    2.4840 ha        1 BPI      0.136000
     32 H7         -3.6850   -4.4650    0.9700 ha        1 BPI      0.135000
     33 H8         -5.1100   -3.4010   -0.7890 ha        1 BPI      0.135000
     34 H9         -5.7350   -1.4570   -2.0750 ha        1 BPI      0.134000
     35 H10        -5.4780    0.9730   -2.6020 ha        1 BPI      0.134000
     36 H11        -3.6940    2.2960   -1.4700 ha        1 BPI      0.133000
     37 H12        -2.1110    1.2050    0.0730 ha        1 BPI      0.136000
@<TRIPOS>BOND
     1    1    2 1   
     2    1   16 1   
     3    1   22 1   
     4    1   23 1   
     5    2    3 1   
     6    2    4 1   
     7    2   24 1   
     8    3   25 1   
     9    4    5 1   
    10    4    6 1   
    11    4   26 1   
    12    5   27 1   
    13    6    7 1   
    14    6   17 1   
    15    6   28 1   
    16    7   29 1   
    17    8    9 ar  
    18    8   17 ar  
    19    8   30 1   
    20    9   18 ar  
    21    9   31 1   
    22   10   11 ar  
    23   10   18 ar  
    24   10   32 1   
    25   11   21 ar  
    26   11   33 1   
    27   12   13 ar  
    28   12   21 ar  
    29   12   34 1   
    30   13   14 ar  
    31   13   35 1   
    32   14   15 ar  
    33   14   36 1   
    34   15   20 ar  
    35   15   37 1   
    36   16   17 ar  
    37   16   19 ar  
    38   18   19 ar  
    39   19   20 ar  
    40   20   21 ar  
@<TRIPOS>SUBSTRUCTURE
     1 BPI         1 TEMP              0 ****  ****    0 ROOT
