@<TRIPOS>MOLECULE
BPI
   37    34     1     0     0
SMALL
bcc


@<TRIPOS>ATOM
      1 C1          1.1070    0.5920   -0.8420 c3        1 BPI     -0.160000
      2 C2          2.5530    0.5920   -0.8420 c3        1 BPI      0.003000
      3 O2          3.0130    1.8130   -1.5890 oh        1 BPI     -0.341000
      4 C3          3.2260    0.5920    0.4900 c3        1 BPI      0.008000
      5 O3          2.9720    1.9260    1.1330 oh        1 BPI     -0.338000
      6 C4          2.8180   -0.4350    1.4260 c3        1 BPI      0.072000
      7 O4          3.5940   -1.6150    1.1560 oh        1 BPI     -0.326000
      8 C5          0.7410   -1.8110    2.2420 c1        1 BPI     -0.094000
      9 C6         -0.6400   -2.1380    2.1820 c1        1 BPI     -0.118500
     10 C7         -2.8870   -1.7810    1.1730 c1        1 BPI     -0.118500
     11 C8         -3.7270   -1.1280    0.2630 c1        1 BPI     -0.118500
     12 C9         -4.0470    0.5220   -1.5200 c1        1 BPI     -0.118500
     13 C10        -3.5330    1.4940   -2.3700 c1        1 BPI     -0.128500
     14 C11        -2.1760    1.8220   -2.3170 c1        1 BPI     -0.128500
     15 C12        -1.3400    1.1760   -1.4150 c1        1 BPI     -0.126000
     16 C13         0.3850   -0.2590    0.3250 c2        1 BPI     -0.058000
     17 C14         1.2560   -0.8510    1.4060 c2        1 BPI     -0.073000
     18 C15        -1.5210   -1.4510    1.2250 c1        1 BPI     -0.035000
     19 C16        -1.0020   -0.4710    0.3700 c1        1 BPI     -0.013000
     20 C17        -1.8600    0.1920   -0.5560 c1        1 BPI     -0.019000
     21 C18        -3.2010   -0.1320   -0.6070 c1        1 BPI     -0.035000
     22 H11A        0.8060    1.5180   -0.7700 hc        1 BPI      0.106000
     23 H12A        0.8060    0.2400   -1.7010 hc        1 BPI      0.106000
     24 H2          2.8550   -0.1970   -1.3320 h1        1 BPI      0.092000
     25 HO2         3.5740    1.5720   -2.2340 ho        1 BPI      0.214000
     26 H3          4.1870    0.5020    0.3430 h1        1 BPI      0.096000
     27 HO3         3.7430    2.2770    1.3990 ho        1 BPI      0.229000
     28 H4          3.0370   -0.1270    2.3260 h1        1 BPI      0.108000
     29 HO4         4.1990   -1.7240    1.7960 ho        1 BPI      0.216000
     30 H5          1.3230   -2.2650    2.8800 ha        1 BPI      0.159000
     31 H6         -1.0040   -2.8200    2.7770 ha        1 BPI      0.135000
     32 H7         -3.2590   -2.4210    1.8080 ha        1 BPI      0.135000
     33 H8         -4.6750   -1.3570    0.2260 ha        1 BPI      0.135000
     34 H9         -4.9950    0.2930   -1.5570 ha        1 BPI      0.135000
     35 H10        -4.1210    1.9480   -3.0030 ha        1 BPI      0.133500
     36 H11        -1.8150    2.5050   -2.9140 ha        1 BPI      0.133500
     37 H12        -0.3920    1.4040   -1.3780 ha        1 BPI      0.136000
@<TRIPOS>BOND
     1    1    2 1   
     2    1   16 1   
     3    1   22 1   
     4    1   23 1   
     5    2    3 1   
     6    2    4 1   
     7    2   24 1   
     8    3   25 1   
     9    4    5 1   
    10    4    6 1   
    11    4   26 1   
    12    5   27 1   
    13    6    7 1   
    14    6   17 1   
    15    6   28 1   
    16    7   29 1   
    17    8   17 1   
    18    8   30 1   
    19    9   18 1   
    20    9   31 1   
    21   10   18 1   
    22   10   32 1   
    23   11   21 1   
    24   11   33 1   
    25   12   21 1   
    26   12   34 1   
    27   13   14 1   
    28   13   35 1   
    29   14   36 1   
    30   15   20 1   
    31   15   37 1   
    32   16   17 1   
    33   16   19 1   
    34   19   20 1   
@<TRIPOS>SUBSTRUCTURE
     1 BPI         1 TEMP              0 ****  ****    0 ROOT
