@<TRIPOS>MOLECULE
BPI
   37    40     1     0     0
SMALL
bcc


@<TRIPOS>ATOM
      1 C1          1.2430    0.0980   -0.9170 c3        1 BPI     -0.079100
      2 C2          1.2850    0.9110   -2.2100 c3        1 BPI      0.155100
      3 O2          2.6100    1.2780   -2.5350 oh        1 BPI     -0.590800
      4 C3          0.6270    0.1400   -3.3620 c3        1 BPI      0.082100
      5 O3          1.5940   -0.7990   -3.8170 oh        1 BPI     -0.608800
      6 C4         -0.6580   -0.6030   -2.9400 c3        1 BPI      0.155400
      7 O4         -1.6770   -0.3410   -3.8930 oh        1 BPI     -0.596800
      8 C5         -2.4800   -0.3530   -1.2470 ca        1 BPI     -0.118000
      9 C6         -2.9190   -0.1060    0.0350 ca        1 BPI     -0.121000
     10 C7         -2.4660    0.4180    2.3950 ca        1 BPI     -0.121000
     11 C8         -1.6000    0.5950    3.4230 ca        1 BPI     -0.111000
     12 C9          0.6660    0.3700    4.3660 ca        1 BPI     -0.118000
     13 C10         1.9780   -0.0440    4.2550 ca        1 BPI     -0.125000
     14 C11         2.4380   -0.5650    3.0340 ca        1 BPI     -0.128000
     15 C12         1.6060   -0.6040    1.9310 ca        1 BPI     -0.122000
     16 C13        -0.1690   -0.1400   -0.5110 ca        1 BPI     -0.042300
     17 C14        -1.1010   -0.3380   -1.5320 ca        1 BPI     -0.126300
     18 C15        -1.9920    0.0660    1.0860 ca        1 BPI     -0.031000
     19 C16        -0.6010   -0.0650    0.8410 ca        1 BPI     -0.012000
     20 C17         0.2860   -0.1020    1.9880 ca        1 BPI     -0.018000
     21 C18        -0.2030    0.3110    3.2540 ca        1 BPI     -0.038000
     22 H11A        1.7750   -0.8770   -1.0860 hc        1 BPI      0.073700
     23 H12A        1.7970    0.6800   -0.1330 hc        1 BPI      0.073700
     24 H2          0.7500    1.8930   -2.0690 h1        1 BPI      0.082700
     25 HO2         3.0890    0.4700   -2.7680 ho        1 BPI      0.418000
     26 H3          0.3850    0.8570   -4.1970 h1        1 BPI      0.055700
     27 HO3         1.2540   -1.1710   -4.6400 ho        1 BPI      0.417000
     28 H4         -0.4810   -1.7180   -3.0430 h1        1 BPI      0.096700
     29 HO4        -1.9710    0.5700   -3.7640 ho        1 BPI      0.405000
     30 H5         -3.1970   -0.5460   -2.0600 ha        1 BPI      0.147000
     31 H6         -3.9950   -0.0460    0.2560 ha        1 BPI      0.137000
     32 H7         -3.5490    0.5630    2.5280 ha        1 BPI      0.135000
     33 H8         -1.9460    0.9210    4.4160 ha        1 BPI      0.135000
     34 H9          0.2750    0.7370    5.3270 ha        1 BPI      0.134000
     35 H10         2.6570    0.0080    5.1180 ha        1 BPI      0.134000
     36 H11         3.4660   -0.9520    2.9630 ha        1 BPI      0.134000
     37 H12         1.9740   -1.0830    1.0120 ha        1 BPI      0.139000
@<TRIPOS>BOND
     1    1    2 1   
     2    1   16 1   
     3    1   22 1   
     4    1   23 1   
     5    2    3 1   
     6    2    4 1   
     7    2   24 1   
     8    3   25 1   
     9    4    5 1   
    10    4    6 1   
    11    4   26 1   
    12    5   27 1   
    13    6    7 1   
    14    6   17 1   
    15    6   28 1   
    16    7   29 1   
    17    8    9 ar  
    18    8   17 ar  
    19    8   30 1   
    20    9   18 ar  
    21    9   31 1   
    22   10   11 ar  
    23   10   18 ar  
    24   10   32 1   
    25   11   21 ar  
    26   11   33 1   
    27   12   13 ar  
    28   12   21 ar  
    29   12   34 1   
    30   13   14 ar  
    31   13   35 1   
    32   14   15 ar  
    33   14   36 1   
    34   15   20 ar  
    35   15   37 1   
    36   16   17 ar  
    37   16   19 ar  
    38   18   19 ar  
    39   19   20 ar  
    40   20   21 ar  
@<TRIPOS>SUBSTRUCTURE
     1 BPI         1 TEMP              0 ****  ****    0 ROOT
