@<TRIPOS>MOLECULE
BPJ
   37    40     1     0     0
SMALL
bcc


@<TRIPOS>ATOM
      1 C1         -1.4140    0.0180   -0.8040 c3        1 BPJ     -0.080100
      2 C2         -1.7280   -0.5570   -2.1840 c3        1 BPJ      0.144100
      3 O2         -1.3050   -1.9030   -2.3270 oh        1 BPJ     -0.578800
      4 C3         -0.9880    0.2940   -3.2210 c3        1 BPJ      0.158100
      5 O3         -1.3750   -0.1380   -4.5120 oh        1 BPJ     -0.585800
      6 C4          0.5290    0.1550   -3.0170 c3        1 BPJ      0.154400
      7 O4          1.0890    1.2320   -3.7640 oh        1 BPJ     -0.611800
      8 C5          2.3370    0.0890   -1.3300 ca        1 BPJ     -0.129000
      9 C6          2.8090   -0.0720   -0.0490 ca        1 BPJ     -0.115000
     10 C7          2.4180   -0.4320    2.3440 ca        1 BPJ     -0.118000
     11 C8          1.5840   -0.5360    3.4060 ca        1 BPJ     -0.115000
     12 C9         -0.6310   -0.1920    4.4160 ca        1 BPJ     -0.118000
     13 C10        -1.9250    0.2840    4.3470 ca        1 BPJ     -0.125000
     14 C11        -2.3990    0.8120    3.1360 ca        1 BPJ     -0.130000
     15 C12        -1.6070    0.7910    2.0030 ca        1 BPJ     -0.127000
     16 C13         0.0450    0.1200   -0.5120 ca        1 BPJ     -0.037300
     17 C14         0.9490    0.1550   -1.5740 ca        1 BPJ     -0.098300
     18 C15         1.9110   -0.1130    1.0390 ca        1 BPJ     -0.033000
     19 C16         0.5230    0.0910    0.8330 ca        1 BPJ     -0.012000
     20 C17        -0.3150    0.2160    2.0130 ca        1 BPJ     -0.018000
     21 C18         0.1980   -0.1930    3.2710 ca        1 BPJ     -0.037000
     22 H11A       -1.8740    1.0440   -0.7700 hc        1 BPJ      0.064700
     23 H12A       -1.9090   -0.6250   -0.0270 hc        1 BPJ      0.064700
     24 H2         -2.8360   -0.4970   -2.3770 h1        1 BPJ      0.053700
     25 HO2        -1.7470   -2.4050   -1.6310 ho        1 BPJ      0.401000
     26 H3         -1.2870    1.3730   -3.0890 h1        1 BPJ      0.053700
     27 HO3        -0.7930    0.3170   -5.1360 ho        1 BPJ      0.416000
     28 H4          0.8650   -0.8210   -3.4800 h1        1 BPJ      0.074700
     29 HO4         2.0170    1.3160   -3.5190 ho        1 BPJ      0.410000
     30 H5          3.0410    0.1170   -2.1760 ha        1 BPJ      0.129000
     31 H6          3.8870   -0.1860    0.1420 ha        1 BPJ      0.137000
     32 H7          3.4990   -0.6210    2.4430 ha        1 BPJ      0.135000
     33 H8          1.9500   -0.8450    4.3970 ha        1 BPJ      0.136000
     34 H9         -0.2220   -0.5630    5.3680 ha        1 BPJ      0.134000
     35 H10        -2.5740    0.2780    5.2340 ha        1 BPJ      0.135000
     36 H11        -3.4040    1.2580    3.0960 ha        1 BPJ      0.133000
     37 H12        -1.9860    1.2930    1.1030 ha        1 BPJ      0.136000
@<TRIPOS>BOND
     1    1    2 1   
     2    1   16 1   
     3    1   22 1   
     4    1   23 1   
     5    2    3 1   
     6    2    4 1   
     7    2   24 1   
     8    3   25 1   
     9    4    5 1   
    10    4    6 1   
    11    4   26 1   
    12    5   27 1   
    13    6    7 1   
    14    6   17 1   
    15    6   28 1   
    16    7   29 1   
    17    8    9 ar  
    18    8   17 ar  
    19    8   30 1   
    20    9   18 ar  
    21    9   31 1   
    22   10   11 ar  
    23   10   18 ar  
    24   10   32 1   
    25   11   21 ar  
    26   11   33 1   
    27   12   13 ar  
    28   12   21 ar  
    29   12   34 1   
    30   13   14 ar  
    31   13   35 1   
    32   14   15 ar  
    33   14   36 1   
    34   15   20 ar  
    35   15   37 1   
    36   16   17 ar  
    37   16   19 ar  
    38   18   19 ar  
    39   19   20 ar  
    40   20   21 ar  
@<TRIPOS>SUBSTRUCTURE
     1 BPJ         1 TEMP              0 ****  ****    0 ROOT
