@<TRIPOS>MOLECULE
BPJ
   37    40     1     0     0
SMALL
bcc


@<TRIPOS>ATOM
      1 C1          0.0240    0.0920    0.0940 c3        1 BPJ     -0.075100
      2 C2          1.5450    0.0970    0.0610 c3        1 BPJ      0.111100
      3 O2          2.0950   -0.9120   -0.7670 oh        1 BPJ     -0.597800
      4 C3          2.0850   -0.0240    1.4890 c3        1 BPJ      0.073100
      5 O3          3.4980    0.0490    1.5270 oh        1 BPJ     -0.598800
      6 C4          1.6250   -1.3490    2.1130 c3        1 BPJ      0.160400
      7 O4          1.8070   -1.3200    3.5240 oh        1 BPJ     -0.591800
      8 C5         -0.3320   -2.7880    2.5420 ca        1 BPJ     -0.099000
      9 C6         -1.5640   -3.2990    2.2090 ca        1 BPJ     -0.125000
     10 C7         -3.5270   -3.3500    0.7450 ca        1 BPJ     -0.119000
     11 C8         -4.2720   -2.8280   -0.2590 ca        1 BPJ     -0.114000
     12 C9         -4.8190   -0.9520   -1.7490 ca        1 BPJ     -0.118000
     13 C10        -4.6390    0.3540   -2.1570 ca        1 BPJ     -0.125000
     14 C11        -3.6180    1.1210   -1.5720 ca        1 BPJ     -0.129000
     15 C12        -2.7530    0.5540   -0.6530 ca        1 BPJ     -0.127000
     16 C13        -0.5760   -1.0340    0.8640 ca        1 BPJ     -0.060300
     17 C14         0.1900   -1.6880    1.8280 ca        1 BPJ     -0.087300
     18 C15        -2.3340   -2.6900    1.1950 ca        1 BPJ     -0.031000
     19 C16        -1.9050   -1.4800    0.5920 ca        1 BPJ     -0.014000
     20 C17        -2.8420   -0.8110   -0.2950 ca        1 BPJ     -0.016000
     21 C18        -3.9590   -1.5320   -0.7900 ca        1 BPJ     -0.038000
     22 H11A       -0.3460    0.0670   -0.9670 hc        1 BPJ      0.073700
     23 H12A       -0.2880    1.0640    0.5680 hc        1 BPJ      0.073700
     24 H2          1.9200    1.0560   -0.4020 h1        1 BPJ      0.090700
     25 HO2         1.6400   -1.7380   -0.5580 ho        1 BPJ      0.410000
     26 H3          1.7360    0.8430    2.1170 h1        1 BPJ      0.096700
     27 HO3         3.8330   -0.4930    0.7980 ho        1 BPJ      0.417000
     28 H4          2.2690   -2.1810    1.6910 h1        1 BPJ      0.041700
     29 HO4         2.6930   -0.9610    3.6720 ho        1 BPJ      0.418000
     30 H5          0.2740   -3.2330    3.3480 ha        1 BPJ      0.154000
     31 H6         -1.9570   -4.1930    2.7170 ha        1 BPJ      0.138000
     32 H7         -3.7950   -4.3070    1.2190 ha        1 BPJ      0.136000
     33 H8         -5.1490   -3.3570   -0.6610 ha        1 BPJ      0.136000
     34 H9         -5.6460   -1.5540   -2.1540 ha        1 BPJ      0.134000
     35 H10        -5.3010    0.8050   -2.9100 ha        1 BPJ      0.135000
     36 H11        -3.5170    2.1830   -1.8400 ha        1 BPJ      0.133000
     37 H12        -2.0300    1.2160   -0.1590 ha        1 BPJ      0.135000
@<TRIPOS>BOND
     1    1    2 1   
     2    1   16 1   
     3    1   22 1   
     4    1   23 1   
     5    2    3 1   
     6    2    4 1   
     7    2   24 1   
     8    3   25 1   
     9    4    5 1   
    10    4    6 1   
    11    4   26 1   
    12    5   27 1   
    13    6    7 1   
    14    6   17 1   
    15    6   28 1   
    16    7   29 1   
    17    8    9 ar  
    18    8   17 ar  
    19    8   30 1   
    20    9   18 ar  
    21    9   31 1   
    22   10   11 ar  
    23   10   18 ar  
    24   10   32 1   
    25   11   21 ar  
    26   11   33 1   
    27   12   13 ar  
    28   12   21 ar  
    29   12   34 1   
    30   13   14 ar  
    31   13   35 1   
    32   14   15 ar  
    33   14   36 1   
    34   15   20 ar  
    35   15   37 1   
    36   16   17 ar  
    37   16   19 ar  
    38   18   19 ar  
    39   19   20 ar  
    40   20   21 ar  
@<TRIPOS>SUBSTRUCTURE
     1 BPJ         1 TEMP              0 ****  ****    0 ROOT
