@<TRIPOS>MOLECULE
BPJ
   37    34     1     0     0
SMALL
bcc


@<TRIPOS>ATOM
      1 C1          1.1070    0.6330   -0.8490 c3        1 BPJ     -0.130000
      2 C2          2.5530    0.6330   -0.8490 c3        1 BPJ      0.042000
      3 O2          3.0130   -0.5880   -1.5960 oh        1 BPJ     -0.321000
      4 C3          3.2260    0.6330    0.4830 c3        1 BPJ     -0.032000
      5 O3          4.7020    0.4840    0.2520 oh        1 BPJ     -0.336000
      6 C4          2.8180   -0.3940    1.4190 c3        1 BPJ      0.035000
      7 O4          3.1380    0.0620    2.7450 oh        1 BPJ     -0.329000
      8 C5          0.7410   -1.7700    2.2360 c1        1 BPJ     -0.115000
      9 C6         -0.6400   -2.0970    2.1770 c1        1 BPJ     -0.118250
     10 C7         -2.8870   -1.7390    1.1660 c1        1 BPJ     -0.118250
     11 C8         -3.7280   -1.0880    0.2580 c1        1 BPJ     -0.118250
     12 C9         -4.0480    0.5620   -1.5250 c1        1 BPJ     -0.118250
     13 C10        -3.5350    1.5340   -2.3750 c1        1 BPJ     -0.127000
     14 C11        -2.1770    1.8630   -2.3240 c1        1 BPJ     -0.127000
     15 C12        -1.3410    1.2160   -1.4210 c1        1 BPJ     -0.127000
     16 C13         0.3850   -0.2180    0.3190 c2        1 BPJ     -0.021000
     17 C14         1.2560   -0.8100    1.3990 c2        1 BPJ     -0.117000
     18 C15        -1.5220   -1.4110    1.2200 c1        1 BPJ     -0.033000
     19 C16        -1.0030   -0.4310    0.3640 c1        1 BPJ     -0.015000
     20 C17        -1.8610    0.2320   -0.5610 c1        1 BPJ     -0.013000
     21 C18        -3.2020   -0.0920   -0.6130 c1        1 BPJ     -0.033000
     22 H11A        0.8060    0.2810   -1.7080 hc        1 BPJ      0.111000
     23 H12A        0.8060    1.5580   -0.7770 hc        1 BPJ      0.111000
     24 H2          2.8550    1.4210   -1.3390 h1        1 BPJ      0.089000
     25 HO2         3.3090   -0.3500   -2.3980 ho        1 BPJ      0.217000
     26 H3          3.0690    1.5010    0.9000 h1        1 BPJ      0.087000
     27 HO3         5.1130    1.2420    0.4660 ho        1 BPJ      0.222000
     28 H4          3.3460   -1.1950    1.2380 h1        1 BPJ      0.142000
     29 HO4         2.6360    0.7670    2.9440 ho        1 BPJ      0.205000
     30 H5          1.3250   -2.2300    2.8680 ha        1 BPJ      0.147000
     31 H6         -1.0040   -2.7790    2.7720 ha        1 BPJ      0.135250
     32 H7         -3.2490   -2.4220    1.7630 ha        1 BPJ      0.135250
     33 H8         -4.6760   -1.3170    0.2220 ha        1 BPJ      0.135250
     34 H9         -4.9970    0.3330   -1.5610 ha        1 BPJ      0.135250
     35 H10        -4.1230    1.9880   -3.0090 ha        1 BPJ      0.134000
     36 H11        -1.8170    2.5460   -2.9210 ha        1 BPJ      0.134000
     37 H12        -0.3930    1.4440   -1.3840 ha        1 BPJ      0.134000
@<TRIPOS>BOND
     1    1    2 1   
     2    1   16 1   
     3    1   22 1   
     4    1   23 1   
     5    2    3 1   
     6    2    4 1   
     7    2   24 1   
     8    3   25 1   
     9    4    5 1   
    10    4    6 1   
    11    4   26 1   
    12    5   27 1   
    13    6    7 1   
    14    6   17 1   
    15    6   28 1   
    16    7   29 1   
    17    8   17 1   
    18    8   30 1   
    19    9   18 1   
    20    9   31 1   
    21   10   18 1   
    22   10   32 1   
    23   11   21 1   
    24   11   33 1   
    25   12   21 1   
    26   12   34 1   
    27   13   14 1   
    28   13   35 1   
    29   14   36 1   
    30   15   20 1   
    31   15   37 1   
    32   16   17 1   
    33   16   19 1   
    34   19   20 1   
@<TRIPOS>SUBSTRUCTURE
     1 BPJ         1 TEMP              0 ****  ****    0 ROOT
