@<TRIPOS>MOLECULE
BPJ
   37    40     1     0     0
SMALL
bcc


@<TRIPOS>ATOM
      1 C1          0.0220    0.0940    0.0960 c3        1 BPJ     -0.075100
      2 C2          1.5440    0.0990    0.0660 c3        1 BPJ      0.111100
      3 O2          2.0940   -0.9140   -0.7570 oh        1 BPJ     -0.597800
      4 C3          2.0810   -0.0160    1.4960 c3        1 BPJ      0.073100
      5 O3          3.4930    0.0560    1.5360 oh        1 BPJ     -0.598800
      6 C4          1.6190   -1.3390    2.1240 c3        1 BPJ      0.160400
      7 O4          1.7980   -1.3040    3.5350 oh        1 BPJ     -0.591800
      8 C5         -0.3390   -2.7750    2.5560 ca        1 BPJ     -0.099000
      9 C6         -1.5710   -3.2870    2.2230 ca        1 BPJ     -0.125000
     10 C7         -3.5310   -3.3440    0.7560 ca        1 BPJ     -0.119000
     11 C8         -4.2740   -2.8260   -0.2520 ca        1 BPJ     -0.114000
     12 C9         -4.8170   -0.9560   -1.7520 ca        1 BPJ     -0.118000
     13 C10        -4.6360    0.3480   -2.1650 ca        1 BPJ     -0.125000
     14 C11        -3.6160    1.1170   -1.5820 ca        1 BPJ     -0.129000
     15 C12        -2.7540    0.5540   -0.6590 ca        1 BPJ     -0.127000
     16 C13        -0.5800   -1.0280    0.8700 ca        1 BPJ     -0.060300
     17 C14         0.1840   -1.6790    1.8380 ca        1 BPJ     -0.087300
     18 C15        -2.3390   -2.6820    1.2040 ca        1 BPJ     -0.031000
     19 C16        -1.9080   -1.4750    0.5970 ca        1 BPJ     -0.014000
     20 C17        -2.8440   -0.8090   -0.2940 ca        1 BPJ     -0.016000
     21 C18        -3.9600   -1.5330   -0.7890 ca        1 BPJ     -0.038000
     22 H11A       -0.2910    1.0690    0.5650 hc        1 BPJ      0.073700
     23 H12A       -0.3460    0.0640   -0.9660 hc        1 BPJ      0.073700
     24 H2          1.9190    1.0550   -0.4000 h1        1 BPJ      0.090700
     25 HO2         1.6390   -1.7390   -0.5460 ho        1 BPJ      0.410000
     26 H3          1.7300    0.8530    2.1190 h1        1 BPJ      0.096700
     27 HO3         3.8290   -0.4880    0.8100 ho        1 BPJ      0.417000
     28 H4          2.2630   -2.1720    1.7070 h1        1 BPJ      0.041700
     29 HO4         2.6840   -0.9440    3.6840 ho        1 BPJ      0.418000
     30 H5          0.2650   -3.2160    3.3650 ha        1 BPJ      0.154000
     31 H6         -1.9650   -4.1780    2.7340 ha        1 BPJ      0.138000
     32 H7         -3.8010   -4.2980    1.2330 ha        1 BPJ      0.136000
     33 H8         -5.1510   -3.3570   -0.6530 ha        1 BPJ      0.136000
     34 H9         -5.6440   -1.5600   -2.1560 ha        1 BPJ      0.134000
     35 H10        -5.2970    0.7950   -2.9220 ha        1 BPJ      0.135000
     36 H11        -3.5140    2.1780   -1.8540 ha        1 BPJ      0.133000
     37 H12        -2.0310    1.2180   -0.1660 ha        1 BPJ      0.135000
@<TRIPOS>BOND
     1    1    2 1   
     2    1   16 1   
     3    1   22 1   
     4    1   23 1   
     5    2    3 1   
     6    2    4 1   
     7    2   24 1   
     8    3   25 1   
     9    4    5 1   
    10    4    6 1   
    11    4   26 1   
    12    5   27 1   
    13    6    7 1   
    14    6   17 1   
    15    6   28 1   
    16    7   29 1   
    17    8    9 ar  
    18    8   17 ar  
    19    8   30 1   
    20    9   18 ar  
    21    9   31 1   
    22   10   11 ar  
    23   10   18 ar  
    24   10   32 1   
    25   11   21 ar  
    26   11   33 1   
    27   12   13 ar  
    28   12   21 ar  
    29   12   34 1   
    30   13   14 ar  
    31   13   35 1   
    32   14   15 ar  
    33   14   36 1   
    34   15   20 ar  
    35   15   37 1   
    36   16   17 ar  
    37   16   19 ar  
    38   18   19 ar  
    39   19   20 ar  
    40   20   21 ar  
@<TRIPOS>SUBSTRUCTURE
     1 BPJ         1 TEMP              0 ****  ****    0 ROOT
