@<TRIPOS>MOLECULE
BPK
   39    41     1     0     0
SMALL
bcc


@<TRIPOS>ATOM
      1 C5         -6.9240    1.1160    0.1550 ca        1 BPK     -0.111000
      2 C4         -6.4770    0.1830   -0.7810 ca        1 BPK     -0.138500
      3 C6         -6.0340    1.6530    1.0850 ca        1 BPK     -0.138500
      4 C19         4.6770    0.2150    2.0310 ca        1 BPK     -0.099000
      5 C3         -5.1420   -0.2150   -0.7900 ca        1 BPK     -0.091500
      6 C7         -4.6960    1.2620    1.0850 ca        1 BPK     -0.091500
      7 C18         5.5820    0.3850    0.9860 ca        1 BPK     -0.132000
      8 C20         3.3320   -0.0500    1.7760 ca        1 BPK     -0.198000
      9 C16         3.8010    0.0300   -0.6170 ca        1 BPK     -0.159000
     10 C2         -4.2460    0.3240    0.1440 ca        1 BPK     -0.134500
     11 C17         5.1450    0.2920   -0.3390 ca        1 BPK     -0.058300
     12 C15         2.9010   -0.1410    0.4470 ca        1 BPK      0.123100
     13 C9         -0.7130   -0.4480    0.4580 cc        1 BPK      0.218300
     14 C10        -1.0990   -1.2440   -0.6200 cd        1 BPK      0.206700
     15 C1         -2.8520   -0.0850    0.1410 cd        1 BPK      0.549900
     16 C13         0.6190   -0.3350    1.1040 c3        1 BPK      0.114100
     17 N8         -1.8290    0.2750    0.9220 nc        1 BPK     -0.657000
     18 O11        -2.4620   -1.0250   -0.8400 os        1 BPK     -0.384800
     19 O22         7.4030    0.6420   -1.0090 oh        1 BPK     -0.597800
     20 O14         1.6040   -0.4330    0.0620 os        1 BPK     -0.338900
     21 H5         -7.9790    1.4280    0.1600 ha        1 BPK      0.135000
     22 H4         -7.1780   -0.2410   -1.5140 ha        1 BPK      0.137000
     23 H6         -6.3860    2.3890    1.8230 ha        1 BPK      0.137000
     24 H19         5.0250    0.2890    3.0730 ha        1 BPK      0.134000
     25 H3         -4.7850   -0.9510   -1.5280 ha        1 BPK      0.152000
     26 H7         -3.9960    1.6900    1.8200 ha        1 BPK      0.152000
     27 H18         6.6430    0.5930    1.1940 ha        1 BPK      0.156000
     28 H20         2.6330   -0.1850    2.6120 ha        1 BPK      0.138000
     29 H16         3.4380   -0.0450   -1.6520 ha        1 BPK      0.145000
     30 H12        -0.8030   -3.2260   -1.3310 hc        1 BPK      0.067367
     31 H12A       -0.6120   -1.9210   -2.5780 hc        1 BPK      0.067367
     32 H12B        0.6780   -2.1570   -1.3100 hc        1 BPK      0.067367
     33 H21         6.0320   -0.4270   -2.1650 h1        1 BPK      0.034200
     34 H21A        5.7730    1.3830   -2.0830 h1        1 BPK      0.034200
     35 H13         0.7310    0.6440    1.6430 h1        1 BPK      0.060700
     36 H13A        0.7690   -1.1870    1.8230 h1        1 BPK      0.060700
     37 HO22        7.9580    0.7670   -1.7880 ho        1 BPK      0.403000
     38 C12        -0.4230   -2.1880   -1.5080 c3        1 BPK     -0.133400
     39 C21         6.0780    0.4750   -1.4920 c3        1 BPK      0.174700
@<TRIPOS>BOND
     1    1    2 ar  
     2    1    3 ar  
     3    1   21 1   
     4    2    5 ar  
     5    2   22 1   
     6    3    6 ar  
     7    3   23 1   
     8    4    7 ar  
     9    4    8 ar  
    10    4   24 1   
    11    5   10 ar  
    12    5   25 1   
    13    6   10 ar  
    14    6   26 1   
    15    7   11 ar  
    16    7   27 1   
    17    8   12 ar  
    18    8   28 1   
    19    9   11 ar  
    20    9   12 ar  
    21    9   29 1   
    22   10   15 1   
    23   11   39 1   
    24   12   20 1   
    25   13   14 2   
    26   13   16 1   
    27   13   17 1   
    28   14   18 1   
    29   14   38 1   
    30   15   17 2   
    31   15   18 1   
    32   16   20 1   
    33   16   35 1   
    34   16   36 1   
    35   19   37 1   
    36   19   39 1   
    37   30   38 1   
    38   31   38 1   
    39   32   38 1   
    40   33   39 1   
    41   34   39 1   
@<TRIPOS>SUBSTRUCTURE
     1 BPK         1 TEMP              0 ****  ****    0 ROOT
