@<TRIPOS>MOLECULE
BPK
   39    33     1     0     0
SMALL
bcc


@<TRIPOS>ATOM
      1 C5         -1.3920   -0.3630   -6.4160 c1        1 BPK     -0.119167
      2 C4         -0.9220    0.8120   -5.8510 c1        1 BPK     -0.119167
      3 C6         -1.1510   -1.5770   -5.7930 c1        1 BPK     -0.119167
      4 C19        -0.1690   -0.7250    4.9750 c1        1 BPK     -0.119167
      5 C3         -0.2100    0.7720   -4.6630 c1        1 BPK     -0.119167
      6 C7         -0.4380   -1.6170   -4.6050 c1        1 BPK     -0.087000
      7 C18        -1.0190    0.3170    5.3100 c1        1 BPK     -0.119167
      8 C20         0.3330   -0.8240    3.6870 c1        1 BPK     -0.198000
      9 C16        -0.8660    1.1620    3.0680 c1        1 BPK     -0.159000
     10 C2          0.0320   -0.4420   -4.0390 c1        1 BPK     -0.027000
     11 C17        -1.3680    1.2600    4.3570 c1        1 BPK     -0.051000
     12 C15        -0.0160    0.1200    2.7330 c1        1 BPK      0.078000
     13 C9          1.2840   -0.6470   -0.6130 c1        1 BPK     -0.139000
     14 C10         2.4590   -0.6880   -1.3180 c1        1 BPK     -0.017000
     15 C1          0.8080   -0.5130   -2.7430 c2        1 BPK      0.050000
     16 C12         3.8490   -0.7710   -0.7260 c2        1 BPK     -0.157000
     17 C21        -2.2810    2.4080    4.7280 c3        1 BPK      0.017000
     18 C13         1.1420   -0.7860    0.8890 c2        1 BPK      0.058000
     19 N8          0.2750   -0.5390   -1.4940 n2        1 BPK     -0.131000
     20 O11         2.1620   -0.6050   -2.6240 os        1 BPK     -0.126000
     21 O22        -3.5960    1.9260    4.8970 oh        1 BPK     -0.325000
     22 O14         0.3590    0.2730    1.3870 os        1 BPK     -0.222000
     23 H5         -1.8940   -0.3360   -7.2530 ha        1 BPK      0.141333
     24 H4         -1.0920    1.6670   -6.2900 ha        1 BPK      0.141333
     25 H6         -1.4820   -2.4050   -6.1910 ha        1 BPK      0.141333
     26 H19         0.0770   -1.3900    5.6470 ha        1 BPK      0.141333
     27 H3          0.1210    1.6000   -4.2650 ha        1 BPK      0.141333
     28 H7         -0.2680   -2.4720   -4.1660 ha        1 BPK      0.155000
     29 H18        -1.3720    0.3860    6.2180 ha        1 BPK      0.141333
     30 H20         0.9310   -1.5570    3.4500 ha        1 BPK      0.138000
     31 H16        -1.1120    1.8270    2.3970 ha        1 BPK      0.145000
     32 H12         4.0550    0.0650   -0.2580 ha        1 BPK      0.106667
     33 H12A        3.8910   -1.5180   -0.0930 ha        1 BPK      0.106667
     34 H12B        4.5020   -0.9130   -1.4430 ha        1 BPK      0.106667
     35 H21        -2.2680    3.0790    4.0140 h1        1 BPK      0.073500
     36 H21A       -1.9720    2.8140    5.5640 h1        1 BPK      0.073500
     37 H13         2.0290   -0.7600    1.3040 h4        1 BPK      0.100000
     38 H13A        0.7090   -1.6390    1.0980 h4        1 BPK      0.100000
     39 HO22       -4.1310    2.6000    5.1220 ho        1 BPK      0.202000
@<TRIPOS>BOND
     1    1    3 1   
     2    1   23 1   
     3    2    5 1   
     4    2   24 1   
     5    3   25 1   
     6    4    7 1   
     7    4   26 1   
     8    5   27 1   
     9    6   10 1   
    10    6   28 1   
    11    7   29 1   
    12    8   12 1   
    13    8   30 1   
    14    9   11 1   
    15    9   31 1   
    16   10   15 1   
    17   11   17 1   
    18   12   22 1   
    19   13   14 1   
    20   13   19 1   
    21   14   20 1   
    22   15   19 1   
    23   15   20 1   
    24   16   32 1   
    25   16   33 1   
    26   16   34 1   
    27   17   21 1   
    28   17   35 1   
    29   17   36 1   
    30   18   22 1   
    31   18   37 1   
    32   18   38 1   
    33   21   39 1   
@<TRIPOS>SUBSTRUCTURE
     1 BPK         1 TEMP              0 ****  ****    0 ROOT
