@<TRIPOS>MOLECULE
BPL
   43    47     1     0     0
SMALL
bcc


@<TRIPOS>ATOM
      1 C1         -0.3610   -0.4350    0.1450 ca        1 BPL      0.011000
      2 C2          1.0150   -0.5580   -0.0160 ca        1 BPL     -0.146000
      3 C3          1.8610   -0.5020    1.0910 ca        1 BPL      0.011000
      4 C4          1.3350   -0.3210    2.3840 ca        1 BPL     -0.123000
      5 C5         -0.0700   -0.1950    2.5640 ca        1 BPL      0.028000
      6 C6         -0.6240   -0.0010    3.8700 ca        1 BPL     -0.085000
      7 C7          0.2560    0.1100    4.9880 ca        1 BPL      0.138000
      8 C8         -0.3100    0.3910    6.2600 ca        1 BPL     -0.276400
      9 C9         -1.7370    0.4220    6.4680 ca        1 BPL      0.009000
     10 C10        -2.5910    0.2520    5.3490 ca        1 BPL     -0.065000
     11 C11        -2.0310    0.1020    4.0280 ca        1 BPL      0.121000
     12 C12        -2.8540    0.0540    2.8740 ca        1 BPL     -0.179000
     13 C13        -2.3240   -0.1160    1.6180 ca        1 BPL      0.022000
     14 C14        -0.9210   -0.2540    1.4290 ca        1 BPL     -0.098000
     15 C15         2.1770   -0.2550    3.5290 ca        1 BPL      0.061000
     16 C16         1.6560   -0.0530    4.7820 ca        1 BPL     -0.277000
     17 C17        -2.3080    0.6010    7.7500 ca        1 BPL     -0.265000
     18 C18        -3.6830    0.6060    7.9230 ca        1 BPL     -0.030000
     19 C19        -4.5310    0.4130    6.8230 ca        1 BPL     -0.125000
     20 C20        -3.9910    0.2440    5.5610 ca        1 BPL     -0.049000
     21 N21         0.5450    0.7330    7.3630 n4        1 BPL     -0.438200
     22 C22         0.7940   -0.4210    8.3200 c         1 BPL      0.441100
     23 O23         1.6680   -0.3740    9.1690 o         1 BPL     -0.327100
     24 N24        -0.0840   -1.6280    8.1730 n4        1 BPL     -0.632800
     25 C25         0.2050   -2.6610    9.2050 c3        1 BPL      0.080100
     26 H1         -1.0280   -0.4750   -0.7360 ha        1 BPL      0.175000
     27 H2          1.4410   -0.6980   -1.0250 ha        1 BPL      0.184000
     28 H3          2.9530   -0.5980    0.9540 ha        1 BPL      0.170000
     29 H12        -3.9460    0.1690    2.9690 ha        1 BPL      0.170000
     30 H13        -2.9860   -0.1450    0.7330 ha        1 BPL      0.177000
     31 H15         3.2690   -0.3690    3.3910 ha        1 BPL      0.172000
     32 H16         2.3650   -0.0210    5.6230 ha        1 BPL      0.120000
     33 H17        -1.6960    0.8180    8.6380 ha        1 BPL      0.105000
     34 H18        -4.1180    0.7700    8.9250 ha        1 BPL      0.172000
     35 H19        -5.6260    0.4130    6.9670 ha        1 BPL      0.184000
     36 H20        -4.6810    0.0990    4.7120 ha        1 BPL      0.170000
     37 H21         1.4710    1.0550    7.0300 hn        1 BPL      0.504800
     38 H24        -1.0790   -1.3290    8.2310 hn        1 BPL      0.495300
     39 H26         1.2770   -2.9920    9.1260 hx        1 BPL      0.132033
     40 H27         0.0240   -2.2340   10.2300 hx        1 BPL      0.132033
     41 H28        -0.4820   -3.5350    9.0250 hx        1 BPL      0.132033
     42 H212        0.1100    1.4910    7.9210 hn        1 BPL      0.504800
     43 H242        0.0650   -2.0230    7.2290 hn        1 BPL      0.495300
@<TRIPOS>BOND
     1    1    2 ar  
     2    1   14 ar  
     3    1   26 1   
     4    2    3 ar  
     5    2   27 1   
     6    3    4 ar  
     7    3   28 1   
     8    4    5 ar  
     9    4   15 ar  
    10    5    6 ar  
    11    5   14 ar  
    12    6    7 ar  
    13    6   11 ar  
    14    7    8 ar  
    15    7   16 ar  
    16    8    9 ar  
    17    8   21 1   
    18    9   10 ar  
    19    9   17 ar  
    20   10   11 ar  
    21   10   20 ar  
    22   11   12 ar  
    23   12   13 ar  
    24   12   29 1   
    25   13   14 ar  
    26   13   30 1   
    27   15   16 ar  
    28   15   31 1   
    29   16   32 1   
    30   17   18 ar  
    31   17   33 1   
    32   18   19 ar  
    33   18   34 1   
    34   19   20 ar  
    35   19   35 1   
    36   20   36 1   
    37   21   22 1   
    38   21   37 1   
    39   21   42 1   
    40   22   23 2   
    41   22   24 1   
    42   24   25 1   
    43   24   38 1   
    44   24   43 1   
    45   25   39 1   
    46   25   40 1   
    47   25   41 1   
@<TRIPOS>SUBSTRUCTURE
     1 BPL         1 TEMP              0 ****  ****    0 ROOT
