@<TRIPOS>MOLECULE
BPL
   41    36     1     0     0
SMALL
bcc


@<TRIPOS>ATOM
      1 C1          0.4910    0.6390   -4.9160 c1        1 BPL     -0.119500
      2 C2          1.8530    0.3060   -5.0060 c1        1 BPL     -0.119500
      3 C3          2.5770   -0.0190   -3.8430 c1        1 BPL     -0.110000
      4 C4          1.9340   -0.0100   -2.5810 c1        1 BPL     -0.037000
      5 C5          0.5600    0.3250   -2.4880 c1        1 BPL     -0.013000
      6 C6         -0.0860    0.2810   -1.2530 c1        1 BPL     -0.003000
      7 C7          0.6270   -0.0800   -0.1020 c1        1 BPL     -0.056000
      8 C8         -0.0390   -0.1740    1.1400 c1        1 BPL      0.079000
      9 C9         -1.4220    0.1230    1.2270 c1        1 BPL     -0.012000
     10 C10        -2.1190    0.5050    0.0970 c1        1 BPL     -0.012000
     11 C11        -1.4440    0.6000   -1.1630 c1        1 BPL     -0.019000
     12 C12        -2.1640    0.9710   -2.3280 c2        1 BPL     -0.113000
     13 C13        -1.5290    0.9940   -3.5510 c1        1 BPL     -0.118000
     14 C14        -0.1600    0.6480   -3.6440 c1        1 BPL     -0.034000
     15 C15         2.6620   -0.3360   -1.4170 c1        1 BPL     -0.110000
     16 C16         2.0230   -0.3730   -0.1890 c1        1 BPL     -0.126000
     17 C17        -2.0810    0.0460    2.4660 c2        1 BPL     -0.108000
     18 C18        -3.4340    0.3540    2.5540 c1        1 BPL     -0.126500
     19 C19        -4.1370    0.7390    1.4130 c1        1 BPL     -0.126500
     20 C20        -3.4860    0.8150    0.1880 c2        1 BPL     -0.108000
     21 N21         1.0300   -0.5240    2.0120 n         1 BPL     -0.308000
     22 C22         0.9170   -0.2780    3.4030 c2        1 BPL      0.363000
     23 O23        -0.0890    0.2300    3.8500 o         1 BPL     -0.371000
     24 N24         1.9960   -0.5940    4.2680 n         1 BPL     -0.367000
     25 C25         2.1880   -1.9370    4.7040 c3        1 BPL     -0.089000
     26 H1         -0.0110    0.8640   -5.7230 ha        1 BPL      0.134000
     27 H2          2.2960    0.2940   -5.8770 ha        1 BPL      0.134000
     28 H3          3.5250   -0.2500   -3.9060 ha        1 BPL      0.134000
     29 H12        -3.1070    1.2130   -2.2630 ha        1 BPL      0.135000
     30 H13        -2.0210    1.2560   -4.3510 ha        1 BPL      0.134000
     31 H15         3.6050   -0.5790   -1.4830 ha        1 BPL      0.134000
     32 H16         2.5360   -0.5460    0.6210 ha        1 BPL      0.125000
     33 H17        -1.5910   -0.2220    3.2620 ha        1 BPL      0.138500
     34 H18        -3.8920    0.3000    3.4140 ha        1 BPL      0.133000
     35 H19        -5.0860    0.9540    1.4760 ha        1 BPL      0.133000
     36 H20        -3.9790    1.0850   -0.6100 ha        1 BPL      0.138500
     37 H21         1.7690   -0.9340    1.6820 hn        1 BPL      0.218000
     38 H24         2.5930    0.0520    4.5060 hn        1 BPL      0.233000
     39 H26         1.3320   -2.4170    4.6720 h1        1 BPL      0.078333
     40 H27         2.5290   -1.9370    5.6250 h1        1 BPL      0.078333
     41 H28         2.8360   -2.3830    4.1160 h1        1 BPL      0.078333
@<TRIPOS>BOND
     1    1    2 1   
     2    1   26 1   
     3    2   27 1   
     4    3    4 1   
     5    3   28 1   
     6    4   15 1   
     7    5    6 1   
     8    5   14 1   
     9    6   11 1   
    10    7    8 1   
    11    7   16 1   
    12    8   21 1   
    13    9   10 1   
    14    9   17 1   
    15   10   20 1   
    16   11   12 1   
    17   12   13 1   
    18   12   29 1   
    19   13   30 1   
    20   15   31 1   
    21   16   32 1   
    22   17   18 1   
    23   17   33 1   
    24   18   34 1   
    25   19   20 1   
    26   19   35 1   
    27   20   36 1   
    28   21   22 1   
    29   21   37 1   
    30   22   23 1   
    31   22   24 1   
    32   24   25 1   
    33   24   38 1   
    34   25   39 1   
    35   25   40 1   
    36   25   41 1   
@<TRIPOS>SUBSTRUCTURE
     1 BPL         1 TEMP              0 ****  ****    0 ROOT
