@<TRIPOS>MOLECULE
BPL
   42    46     1     0     0
SMALL
bcc


@<TRIPOS>ATOM
      1 C1          0.1000   -0.0300    0.0540 ca        1 BPL     -0.071000
      2 C2          1.4850   -0.0820    0.0990 ca        1 BPL     -0.131000
      3 C3          2.1520   -0.1110    1.3280 ca        1 BPL     -0.069000
      4 C4          1.4310   -0.0890    2.5230 ca        1 BPL     -0.077000
      5 C5          0.0110   -0.0340    2.4970 ca        1 BPL      0.004000
      6 C6         -0.7470   -0.0070    3.7150 ca        1 BPL     -0.040000
      7 C7         -0.0580   -0.0340    4.9720 ca        1 BPL      0.038000
      8 C8         -0.8000    0.0160    6.1560 ca        1 BPL     -0.057400
      9 C9         -2.2360    0.0560    6.1380 ca        1 BPL      0.014000
     10 C10        -2.9080    0.0720    4.8870 ca        1 BPL     -0.032000
     11 C11        -2.1550    0.0440    3.6690 ca        1 BPL      0.045000
     12 C12        -2.7970    0.0690    2.3880 ca        1 BPL     -0.142000
     13 C13        -2.0820    0.0460    1.2290 ca        1 BPL     -0.068000
     14 C14        -0.6530   -0.0060    1.2450 ca        1 BPL     -0.054000
     15 C15         2.0900   -0.1230    3.8010 ca        1 BPL     -0.033000
     16 C16         1.3840   -0.0970    4.9570 ca        1 BPL     -0.191000
     17 C17        -3.0040    0.0890    7.3340 ca        1 BPL     -0.141000
     18 C18        -4.3770    0.1340    7.2980 ca        1 BPL     -0.091000
     19 C19        -5.0490    0.1480    6.0570 ca        1 BPL     -0.122000
     20 C20        -4.3300    0.1170    4.8860 ca        1 BPL     -0.099000
     21 N21        -0.1280    0.0830    7.4150 n         1 BPL     -0.392100
     22 C22         0.0210   -1.0540    8.1710 c         1 BPL      0.627100
     23 O23        -0.5440   -2.1430    8.0940 o         1 BPL     -0.455100
     24 N24         0.9540   -0.9200    9.4190 n4        1 BPL     -0.678800
     25 C25         1.0810   -2.2040   10.1410 c3        1 BPL      0.090100
     26 H1         -0.4250   -0.0080   -0.9140 ha        1 BPL      0.150000
     27 H2          2.0670   -0.1000   -0.8360 ha        1 BPL      0.153000
     28 H3          3.2520   -0.1530    1.3510 ha        1 BPL      0.145000
     29 H12        -3.8950    0.1090    2.3340 ha        1 BPL      0.149000
     30 H13        -2.5910    0.0660    0.2510 ha        1 BPL      0.151000
     31 H15         3.1920   -0.1720    3.8080 ha        1 BPL      0.144000
     32 H16         1.9300   -0.1340    5.9110 ha        1 BPL      0.100000
     33 H17        -2.5000    0.0730    8.3110 ha        1 BPL      0.115000
     34 H18        -4.9630    0.1590    8.2290 ha        1 BPL      0.146000
     35 H19        -6.1490    0.1840    6.0380 ha        1 BPL      0.152000
     36 H20        -4.8770    0.1280    3.9310 ha        1 BPL      0.147000
     37 H21         0.5280    0.8310    7.5030 hn        1 BPL      0.337500
     38 H24         0.5610   -0.2130   10.0490 hn        1 BPL      0.449300
     39 H26         1.7550   -2.0600   11.0270 hx        1 BPL      0.113033
     40 H27         1.5060   -2.9820    9.4500 hx        1 BPL      0.113033
     41 H28         0.0640   -2.5460   10.4790 hx        1 BPL      0.113033
     42 H242        1.8800   -0.6080    9.1180 hn        1 BPL      0.449300
@<TRIPOS>BOND
     1    1    2 ar  
     2    1   14 ar  
     3    1   26 1   
     4    2    3 ar  
     5    2   27 1   
     6    3    4 ar  
     7    3   28 1   
     8    4    5 ar  
     9    4   15 ar  
    10    5    6 ar  
    11    5   14 ar  
    12    6    7 ar  
    13    6   11 ar  
    14    7    8 ar  
    15    7   16 ar  
    16    8    9 ar  
    17    8   21 1   
    18    9   10 ar  
    19    9   17 ar  
    20   10   11 ar  
    21   10   20 ar  
    22   11   12 ar  
    23   12   13 ar  
    24   12   29 1   
    25   13   14 ar  
    26   13   30 1   
    27   15   16 ar  
    28   15   31 1   
    29   16   32 1   
    30   17   18 ar  
    31   17   33 1   
    32   18   19 ar  
    33   18   34 1   
    34   19   20 ar  
    35   19   35 1   
    36   20   36 1   
    37   21   22 1   
    38   21   37 1   
    39   22   23 2   
    40   22   24 1   
    41   24   25 1   
    42   24   38 1   
    43   24   42 1   
    44   25   39 1   
    45   25   40 1   
    46   25   41 1   
@<TRIPOS>SUBSTRUCTURE
     1 BPL         1 TEMP              0 ****  ****    0 ROOT
