@<TRIPOS>MOLECULE
BPL
   41    45     1     0     0
SMALL
bcc


@<TRIPOS>ATOM
      1 C1          0.0000   -0.2480   -4.9030 ca        1 BPL     -0.112000
      2 C2          1.3660   -0.1780   -5.1180 ca        1 BPL     -0.127000
      3 C3          2.2450   -0.0270   -4.0400 ca        1 BPL     -0.113000
      4 C4          1.7570    0.0570   -2.7370 ca        1 BPL     -0.037000
      5 C5          0.3560   -0.0100   -2.4970 ca        1 BPL     -0.013000
      6 C6         -0.1670    0.0800   -1.1620 ca        1 BPL     -0.003000
      7 C7          0.7360    0.2620   -0.0620 ca        1 BPL     -0.056000
      8 C8          0.2320    0.4080    1.2350 ca        1 BPL      0.070600
      9 C9         -1.1810    0.2790    1.4790 ca        1 BPL     -0.014000
     10 C10        -2.0670    0.0740    0.3890 ca        1 BPL     -0.010000
     11 C11        -1.5540   -0.0020   -0.9450 ca        1 BPL     -0.019000
     12 C12        -2.4170   -0.1590   -2.0780 ca        1 BPL     -0.113000
     13 C13        -1.9290   -0.2370   -3.3460 ca        1 BPL     -0.118000
     14 C14        -0.5230   -0.1670   -3.5980 ca        1 BPL     -0.034000
     15 C15         2.6370    0.1990   -1.6060 ca        1 BPL     -0.107000
     16 C16         2.1540    0.2960   -0.3470 ca        1 BPL     -0.126000
     17 C17        -1.7170    0.3540    2.7960 ca        1 BPL     -0.087000
     18 C18        -3.0660    0.2390    3.0240 ca        1 BPL     -0.135000
     19 C19        -3.9480    0.0370    1.9420 ca        1 BPL     -0.118000
     20 C20        -3.4580   -0.0470    0.6610 ca        1 BPL     -0.129000
     21 N21         1.0900    0.7710    2.3070 n         1 BPL     -0.458100
     22 C22         1.4690   -0.1890    3.2830 c         1 BPL      0.731100
     23 O23         0.8420   -1.2600    3.4340 o         1 BPL     -0.603100
     24 N24         2.5920    0.1060    4.0900 n         1 BPL     -0.547900
     25 C25         2.8040   -0.6880    5.2650 c3        1 BPL      0.066300
     26 H1         -0.6920   -0.3700   -5.7510 ha        1 BPL      0.134000
     27 H2          1.7690   -0.2430   -6.1400 ha        1 BPL      0.134000
     28 H3          3.3290    0.0240   -4.2210 ha        1 BPL      0.134000
     29 H12        -3.5050   -0.2140   -1.9230 ha        1 BPL      0.135000
     30 H13        -2.6050   -0.3560   -4.2070 ha        1 BPL      0.134000
     31 H15         3.7210    0.2170   -1.8030 ha        1 BPL      0.134000
     32 H16         2.8650    0.3710    0.4900 ha        1 BPL      0.126000
     33 H17        -1.0360    0.4810    3.6520 ha        1 BPL      0.144000
     34 H18        -3.4680    0.2950    4.0470 ha        1 BPL      0.134000
     35 H19        -5.0270   -0.0590    2.1350 ha        1 BPL      0.132000
     36 H20        -4.1630   -0.2180   -0.1650 ha        1 BPL      0.132000
     37 H21         1.7970    1.4210    2.0320 hn        1 BPL      0.300500
     38 H24         2.8480    1.0640    4.1790 hn        1 BPL      0.291500
     39 H26         3.8870   -0.6040    5.5490 h1        1 BPL      0.048033
     40 H27         2.1720   -0.3470    6.1290 h1        1 BPL      0.048033
     41 H28         2.5580   -1.7620    5.0460 h1        1 BPL      0.048033
@<TRIPOS>BOND
     1    1    2 ar  
     2    1   14 ar  
     3    1   26 1   
     4    2    3 ar  
     5    2   27 1   
     6    3    4 ar  
     7    3   28 1   
     8    4    5 ar  
     9    4   15 ar  
    10    5    6 ar  
    11    5   14 ar  
    12    6    7 ar  
    13    6   11 ar  
    14    7    8 ar  
    15    7   16 ar  
    16    8    9 ar  
    17    8   21 1   
    18    9   10 ar  
    19    9   17 ar  
    20   10   11 ar  
    21   10   20 ar  
    22   11   12 ar  
    23   12   13 ar  
    24   12   29 1   
    25   13   14 ar  
    26   13   30 1   
    27   15   16 ar  
    28   15   31 1   
    29   16   32 1   
    30   17   18 ar  
    31   17   33 1   
    32   18   19 ar  
    33   18   34 1   
    34   19   20 ar  
    35   19   35 1   
    36   20   36 1   
    37   21   22 1   
    38   21   37 1   
    39   22   23 2   
    40   22   24 1   
    41   24   25 1   
    42   24   38 1   
    43   25   39 1   
    44   25   40 1   
    45   25   41 1   
@<TRIPOS>SUBSTRUCTURE
     1 BPL         1 TEMP              0 ****  ****    0 ROOT
