@<TRIPOS>MOLECULE
BPL
   42    46     1     0     0
SMALL
bcc


@<TRIPOS>ATOM
      1 C1          0.1030   -0.0320    0.0560 ca        1 BPL     -0.071000
      2 C2          1.4880   -0.0830    0.1020 ca        1 BPL     -0.131000
      3 C3          2.1540   -0.1120    1.3320 ca        1 BPL     -0.069000
      4 C4          1.4320   -0.0880    2.5260 ca        1 BPL     -0.077000
      5 C5          0.0110   -0.0340    2.4980 ca        1 BPL      0.004000
      6 C6         -0.7480   -0.0070    3.7160 ca        1 BPL     -0.040000
      7 C7         -0.0590   -0.0330    4.9730 ca        1 BPL      0.038000
      8 C8         -0.8030    0.0170    6.1570 ca        1 BPL     -0.057400
      9 C9         -2.2380    0.0560    6.1380 ca        1 BPL      0.014000
     10 C10        -2.9100    0.0710    4.8860 ca        1 BPL     -0.032000
     11 C11        -2.1550    0.0440    3.6690 ca        1 BPL      0.045000
     12 C12        -2.7960    0.0680    2.3870 ca        1 BPL     -0.142000
     13 C13        -2.0790    0.0440    1.2280 ca        1 BPL     -0.068000
     14 C14        -0.6510   -0.0080    1.2460 ca        1 BPL     -0.054000
     15 C15         2.0900   -0.1210    3.8050 ca        1 BPL     -0.033000
     16 C16         1.3830   -0.0960    4.9600 ca        1 BPL     -0.191000
     17 C17        -3.0080    0.0890    7.3330 ca        1 BPL     -0.141000
     18 C18        -4.3810    0.1340    7.2950 ca        1 BPL     -0.091000
     19 C19        -5.0520    0.1480    6.0540 ca        1 BPL     -0.122000
     20 C20        -4.3310    0.1170    4.8830 ca        1 BPL     -0.099000
     21 N21        -0.1320    0.0850    7.4170 ns        1 BPL     -0.392100
     22 C22         0.0170   -1.0520    8.1730 c         1 BPL      0.627100
     23 O23        -0.5470   -2.1420    8.0950 o         1 BPL     -0.455100
     24 N24         0.9480   -0.9170    9.4220 ny        1 BPL     -0.678800
     25 C25         1.0910   -2.2060   10.1330 c3        1 BPL      0.090100
     26 H1         -0.4210   -0.0110   -0.9130 ha        1 BPL      0.150000
     27 H2          2.0710   -0.1010   -0.8330 ha        1 BPL      0.153000
     28 H3          3.2540   -0.1530    1.3560 ha        1 BPL      0.145000
     29 H12        -3.8940    0.1070    2.3320 ha        1 BPL      0.149000
     30 H13        -2.5880    0.0640    0.2500 ha        1 BPL      0.151000
     31 H15         3.1910   -0.1700    3.8130 ha        1 BPL      0.144000
     32 H16         1.9270   -0.1320    5.9140 ha        1 BPL      0.100000
     33 H17        -2.5050    0.0740    8.3100 ha        1 BPL      0.115000
     34 H18        -4.9680    0.1590    8.2260 ha        1 BPL      0.146000
     35 H19        -6.1520    0.1830    6.0340 ha        1 BPL      0.152000
     36 H20        -4.8770    0.1270    3.9280 ha        1 BPL      0.147000
     37 H21         0.5240    0.8330    7.5050 hn        1 BPL      0.337500
     38 H24         1.8710   -0.5900    9.1260 hn        1 BPL      0.448800
     39 H26         0.0790   -2.5650   10.4670 hx        1 BPL      0.113367
     40 H27         1.5270   -2.9720    9.4350 hx        1 BPL      0.113367
     41 H28         1.7630   -2.0620   11.0210 hx        1 BPL      0.113367
     42 H242        0.5450   -0.2220   10.0580 hn        1 BPL      0.448800
@<TRIPOS>BOND
     1    1    2 ar  
     2    1   14 ar  
     3    1   26 1   
     4    2    3 ar  
     5    2   27 1   
     6    3    4 ar  
     7    3   28 1   
     8    4    5 ar  
     9    4   15 ar  
    10    5    6 ar  
    11    5   14 ar  
    12    6    7 ar  
    13    6   11 ar  
    14    7    8 ar  
    15    7   16 ar  
    16    8    9 ar  
    17    8   21 1   
    18    9   10 ar  
    19    9   17 ar  
    20   10   11 ar  
    21   10   20 ar  
    22   11   12 ar  
    23   12   13 ar  
    24   12   29 1   
    25   13   14 ar  
    26   13   30 1   
    27   15   16 ar  
    28   15   31 1   
    29   16   32 1   
    30   17   18 ar  
    31   17   33 1   
    32   18   19 ar  
    33   18   34 1   
    34   19   20 ar  
    35   19   35 1   
    36   20   36 1   
    37   21   22 1   
    38   21   37 1   
    39   22   23 2   
    40   22   24 1   
    41   24   25 1   
    42   24   38 1   
    43   24   42 1   
    44   25   39 1   
    45   25   40 1   
    46   25   41 1   
@<TRIPOS>SUBSTRUCTURE
     1 BPL         1 TEMP              0 ****  ****    0 ROOT
