@<TRIPOS>MOLECULE
BPM
   33    34     1     0     0
SMALL
bcc


@<TRIPOS>ATOM
      1 C0          0.1850    0.2630    0.0020 c3        1 BPM      0.077200
      2 C1A         1.6640    0.1120   -0.0660 ca        1 BPM     -0.212300
      3 C2A         2.5690    0.9750    0.5590 ca        1 BPM     -0.091000
      4 C3A         3.9300    0.7060    0.5770 ca        1 BPM     -0.288500
      5 C5A         3.5440   -1.3210   -0.6950 ca        1 BPM     -0.288500
      6 C6A         2.1940   -1.0280   -0.6990 ca        1 BPM     -0.091000
      7 C4A         4.4760   -0.4650   -0.0350 ca        1 BPM      0.337100
      8 O1A         5.7660   -0.6600    0.0240 os        1 BPM     -0.452500
      9 PA          6.9720   -2.0080   -0.2750 p5        1 BPM      1.340900
     10 O2A         7.2720   -2.4390    1.1270 o         1 BPM     -0.911833
     11 O3A         6.1760   -2.9610   -1.1100 o         1 BPM     -0.911833
     12 O4A         8.0520   -1.2450   -0.9770 o         1 BPM     -0.911833
     13 C1B        -0.4500    1.6080    0.0670 ca        1 BPM     -0.212300
     14 C2B         0.0600    2.7470   -0.5620 ca        1 BPM     -0.091000
     15 C3B        -0.6470    3.9410   -0.5820 ca        1 BPM     -0.288500
     16 C5B        -2.4260    2.9050    0.6970 ca        1 BPM     -0.288500
     17 C6B        -1.7000    1.7290    0.7030 ca        1 BPM     -0.091000
     18 C4B        -1.9310    4.0670    0.0320 ca        1 BPM      0.337100
     19 O1B        -2.5450    5.2180   -0.0290 os        1 BPM     -0.452500
     20 PB         -4.2160    5.9070    0.2710 p5        1 BPM      1.340900
     21 O2B        -4.7260    6.0420   -1.1290 o         1 BPM     -0.911833
     22 O3B        -4.8480    4.8410    1.1110 o         1 BPM     -0.911833
     23 O4B        -3.8550    7.1810    0.9680 o         1 BPM     -0.911833
     24 HC01       -0.1600   -0.3280    0.9020 hc        1 BPM     -0.003300
     25 HC02       -0.2600   -0.2620   -0.8960 hc        1 BPM     -0.003300
     26 H2A         2.1840    1.8850    1.0440 ha        1 BPM      0.088000
     27 H3A         4.6240    1.3950    1.0740 ha        1 BPM      0.133500
     28 H5A         3.9330   -2.2240   -1.1930 ha        1 BPM      0.133500
     29 H6A         1.5020   -1.7150   -1.2130 ha        1 BPM      0.088000
     30 H2B         1.0450    2.6850   -1.0500 ha        1 BPM      0.088000
     31 H3B        -0.2290    4.8220   -1.0830 ha        1 BPM      0.133500
     32 H5B        -3.4060    2.9720    1.1960 ha        1 BPM      0.133500
     33 H6B        -2.1170    0.8500    1.2200 ha        1 BPM      0.088000
@<TRIPOS>BOND
     1    1    2 1   
     2    1   13 1   
     3    1   24 1   
     4    1   25 1   
     5    2    3 ar  
     6    2    6 ar  
     7    3    4 ar  
     8    3   26 1   
     9    4    7 ar  
    10    4   27 1   
    11    5    6 ar  
    12    5    7 ar  
    13    5   28 1   
    14    6   29 1   
    15    7    8 1   
    16    8    9 1   
    17    9   10 1   
    18    9   11 1   
    19    9   12 1   
    20   13   14 ar  
    21   13   17 ar  
    22   14   15 ar  
    23   14   30 1   
    24   15   18 ar  
    25   15   31 1   
    26   16   17 ar  
    27   16   18 ar  
    28   16   32 1   
    29   17   33 1   
    30   18   19 1   
    31   19   20 1   
    32   20   21 1   
    33   20   22 1   
    34   20   23 1   
@<TRIPOS>SUBSTRUCTURE
     1 BPM         1 TEMP              0 ****  ****    0 ROOT
