@<TRIPOS>MOLECULE
BPM
   33    34     1     0     0
SMALL
bcc


@<TRIPOS>ATOM
      1 C0          0.0000    0.0180   -1.6990 c3        1 BPM      0.077200
      2 C1A        -1.2950   -0.0510   -0.9680 ca        1 BPM     -0.212300
      3 C2A        -1.5340    0.5620    0.2640 ca        1 BPM     -0.091000
      4 C3A        -2.8000    0.5800    0.8310 ca        1 BPM     -0.288500
      5 C5A        -3.6600   -0.6710   -1.0580 ca        1 BPM     -0.288500
      6 C6A        -2.3880   -0.6750   -1.5990 ca        1 BPM     -0.091000
      7 C4A        -3.9240   -0.0210    0.1850 ca        1 BPM      0.337100
      8 O1A        -5.0900    0.0370    0.7700 os        1 BPM     -0.452500
      9 PA         -6.8540   -0.2520    0.3640 p5        1 BPM      1.340900
     10 O2A        -7.3430    1.1530    0.1990 o         1 BPM     -0.911833
     11 O3A        -6.7570   -1.0770   -0.8810 o         1 BPM     -0.911833
     12 O4A        -7.2970   -0.9640    1.6040 o         1 BPM     -0.911833
     13 C1B         1.2950    0.0720   -0.9670 ca        1 BPM     -0.212300
     14 C2B         1.5340   -0.5690    0.2520 ca        1 BPM     -0.091000
     15 C3B         2.8000   -0.5990    0.8190 ca        1 BPM     -0.288500
     16 C5B         3.6600    0.6950   -1.0430 ca        1 BPM     -0.288500
     17 C6B         2.3880    0.7100   -1.5830 ca        1 BPM     -0.091000
     18 C4B         3.9240    0.0180    0.1860 ca        1 BPM      0.337100
     19 O1B         5.0900   -0.0520    0.7700 os        1 BPM     -0.452500
     20 PB          6.8540    0.2450    0.3710 p5        1 BPM      1.340900
     21 O2B         7.3430   -1.1550    0.1730 o         1 BPM     -0.911833
     22 O3B         6.7560    1.0980   -0.8560 o         1 BPM     -0.911833
     23 O4B         7.2970    0.9290    1.6260 o         1 BPM     -0.911833
     24 HC01        0.0570   -0.8750   -2.3910 hc        1 BPM     -0.003300
     25 HC02       -0.0560    0.9230   -2.3730 hc        1 BPM     -0.003300
     26 H2A        -0.6920    1.0400    0.7890 ha        1 BPM      0.088000
     27 H3A        -2.9660    1.0690    1.7990 ha        1 BPM      0.133500
     28 H5A        -4.5010   -1.1610   -1.5760 ha        1 BPM      0.133500
     29 H6A        -2.2230   -1.1810   -2.5640 ha        1 BPM      0.088000
     30 H2B         0.6920   -1.0590    0.7660 ha        1 BPM      0.088000
     31 H3B         2.9670   -1.1090    1.7750 ha        1 BPM      0.133500
     32 H5B         4.5000    1.1970   -1.5490 ha        1 BPM      0.133500
     33 H6B         2.2220    1.2370   -2.5370 ha        1 BPM      0.088000
@<TRIPOS>BOND
     1    1    2 1   
     2    1   13 1   
     3    1   24 1   
     4    1   25 1   
     5    2    3 ar  
     6    2    6 ar  
     7    3    4 ar  
     8    3   26 1   
     9    4    7 ar  
    10    4   27 1   
    11    5    6 ar  
    12    5    7 ar  
    13    5   28 1   
    14    6   29 1   
    15    7    8 1   
    16    8    9 1   
    17    9   10 1   
    18    9   11 1   
    19    9   12 1   
    20   13   14 ar  
    21   13   17 ar  
    22   14   15 ar  
    23   14   30 1   
    24   15   18 ar  
    25   15   31 1   
    26   16   17 ar  
    27   16   18 ar  
    28   16   32 1   
    29   17   33 1   
    30   18   19 1   
    31   19   20 1   
    32   20   21 1   
    33   20   22 1   
    34   20   23 1   
@<TRIPOS>SUBSTRUCTURE
     1 BPM         1 TEMP              0 ****  ****    0 ROOT
