@<TRIPOS>MOLECULE
BPM
   33    30     1     0     0
SMALL
bcc


@<TRIPOS>ATOM
      1 C0         -1.3750    1.9040   -0.5420 c3        1 BPM     -0.005000
      2 C1A         0.1370    1.9130   -0.5160 c2        1 BPM     -0.229000
      3 C2A         0.8510    1.7140   -1.6870 c2        1 BPM     -0.089000
      4 C3A         2.2370    1.7450   -1.6680 c1        1 BPM     -0.315000
      5 C5A         2.1940    2.1740    0.6940 c1        1 BPM     -0.324000
      6 C6A         0.8090    2.1430    0.6740 c1        1 BPM     -0.062000
      7 C4A         2.9080    1.9750   -0.4770 c1        1 BPM      0.306000
      8 O1A         4.3130    1.9950   -0.4560 os        1 BPM     -0.640000
      9 PA          5.0810    0.6450   -0.1620 p5        1 BPM      1.584500
     10 O2A         6.0630    0.3720   -1.2760 o         1 BPM     -0.882167
     11 O3A         4.0890   -0.4910   -0.0770 o         1 BPM     -0.882167
     12 O4A         5.8240    0.7630    1.1470 o         1 BPM     -0.882167
     13 C1B        -1.8780    0.5280   -0.1600 c2        1 BPM     -0.229000
     14 C2B        -2.0490   -0.4420   -1.1340 c2        1 BPM     -0.089000
     15 C3B        -2.5310   -1.6950   -0.7870 c1        1 BPM     -0.315000
     16 C5B        -2.6710   -1.0060    1.5080 c1        1 BPM     -0.324000
     17 C6B        -2.1890    0.2470    1.1610 c1        1 BPM     -0.062000
     18 C4B        -2.8420   -1.9770    0.5340 c1        1 BPM      0.306000
     19 O1B        -3.4020   -3.2210    0.8730 os        1 BPM     -0.640000
     20 PB         -2.4280   -4.4300    1.1660 p5        1 BPM      1.584500
     21 O2B        -2.7450   -5.0150    2.5220 o         1 BPM     -0.882167
     22 O3B        -0.9990   -3.9410    1.1510 o         1 BPM     -0.882167
     23 O4B        -2.6080   -5.4900    0.1060 o         1 BPM     -0.882167
     24 HC01       -1.7160    2.5640    0.0950 hc        1 BPM      0.028000
     25 HC02       -1.6870    2.1270   -1.4420 hc        1 BPM      0.028000
     26 H2A         0.3780    1.5680   -2.5280 ha        1 BPM      0.065000
     27 H3A         2.7400    1.6050   -2.4930 ha        1 BPM      0.126000
     28 H5A         2.6670    2.3290    1.5330 ha        1 BPM      0.097000
     29 H6A         0.3060    2.2830    1.4990 ha        1 BPM      0.101000
     30 H2B        -1.8550   -0.2360   -2.0680 ha        1 BPM      0.065000
     31 H3B        -2.6510   -2.3790   -1.4740 ha        1 BPM      0.126000
     32 H5B        -2.8840   -1.2070    2.4400 ha        1 BPM      0.097000
     33 H6B        -2.0880    0.9370    1.8440 ha        1 BPM      0.101000
@<TRIPOS>BOND
     1    1    2 1   
     2    1   13 1   
     3    1   24 1   
     4    1   25 1   
     5    2    3 1   
     6    2    6 1   
     7    3    4 1   
     8    3   26 1   
     9    4   27 1   
    10    5    7 1   
    11    5   28 1   
    12    6   29 1   
    13    7    8 1   
    14    8    9 1   
    15    9   10 1   
    16    9   11 1   
    17    9   12 1   
    18   13   14 1   
    19   13   17 1   
    20   14   15 1   
    21   14   30 1   
    22   15   31 1   
    23   16   18 1   
    24   16   32 1   
    25   17   33 1   
    26   18   19 1   
    27   19   20 1   
    28   20   21 1   
    29   20   22 1   
    30   20   23 1   
@<TRIPOS>SUBSTRUCTURE
     1 BPM         1 TEMP              0 ****  ****    0 ROOT
