@<TRIPOS>MOLECULE
BPN
   18    15     1     0     0
SMALL
bcc


@<TRIPOS>ATOM
      1 C1         -0.4950    0.1210   -0.8500 c1        1 BPN     -0.010100
      2 C2          0.8860    0.2380   -0.8280 c1        1 BPN     -0.049000
      3 C3          1.5640    0.2220    0.3810 c1        1 BPN     -0.049000
      4 C4          0.8600    0.0900    1.5680 c1        1 BPN     -0.187300
      5 C5         -0.5210   -0.0260    1.5460 c1        1 BPN     -0.010500
      6 C6         -1.1980   -0.0110    0.3370 c1        1 BPN     -0.056500
      7 C7         -1.2320    0.1020   -2.1710 c3        1 BPN      0.134500
      8 N1          1.5550    0.0690    2.8050 no        1 BPN      0.322300
      9 O1         -1.4090   -1.2320   -2.5910 oh        1 BPN     -0.597800
     10 O4          0.9330   -0.0230    3.8530 o         1 BPN     -0.210000
     11 O5          2.9180    0.1490    2.8240 o         1 BPN     -0.210000
     12 H2          1.3810    0.3310   -1.6640 ha        1 BPN      0.100000
     13 H3          2.5360    0.3040    0.3960 ha        1 BPN      0.100000
     14 H5         -1.0160   -0.1190    2.3820 ha        1 BPN      0.114500
     15 H6         -2.1710   -0.0930    0.3220 ha        1 BPN      0.112500
     16 H71        -2.1060    0.5300   -2.0630 h1        1 BPN      0.041700
     17 H72        -0.7100    0.5890   -2.8420 h1        1 BPN      0.041700
     18 HO1        -1.7730   -1.2420   -3.4020 ho        1 BPN      0.411000
@<TRIPOS>BOND
     1    1    6 3   
     2    1    7 1   
     3    2    3 3   
     4    2   12 1   
     5    3   13 1   
     6    4    5 3   
     7    4    8 1   
     8    5   14 1   
     9    6   15 1   
    10    7    9 1   
    11    7   16 1   
    12    7   17 1   
    13    8   10 1   
    14    8   11 1   
    15    9   18 1   
@<TRIPOS>SUBSTRUCTURE
     1 BPN         1 TEMP              0 ****  ****    0 ROOT
