@<TRIPOS>MOLECULE
BPN
   18    18     1     0     0
SMALL
bcc


@<TRIPOS>ATOM
      1 C1          0.0610   -0.1150   -0.0720 ca        1 BPN     -0.044300
      2 C2          1.4140    0.2480   -0.0210 ca        1 BPN     -0.129500
      3 C3          2.0840    0.3090    1.1950 ca        1 BPN     -0.068000
      4 C4          1.3870    0.0030    2.3760 ca        1 BPN     -0.178200
      5 C5          0.0320   -0.3620    2.3380 ca        1 BPN     -0.068000
      6 C6         -0.6220   -0.4180    1.1100 ca        1 BPN     -0.129500
      7 C7         -0.6120   -0.1650   -1.4050 c3        1 BPN      0.168700
      8 N1          2.0950    0.0660    3.6810 no        1 BPN      0.313200
      9 O1         -1.9660   -0.5550   -1.2350 oh        1 BPN     -0.597800
     10 O4          1.4900   -0.1980    4.6860 o         1 BPN     -0.210000
     11 O5          3.2560    0.3790    3.7000 o         1 BPN     -0.210000
     12 H2          1.9530    0.4870   -0.9510 ha        1 BPN      0.157500
     13 H3          3.1490    0.5950    1.2350 ha        1 BPN      0.171000
     14 H5         -0.5080   -0.6010    3.2700 ha        1 BPN      0.171000
     15 H6         -1.6870   -0.7030    1.0660 ha        1 BPN      0.157500
     16 H71        -0.5670    0.8520   -1.8870 h1        1 BPN      0.041700
     17 H72        -0.0820   -0.9060   -2.0660 h1        1 BPN      0.041700
     18 HO1        -2.3550   -0.5740   -2.1170 ho        1 BPN      0.411000
@<TRIPOS>BOND
     1    1    2 ar  
     2    1    6 ar  
     3    1    7 1   
     4    2    3 ar  
     5    2   12 1   
     6    3    4 ar  
     7    3   13 1   
     8    4    5 ar  
     9    4    8 1   
    10    5    6 ar  
    11    5   14 1   
    12    6   15 1   
    13    7    9 1   
    14    7   16 1   
    15    7   17 1   
    16    8   10 1   
    17    8   11 1   
    18    9   18 1   
@<TRIPOS>SUBSTRUCTURE
     1 BPN         1 TEMP              0 ****  ****    0 ROOT
