@<TRIPOS>MOLECULE
BPN
   18    18     1     0     0
SMALL
bcc


@<TRIPOS>ATOM
      1 C1          0.1070    0.1940    1.7260 ca        1 BPN     -0.044300
      2 C2         -1.0850   -0.1770    1.0970 ca        1 BPN     -0.129500
      3 C3         -1.1570   -0.2510   -0.2920 ca        1 BPN     -0.068000
      4 C4         -0.0180    0.0510   -1.0540 ca        1 BPN     -0.178200
      5 C5          1.1860    0.4240   -0.4330 ca        1 BPN     -0.068000
      6 C6          1.2380    0.4930    0.9550 ca        1 BPN     -0.129500
      7 C7          0.2170    0.2830    3.2130 c3        1 BPN      0.168700
      8 N1         -0.0830   -0.0250   -2.5360 no        1 BPN      0.313200
      9 O1         -1.0300   -0.0570    3.8000 oh        1 BPN     -0.597800
     10 O4          0.9000    0.2350   -3.1770 o         1 BPN     -0.210000
     11 O5         -1.1180   -0.3460   -3.0580 o         1 BPN     -0.210000
     12 H2         -1.9730   -0.4110    1.7080 ha        1 BPN      0.157500
     13 H3         -2.0990   -0.5430   -0.7880 ha        1 BPN      0.171000
     14 H5          2.0770    0.6590   -1.0400 ha        1 BPN      0.171000
     15 H6          2.1780    0.7840    1.4490 ha        1 BPN      0.157500
     16 H71         0.5030    1.3310    3.5080 h1        1 BPN      0.041700
     17 H72         1.0130   -0.4260    3.5750 h1        1 BPN      0.041700
     18 HO1        -0.9090    0.0150    4.7540 ho        1 BPN      0.411000
@<TRIPOS>BOND
     1    1    2 ar  
     2    1    6 ar  
     3    1    7 1   
     4    2    3 ar  
     5    2   12 1   
     6    3    4 ar  
     7    3   13 1   
     8    4    5 ar  
     9    4    8 1   
    10    5    6 ar  
    11    5   14 1   
    12    6   15 1   
    13    7    9 1   
    14    7   16 1   
    15    7   17 1   
    16    8   10 1   
    17    8   11 1   
    18    9   18 1   
@<TRIPOS>SUBSTRUCTURE
     1 BPN         1 TEMP              0 ****  ****    0 ROOT
