@<TRIPOS>MOLECULE
BPN
   18    18     1     0     0
SMALL
bcc


@<TRIPOS>ATOM
      1 C1         -0.0180   -0.0130   -0.0320 ca        1 BPN     -0.044300
      2 C2          1.3810   -0.0160   -0.0250 ca        1 BPN     -0.129500
      3 C3          2.0820   -0.0070    1.1780 ca        1 BPN     -0.068000
      4 C4          1.3650    0.0020    2.3860 ca        1 BPN     -0.178200
      5 C5         -0.0390   -0.0050    2.3920 ca        1 BPN     -0.068000
      6 C6         -0.7210   -0.0130    1.1770 ca        1 BPN     -0.129500
      7 C7         -0.7620    0.0020   -1.3310 c3        1 BPN      0.168700
      8 N1          2.1030    0.0150    3.6760 no        1 BPN      0.313200
      9 O1         -0.9860   -1.3450   -1.7220 oh        1 BPN     -0.597800
     10 O4          1.4800    0.0230    4.7040 o         1 BPN     -0.210000
     11 O5          3.3050    0.0210    3.6600 o         1 BPN     -0.210000
     12 H2          1.9350   -0.0320   -0.9760 ha        1 BPN      0.157500
     13 H3          3.1850   -0.0100    1.1840 ha        1 BPN      0.171000
     14 H5         -0.5930   -0.0050    3.3460 ha        1 BPN      0.171000
     15 H6         -1.8220   -0.0270    1.1730 ha        1 BPN      0.157500
     16 H71        -0.1580    0.5310   -2.1190 h1        1 BPN      0.041700
     17 H72        -1.7460    0.5330   -1.2100 h1        1 BPN      0.041700
     18 HO1        -1.4650   -1.3090   -2.5580 ho        1 BPN      0.411000
@<TRIPOS>BOND
     1    1    2 ar  
     2    1    6 ar  
     3    1    7 1   
     4    2    3 ar  
     5    2   12 1   
     6    3    4 ar  
     7    3   13 1   
     8    4    5 ar  
     9    4    8 1   
    10    5    6 ar  
    11    5   14 1   
    12    6   15 1   
    13    7    9 1   
    14    7   16 1   
    15    7   17 1   
    16    8   10 1   
    17    8   11 1   
    18    9   18 1   
@<TRIPOS>SUBSTRUCTURE
     1 BPN         1 TEMP              0 ****  ****    0 ROOT
