@<TRIPOS>MOLECULE
BPO
   65    67     1     0     0
SMALL
bcc


@<TRIPOS>ATOM
      1 C22        -0.3090   -0.1830   -0.8410 c3        1 BPO     -0.199000
      2 C1         -9.1040    3.0450   -5.0480 c3        1 BPO     -0.140000
      3 N1        -13.7970    4.7360   -4.2500 n4        1 BPO     -0.057000
      4 C2        -11.4850    2.6730   -4.2260 c2        1 BPO     -0.058000
      5 C7         -5.5080    3.8420   -3.2910 c3        1 BPO     -0.027000
      6 C6         -5.8150    2.3600   -2.9490 c2        1 BPO      0.295000
      7 C5         -9.0800    4.1750   -4.0630 c2        1 BPO     -0.240000
      8 C4        -10.2530    4.6450   -3.5130 c2        1 BPO      0.030000
      9 C3        -11.5020    3.9790   -3.6870 c2        1 BPO     -0.256000
     10 C11        -3.4920    5.3200   -3.7420 c3        1 BPO     -0.017000
     11 C10        -4.1420    3.9790   -3.9010 c2        1 BPO     -0.170000
     12 C9        -12.7380    4.5950   -3.1870 c2        1 BPO      0.071000
     13 C12        -4.1540    6.3490   -4.4930 c1        1 BPO     -0.220000
     14 C17        -3.9270   -0.2930   -2.0520 c3        1 BPO     -0.185500
     15 C16        -5.2790    0.3330   -1.7130 c3        1 BPO     -0.045000
     16 C14        -2.8950    2.0140   -5.0780 c2        1 BPO     -0.108000
     17 C13        -4.6490    7.2440   -5.1180 c1        1 BPO     -0.172000
     18 C15        -3.5420    2.9790   -4.5040 c1        1 BPO     -0.101000
     19 C18        -2.7940    0.3430   -1.2630 c3        1 BPO     -0.139000
     20 C19        -1.4490   -0.0720   -1.8280 c2        1 BPO      0.288000
     21 C20        -2.8360    1.8670   -1.2890 c3        1 BPO     -0.185500
     22 C         -10.4280    2.5040   -5.0620 c1        1 BPO      0.074000
     23 O          -6.6330    1.7540   -3.6880 o         1 BPO     -0.442000
     24 O1         -7.7320    5.6410   -2.7360 o         1 BPO     -0.201000
     25 N          -6.5440    4.3760   -4.2710 n4        1 BPO     -0.100000
     26 N2        -13.0530    5.0180   -2.0240 n2        1 BPO     -0.157000
     27 N3         -5.2700    1.7900   -1.8340 n         1 BPO     -0.251000
     28 O2         -1.2820   -0.2500   -3.0390 o         1 BPO     -0.309000
     29 C21        -4.2340    2.4130   -1.0220 c3        1 BPO     -0.045000
     30 C23         0.1070   -1.5960   -0.6350 c2        1 BPO     -0.101000
     31 C24         0.4420   -2.0340    0.5990 c2        1 BPO     -0.179000
     32 C25         0.3520   -1.1590    1.7390 c2        1 BPO      0.018000
     33 C26        -0.1120    0.1210    1.6030 c2        1 BPO     -0.243000
     34 C27        -0.5540    0.6260    0.3620 c1        1 BPO     -0.121000
     35 HN11      -13.9450    3.8220   -4.6910 hn        1 BPO      0.271667
     36 HN12      -14.6900    5.0710   -3.8560 hn        1 BPO      0.271667
     37 H7         -5.5930    4.4940   -2.3680 hx        1 BPO      0.178000
     38 H4        -10.2270    5.5390   -2.8570 ha        1 BPO      0.186000
     39 H11        -3.4770    5.5990   -2.6490 hc        1 BPO      0.137500
     40 H12        -2.4160    5.2600   -4.0800 hc        1 BPO      0.137500
     41 H171       -3.7220   -0.1950   -3.1520 hc        1 BPO      0.119250
     42 H172       -3.9830   -1.3880   -1.8180 hc        1 BPO      0.119250
     43 H161       -6.0720   -0.0980   -2.3860 h1        1 BPO      0.115500
     44 H162       -5.5490    0.0990   -0.6430 h1        1 BPO      0.115500
     45 H14        -2.2530    1.3090   -4.5100 ha        1 BPO      0.190000
     46 H13        -5.0540    8.0590   -5.6690 ha        1 BPO      0.244000
     47 H15        -2.9440    1.8290   -6.1650 ha        1 BPO      0.190000
     48 H18        -2.4740    2.2360   -2.2850 hc        1 BPO      0.119250
     49 H201       -2.8620    0.0030   -0.1910 hc        1 BPO      0.131000
     50 H202       -2.1310    2.2490   -0.4950 hc        1 BPO      0.119250
     51 H          -8.3700    2.2110   -4.7700 hc        1 BPO      0.205000
     52 HA         -6.1300    5.2120   -4.7240 hn        1 BPO      0.272000
     53 HB        -12.3980    4.9310   -1.2740 hn        1 BPO      0.250000
     54 H211       -4.5130    2.2120    0.0540 h1        1 BPO      0.115500
     55 H212       -4.2250    3.5270   -1.1750 h1        1 BPO      0.115500
     56 H23         0.5960    0.3420   -1.3150 hc        1 BPO      0.204000
     57 H24         0.1750   -2.2360   -1.5280 ha        1 BPO      0.155000
     58 H25         0.7930   -3.0660    0.7660 ha        1 BPO      0.159000
     59 H26         0.6550   -1.5640    2.7200 ha        1 BPO      0.152000
     60 H27        -0.1850    0.7870    2.4800 ha        1 BPO      0.159000
     61 C8         -7.8280    4.7770   -3.6060 c2        1 BPO      0.306000
     62 H1         -8.8190    3.3880   -6.0870 hc        1 BPO      0.205000
     63 H131      -13.4710    5.4060   -4.9550 hn        1 BPO      0.271667
     64 HN3        -6.7120    3.6490   -4.9780 hn        1 BPO      0.272000
     65 H2        -12.2680    1.9180   -4.0560 ha        1 BPO      0.206000
@<TRIPOS>BOND
     1    1   20 1   
     2    1   30 1   
     3    1   34 1   
     4    1   56 1   
     5    2    7 1   
     6    2   22 1   
     7    2   51 1   
     8    2   62 1   
     9    3   12 1   
    10    3   35 1   
    11    3   36 1   
    12    3   63 1   
    13    4    9 1   
    14    4   22 1   
    15    4   65 1   
    16    5    6 1   
    17    5   11 1   
    18    5   25 1   
    19    5   37 1   
    20    6   23 1   
    21    6   27 1   
    22    7    8 1   
    23    7   61 1   
    24    8    9 1   
    25    8   38 1   
    26    9   12 1   
    27   10   11 1   
    28   10   13 1   
    29   10   39 1   
    30   10   40 1   
    31   11   18 1   
    32   12   26 1   
    33   13   17 1   
    34   14   15 1   
    35   14   19 1   
    36   14   41 1   
    37   14   42 1   
    38   15   27 1   
    39   15   43 1   
    40   15   44 1   
    41   16   18 1   
    42   16   45 1   
    43   16   47 1   
    44   17   46 1   
    45   19   20 1   
    46   19   21 1   
    47   19   49 1   
    48   20   28 1   
    49   21   29 1   
    50   21   48 1   
    51   21   50 1   
    52   24   61 1   
    53   25   52 1   
    54   25   61 1   
    55   25   64 1   
    56   26   53 1   
    57   27   29 1   
    58   29   54 1   
    59   29   55 1   
    60   30   31 1   
    61   30   57 1   
    62   31   32 1   
    63   31   58 1   
    64   32   33 1   
    65   32   59 1   
    66   33   34 1   
    67   33   60 1   
@<TRIPOS>SUBSTRUCTURE
     1 BPO         1 TEMP              0 ****  ****    0 ROOT
