@<TRIPOS>MOLECULE
BPO
   63    66     1     0     0
SMALL
bcc


@<TRIPOS>ATOM
      1 C22         0.4950   -0.1110   -6.5730 ca        1 BPO     -0.171600
      2 C1          0.2460   -1.8590    4.7660 ca        1 BPO     -0.090000
      3 N1          0.5340    0.4940    9.2310 nh        1 BPO     -0.891800
      4 C2          0.5940   -1.6330    7.1510 ca        1 BPO     -0.075000
      5 C7         -0.3170    0.2170    0.9810 c3        1 BPO      0.089000
      6 C6         -0.2350   -1.0270    0.0490 c         1 BPO      0.644100
      7 C5          0.6380   -0.5290    4.5860 ca        1 BPO     -0.143600
      8 C4          1.0240    0.2460    5.6840 ca        1 BPO     -0.063000
      9 C3          0.9940   -0.3060    6.9680 ca        1 BPO     -0.206900
     10 C11        -1.4400    2.3890    0.3980 ca        1 BPO     -0.113000
     11 C10        -1.5430    1.0090    0.5940 ca        1 BPO     -0.111300
     12 C9          1.4250    0.5300    8.1340 ce        1 BPO      0.635800
     13 C12        -2.5700    3.1290    0.0500 ca        1 BPO     -0.130500
     14 C17        -0.1000   -1.9510   -3.3970 c3        1 BPO     -0.093400
     15 C16         0.5420   -2.0920   -2.0180 c3        1 BPO      0.088500
     16 C14        -3.9090    1.1190    0.1070 ca        1 BPO     -0.130500
     17 C13        -3.8040    2.4950   -0.0970 ca        1 BPO     -0.118000
     18 C15        -2.7820    0.3750    0.4540 ca        1 BPO     -0.113000
     19 C18         0.3740   -0.6780   -4.0840 c3        1 BPO     -0.159700
     20 C19        -0.3330   -0.5010   -5.4110 c         1 BPO      0.579700
     21 C20         0.0990    0.5220   -3.1900 c3        1 BPO     -0.093400
     22 C           0.2280   -2.4060    6.0490 ca        1 BPO     -0.143000
     23 O          -0.6940   -2.1230    0.4360 o         1 BPO     -0.626100
     24 O1          1.6150    0.8770    2.9120 o         1 BPO     -0.605100
     25 N          -0.3490   -0.1800    2.3690 n         1 BPO     -0.544900
     26 N2          2.5440    1.1890    8.1870 n2        1 BPO     -0.828100
     27 N3          0.4020   -0.9220   -1.1740 n         1 BPO     -0.455800
     28 O2         -1.5500   -0.6920   -5.5210 o         1 BPO     -0.524100
     29 C21         0.7250    0.3360   -1.8050 c3        1 BPO      0.088500
     30 C23         0.1100   -0.5420   -7.8500 ca        1 BPO     -0.086500
     31 C24         0.8720   -0.1970   -8.9650 ca        1 BPO     -0.140500
     32 C25         2.0130    0.5900   -8.8150 ca        1 BPO     -0.104000
     33 C26         2.3920    1.0340   -7.5480 ca        1 BPO     -0.140500
     34 C27         1.6380    0.6840   -6.4290 ca        1 BPO     -0.086500
     35 HN11        0.7260    1.1540    9.9540 hn        1 BPO      0.397300
     36 HN12       -0.4230    0.4850    8.9530 hn        1 BPO      0.397300
     37 H2          0.5780   -2.0700    8.1620 ha        1 BPO      0.154000
     38 H7          0.6110    0.8550    0.8390 h1        1 BPO      0.109700
     39 H4          1.3540    1.2860    5.5220 ha        1 BPO      0.160000
     40 H11        -0.4690    2.8940    0.5260 ha        1 BPO      0.144000
     41 H12        -2.4860    4.2140   -0.1050 ha        1 BPO      0.136000
     42 H171        0.1830   -2.8440   -4.0110 hc        1 BPO      0.063700
     43 H172       -1.2180   -1.9330   -3.3110 hc        1 BPO      0.063700
     44 H161        1.6480   -2.2780   -2.1500 h1        1 BPO      0.060200
     45 H162        0.0940   -2.9870   -1.4980 h1        1 BPO      0.060200
     46 H14        -4.8810    0.6170   -0.0070 ha        1 BPO      0.136000
     47 H13        -4.6930    3.0800   -0.3710 ha        1 BPO      0.135000
     48 H15        -2.8580   -0.7130    0.6120 ha        1 BPO      0.144000
     49 H18         1.4830   -0.7600   -4.2610 hc        1 BPO      0.066700
     50 H201        0.5320    1.4500   -3.6460 hc        1 BPO      0.063700
     51 H202       -1.0090    0.6660   -3.0960 hc        1 BPO      0.063700
     52 H          -0.0730   -3.4550    6.1920 ha        1 BPO      0.143000
     53 HA         -1.0050   -0.8900    2.6040 hn        1 BPO      0.326500
     54 HB          3.1360    1.0590    7.3950 hn        1 BPO      0.400400
     55 H211        0.3920    1.2000   -1.1630 h1        1 BPO      0.060200
     56 H212        1.8490    0.3870   -1.9070 h1        1 BPO      0.060200
     57 H23        -0.8030   -1.1490   -7.9610 ha        1 BPO      0.143000
     58 H24         0.5680   -0.5430   -9.9640 ha        1 BPO      0.138000
     59 H25         2.6140    0.8640   -9.6960 ha        1 BPO      0.136000
     60 H26         3.2870    1.6620   -7.4290 ha        1 BPO      0.138000
     61 H27         1.9390    1.0460   -5.4340 ha        1 BPO      0.143000
     62 C8          0.6960    0.0950    3.2330 c         1 BPO      0.675700
     63 H1         -0.0320   -2.4870    3.9050 ha        1 BPO      0.147000
@<TRIPOS>BOND
     1    1   20 1   
     2    1   30 ar  
     3    1   34 ar  
     4    2    7 ar  
     5    2   22 ar  
     6    2   63 1   
     7    3   12 1   
     8    3   35 1   
     9    3   36 1   
    10    4    9 ar  
    11    4   22 ar  
    12    4   37 1   
    13    5    6 1   
    14    5   11 1   
    15    5   25 1   
    16    5   38 1   
    17    6   23 2   
    18    6   27 1   
    19    7    8 ar  
    20    7   62 1   
    21    8    9 ar  
    22    8   39 1   
    23    9   12 1   
    24   10   11 ar  
    25   10   13 ar  
    26   10   40 1   
    27   11   18 ar  
    28   12   26 2   
    29   13   17 ar  
    30   13   41 1   
    31   14   15 1   
    32   14   19 1   
    33   14   42 1   
    34   14   43 1   
    35   15   27 1   
    36   15   44 1   
    37   15   45 1   
    38   16   17 ar  
    39   16   18 ar  
    40   16   46 1   
    41   17   47 1   
    42   18   48 1   
    43   19   20 1   
    44   19   21 1   
    45   19   49 1   
    46   20   28 2   
    47   21   29 1   
    48   21   50 1   
    49   21   51 1   
    50   22   52 1   
    51   24   62 2   
    52   25   53 1   
    53   25   62 1   
    54   26   54 1   
    55   27   29 1   
    56   29   55 1   
    57   29   56 1   
    58   30   31 ar  
    59   30   57 1   
    60   31   32 ar  
    61   31   58 1   
    62   32   33 ar  
    63   32   59 1   
    64   33   34 ar  
    65   33   60 1   
    66   34   61 1   
@<TRIPOS>SUBSTRUCTURE
     1 BPO         1 TEMP              0 ****  ****    0 ROOT
