@<TRIPOS>MOLECULE
BPO
   65    66     1     0     0
SMALL
bcc


@<TRIPOS>ATOM
      1 C22        -4.0840   -0.1880   -0.4170 c3        1 BPO     -0.204000
      2 C1         -7.9290    2.5940   -1.7500 c3        1 BPO     -0.178000
      3 N1        -11.9180    5.4190   -0.3540 nz        1 BPO     -0.057000
      4 C2         -9.3850    3.7510   -0.0600 c2        1 BPO     -0.113000
      5 C7         -4.9940    3.5200   -4.8720 c3        1 BPO     -0.009000
      6 C6         -3.5830    2.9280   -4.6200 c2        1 BPO      0.294000
      7 C5         -7.9080    3.8980   -2.4670 c2        1 BPO     -0.129000
      8 C4         -8.7670    4.8980   -2.1160 c2        1 BPO     -0.066000
      9 C3         -9.5830    4.8090   -0.9340 c2        1 BPO     -0.163000
     10 C11        -4.9590    4.3510   -7.2390 c3        1 BPO     -0.080000
     11 C10        -5.3590    3.2560   -6.3270 c2        1 BPO      0.240000
     12 C9        -10.5250    5.9070   -0.6520 c2        1 BPO      0.058000
     13 C12        -5.0890    4.0760   -8.6330 c1        1 BPO     -0.263000
     14 C17        -2.2920    2.7290    0.4580 c3        1 BPO     -0.211000
     15 C16        -4.3560    0.7690   -3.9960 c1        1 BPO     -0.251000
     16 C14        -6.2200    0.9760   -6.0890 c2        1 BPO      0.049000
     17 C13        -5.1640    3.9070   -9.8160 c1        1 BPO     -0.075000
     18 C15        -6.0490    2.1420   -6.7920 c2        1 BPO     -0.281000
     19 C18        -2.4260    1.7560   -0.7000 c3        1 BPO     -0.151000
     20 C19        -3.8500    1.2640   -0.7880 c2        1 BPO      0.313000
     21 C20        -1.9760    2.4170   -1.9940 c3        1 BPO     -0.165000
     22 C          -8.8280    2.6070   -0.6260 c1        1 BPO      0.004000
     23 O          -2.6110    3.5690   -5.0250 o         1 BPO     -0.233000
     24 O1         -6.9960    5.2210   -4.2260 o         1 BPO     -0.349000
     25 N          -6.0200    3.1800   -3.9250 ns        1 BPO     -0.369000
     26 N2        -10.3510    7.1720   -0.6150 n2        1 BPO     -0.163000
     27 N3         -3.4210    1.6850   -3.9260 n         1 BPO     -0.143000
     28 O2         -4.7870    1.9740   -1.1790 o         1 BPO     -0.369000
     29 C21        -2.1410    1.5220   -3.2200 c3        1 BPO     -0.104000
     30 C23        -3.5220   -0.5640    0.9040 c2        1 BPO     -0.104000
     31 C24        -2.8730   -1.7410    1.0640 c2        1 BPO     -0.171000
     32 C25        -2.6590   -2.6190   -0.0570 c2        1 BPO      0.040000
     33 C26        -3.0740   -2.2620   -1.3140 c2        1 BPO     -0.243000
     34 C27        -3.7010   -1.0300   -1.5650 c1        1 BPO     -0.150000
     35 HN11      -12.3210    5.0330   -1.2150 hn        1 BPO      0.271333
     36 HN12      -11.8620    4.6810    0.3560 hn        1 BPO      0.271333
     37 H7         -4.8260    4.6550   -4.7900 h1        1 BPO      0.182000
     38 H4         -8.8000    5.8310   -2.7110 ha        1 BPO      0.184000
     39 H11        -5.5830    5.2670   -6.9690 hc        1 BPO      0.186000
     40 H12        -3.8810    4.6350   -7.0020 hc        1 BPO      0.186000
     41 H171       -2.9720    3.6030    0.3170 hc        1 BPO      0.095333
     42 H172       -2.5480    2.2240    1.4210 hc        1 BPO      0.095333
     43 H161       -1.2400    3.0990    0.5210 hc        1 BPO      0.095333
     44 H162       -4.1970   -0.1900   -3.4430 ha        1 BPO      0.192000
     45 H14        -6.8230    0.1540   -6.5110 ha        1 BPO      0.206500
     46 H13        -5.2280    3.7580  -10.8690 ha        1 BPO      0.252000
     47 H15        -6.4410    2.2040   -7.8330 ha        1 BPO      0.191000
     48 H18        -0.8820    2.6600   -1.8950 hc        1 BPO      0.115500
     49 H201       -1.7590    0.8670   -0.5020 hc        1 BPO      0.123000
     50 H202       -2.5170    3.3900   -2.1280 hc        1 BPO      0.115500
     51 H          -6.8930    2.3010   -1.3700 hc        1 BPO      0.200500
     52 HA         -5.6630    0.7850   -5.0940 ha        1 BPO      0.206500
     53 HB         -9.4410    7.5450   -0.7950 hn        1 BPO      0.249000
     54 H211       -1.3140    1.7520   -3.9530 h1        1 BPO      0.138500
     55 H212       -2.0640    0.4370   -2.9160 h1        1 BPO      0.138500
     56 H23        -5.2140   -0.3620   -0.3450 hc        1 BPO      0.192000
     57 H24        -3.6940    0.1230    1.7470 ha        1 BPO      0.150000
     58 H25        -2.4900   -2.0560    2.0490 ha        1 BPO      0.168000
     59 H26        -2.1340   -3.5730    0.1300 ha        1 BPO      0.163000
     60 H27        -2.8920   -2.9320   -2.1720 ha        1 BPO      0.166000
     61 C8         -6.9470    4.1570   -3.5730 c2        1 BPO      0.342000
     62 H1         -8.2390    1.7580   -2.4490 hc        1 BPO      0.200500
     63 H131      -12.5240    6.1790   -0.0110 hn        1 BPO      0.271333
     64 HN3        -5.8990    2.3710   -3.3530 hn        1 BPO      0.269000
     65 H2         -9.7200    3.7480    0.9890 ha        1 BPO      0.178000
@<TRIPOS>BOND
     1    1   20 1   
     2    1   30 1   
     3    1   34 1   
     4    1   56 1   
     5    2    7 1   
     6    2   22 1   
     7    2   51 1   
     8    2   62 1   
     9    3   12 1   
    10    3   35 1   
    11    3   36 1   
    12    3   63 1   
    13    4    9 1   
    14    4   22 1   
    15    4   65 1   
    16    5    6 1   
    17    5   11 1   
    18    5   25 1   
    19    5   37 1   
    20    6   23 1   
    21    6   27 1   
    22    7    8 1   
    23    7   61 1   
    24    8    9 1   
    25    8   38 1   
    26    9   12 1   
    27   10   11 1   
    28   10   13 1   
    29   10   39 1   
    30   10   40 1   
    31   11   18 1   
    32   12   26 1   
    33   13   17 1   
    34   14   19 1   
    35   14   41 1   
    36   14   42 1   
    37   14   43 1   
    38   15   27 1   
    39   15   44 1   
    40   16   18 1   
    41   16   45 1   
    42   16   52 1   
    43   17   46 1   
    44   18   47 1   
    45   19   20 1   
    46   19   21 1   
    47   19   49 1   
    48   20   28 1   
    49   21   29 1   
    50   21   48 1   
    51   21   50 1   
    52   24   61 1   
    53   25   61 1   
    54   25   64 1   
    55   26   53 1   
    56   27   29 1   
    57   29   54 1   
    58   29   55 1   
    59   30   31 1   
    60   30   57 1   
    61   31   32 1   
    62   31   58 1   
    63   32   33 1   
    64   32   59 1   
    65   33   34 1   
    66   33   60 1   
@<TRIPOS>SUBSTRUCTURE
     1 BPO         1 TEMP              0 ****  ****    0 ROOT
