@<TRIPOS>MOLECULE
BPO
   63    56     1     0     0
SMALL
bcc


@<TRIPOS>ATOM
      1 C22         5.0700   -1.3700    2.5280 c1        1 BPO     -0.152000
      2 C1         -2.1440    2.7550   -3.0170 c1        1 BPO     -0.091000
      3 N1         -2.6970    0.5960   -7.8590 n3        1 BPO     -0.395000
      4 C2         -2.0930    2.9580   -5.4190 c1        1 BPO     -0.122625
      5 C7         -2.0520    0.2690    0.5680 c3        1 BPO      0.057000
      6 C6         -1.1680    0.9420    1.6000 c2        1 BPO      0.287000
      7 C5         -2.1240    1.3650   -3.1360 c1        1 BPO     -0.128000
      8 C4         -2.0880    0.7740   -4.3980 c1        1 BPO     -0.040000
      9 C3         -2.0730    1.5690   -5.5380 c1        1 BPO     -0.065000
     10 C11        -3.7560   -1.2670    1.2510 c1        1 BPO     -0.122625
     11 C10        -3.4560    0.0750    1.1460 c1        1 BPO     -0.105000
     12 C9         -1.6930    0.8470   -6.8650 c2        1 BPO      0.123000
     13 C8         -2.0430    0.4850   -1.8750 c2        1 BPO      0.354000
     14 C12        -4.9320   -1.6700    1.8680 c1        1 BPO     -0.122625
     15 C17         1.7070   -0.0830    3.6870 c3        1 BPO     -0.171000
     16 C16         1.0740    1.0070    2.8250 c3        1 BPO     -0.047500
     17 C14        -5.5070    0.6250    2.2770 c1        1 BPO     -0.122625
     18 C13        -5.8070   -0.7210    2.3810 c1        1 BPO     -0.122625
     19 C15        -4.3340    1.0270    1.6610 c1        1 BPO     -0.093000
     20 C18         2.4210   -1.1520    2.8610 c3        1 BPO     -0.147000
     21 C19         3.7570   -0.6170    2.2660 c1        1 BPO      0.271000
     22 C20         1.4570   -1.6620    1.7890 c3        1 BPO     -0.171000
     23 C          -2.1280    3.5500   -4.1550 c1        1 BPO     -0.122625
     24 O          -1.6290    1.8020    2.3240 o         1 BPO     -0.375000
     25 O1         -2.0260   -0.7190   -1.9810 o         1 BPO     -0.369000
     26 N          -2.1280    1.0800   -0.5910 n         1 BPO     -0.372000
     27 N2         -0.4560    0.4700   -7.0740 n1        1 BPO     -0.283000
     28 N3          0.2230    0.4790    1.7980 n         1 BPO     -0.299000
     29 O2          3.7560    0.3810    1.5680 o         1 BPO     -0.289000
     30 C21         0.8320   -0.5360    0.9730 c3        1 BPO     -0.047500
     31 C23         5.7330   -1.7100    1.3580 c2        1 BPO     -0.078000
     32 C24         7.0280   -2.2090    1.4140 c1        1 BPO     -0.141000
     33 C25         7.6590   -2.3680    2.6420 c1        1 BPO     -0.122625
     34 C26         6.9970   -2.0290    3.8120 c1        1 BPO     -0.122625
     35 C27         5.7020   -1.5300    3.7560 c1        1 BPO     -0.096000
     36 H1         -2.1690    3.1690   -2.1330 ha        1 BPO      0.143000
     37 HN11       -3.5790    0.7740   -7.6760 hn        1 BPO      0.193000
     38 HN12       -2.4550    0.2720   -8.6870 hn        1 BPO      0.193000
     39 H2         -2.0820    3.5170   -6.2210 ha        1 BPO      0.136750
     40 H7         -1.6740   -0.6010    0.3320 h1        1 BPO      0.141000
     41 H4         -2.0750   -0.1870   -4.4810 ha        1 BPO      0.170000
     42 H11        -3.1400   -1.9350    0.8900 ha        1 BPO      0.136750
     43 H12        -5.1430   -2.6150    1.9420 ha        1 BPO      0.136750
     44 H171        1.0110   -0.5080    4.2130 hc        1 BPO      0.093250
     45 H172        2.3520    0.3300    4.2930 hc        1 BPO      0.093250
     46 H161        1.7840    1.5280    2.4080 h1        1 BPO      0.119250
     47 H162        0.5440    1.5970    3.4020 h1        1 BPO      0.119250
     48 H14        -6.1300    1.2990    2.6420 ha        1 BPO      0.136750
     49 H13        -6.6330   -1.0040    2.8140 ha        1 BPO      0.136750
     50 H15        -4.1240    1.9710    1.5880 ha        1 BPO      0.153000
     51 H18         2.7450   -1.8950    3.4260 hc        1 BPO      0.105000
     52 H201        0.7380   -2.1730    2.2270 hc        1 BPO      0.093250
     53 H202        1.9470   -2.2610    1.1800 hc        1 BPO      0.093250
     54 H          -2.1420    4.5230   -4.0720 ha        1 BPO      0.136750
     55 HA         -2.3520    1.9630   -0.5130 hn        1 BPO      0.237000
     56 HB         -0.2350    0.0520   -7.8430 DU        1 BPO      0.141000
     57 H211        0.1520   -0.9140    0.3880 h1        1 BPO      0.119250
     58 H212        1.5400   -0.1140    0.4130 h1        1 BPO      0.119250
     59 H23         5.2900   -1.5980    0.4970 ha        1 BPO      0.152000
     60 H24         7.4930   -2.4470    0.5920 ha        1 BPO      0.138000
     61 H25         8.5730   -2.7200    2.6810 ha        1 BPO      0.136750
     62 H26         7.4430   -2.1420    4.6800 ha        1 BPO      0.136750
     63 H27         5.2390   -1.2920    4.5740 ha        1 BPO      0.135000
@<TRIPOS>BOND
     1    1   31 1   
     2    1   35 1   
     3    2    7 1   
     4    2   36 1   
     5    3   12 1   
     6    3   37 1   
     7    3   38 1   
     8    4   23 1   
     9    4   39 1   
    10    5    6 1   
    11    5   11 1   
    12    5   26 1   
    13    5   40 1   
    14    6   24 1   
    15    6   28 1   
    16    7   13 1   
    17    8    9 1   
    18    8   41 1   
    19    9   12 1   
    20   10   14 1   
    21   10   42 1   
    22   11   19 1   
    23   12   27 1   
    24   13   25 1   
    25   13   26 1   
    26   14   43 1   
    27   15   16 1   
    28   15   20 1   
    29   15   44 1   
    30   15   45 1   
    31   16   28 1   
    32   16   46 1   
    33   16   47 1   
    34   17   18 1   
    35   17   48 1   
    36   18   49 1   
    37   19   50 1   
    38   20   21 1   
    39   20   22 1   
    40   20   51 1   
    41   21   29 1   
    42   22   30 1   
    43   22   52 1   
    44   22   53 1   
    45   23   54 1   
    46   26   55 1   
    47   28   30 1   
    48   30   57 1   
    49   30   58 1   
    50   31   32 1   
    51   31   59 1   
    52   32   60 1   
    53   33   34 1   
    54   33   61 1   
    55   34   62 1   
    56   35   63 1   
@<TRIPOS>SUBSTRUCTURE
     1 BPO         1 TEMP              0 ****  ****    0 ROOT
