@<TRIPOS>MOLECULE
BPP
   52    55     1     0     0
SMALL
bcc


@<TRIPOS>ATOM
      1 C1        -24.5700  -31.5830   22.8280 ce        1 BPP     -0.307800
      2 C2        -24.0550  -32.9340   22.4570 c3        1 BPP      0.036100
      3 C3        -22.7180  -32.8800   21.8550 cc        1 BPP     -0.219600
      4 C4        -22.0200  -31.5640   21.6390 cc        1 BPP      0.351300
      5 C5        -22.5890  -30.3920   22.0040 cf        1 BPP     -0.102000
      6 C6        -23.8910  -30.4240   22.6220 cf        1 BPP      0.002000
      7 C10       -21.8860  -33.8440   21.3730 cd        1 BPP     -0.175300
      8 C11       -20.6740  -33.1160   20.8550 cd        1 BPP      0.414800
      9 N12       -20.7530  -31.8050   21.0100 nc        1 BPP     -0.611000
     10 C13       -25.9110  -31.5540   23.4740 ce        1 BPP      0.517100
     11 N14       -26.0470  -30.8900   24.6450 nh        1 BPP     -0.469100
     12 N15       -26.9430  -32.1870   22.8740 nh        1 BPP     -0.453200
     13 C17       -19.6080  -33.8660   20.1090 c         1 BPP      0.571600
     14 O18       -19.9580  -34.4820   19.0830 o         1 BPP     -0.579100
     15 N19       -18.3070  -33.8150   20.5470 n         1 BPP     -0.440800
     16 C20       -17.2680  -34.5030   19.8000 c3        1 BPP      0.087500
     17 C21       -16.4830  -35.5200   20.6270 c3        1 BPP     -0.097400
     18 C22       -15.9710  -34.8960   21.9160 c3        1 BPP     -0.062700
     19 C23       -17.1330  -34.2980   22.6910 c3        1 BPP     -0.097400
     20 C24       -17.9100  -33.2930   21.8360 c3        1 BPP      0.087500
     21 C33       -15.2280  -35.9340   22.7470 c3        1 BPP     -0.033100
     22 C35       -14.4710  -35.3280   23.8760 ca        1 BPP     -0.086300
     23 C38       -14.8500  -35.5740   25.2000 ca        1 BPP     -0.129500
     24 C39       -14.1220  -35.0220   26.2540 ca        1 BPP     -0.126000
     25 C40       -13.0110  -34.2210   25.9950 ca        1 BPP     -0.128000
     26 C41       -12.6270  -33.9740   24.6770 ca        1 BPP     -0.126000
     27 C42       -13.3510  -34.5250   23.6220 ca        1 BPP     -0.129500
     28 H2        -24.0260  -33.5860   23.3780 hc        1 BPP      0.079700
     29 H3        -24.7570  -33.4290   21.7250 hc        1 BPP      0.079700
     30 H5        -22.1020  -29.4150   21.8460 ha        1 BPP      0.187000
     31 H6        -24.3200  -29.4450   22.9050 ha        1 BPP      0.151000
     32 H10       -22.0020  -34.9240   21.3120 ha        1 BPP      0.188000
     33 H141      -26.9130  -30.8150   25.1330 hn        1 BPP      0.327450
     34 H142      -25.2410  -30.4660   25.0540 hn        1 BPP      0.327450
     35 H151      -26.7910  -32.6300   21.9910 hn        1 BPP      0.327450
     36 H152      -27.8600  -32.2250   23.2640 hn        1 BPP      0.327450
     37 H201      -17.7270  -35.0220   18.9100 h1        1 BPP      0.063450
     38 H202      -16.5560  -33.7130   19.4200 h1        1 BPP      0.063450
     39 H211      -17.1270  -36.4060   20.8640 hc        1 BPP      0.057200
     40 H212      -15.6220  -35.8810   20.0060 hc        1 BPP      0.057200
     41 H22       -15.2520  -34.0680   21.6530 hc        1 BPP      0.059700
     42 H231      -17.8160  -35.1160   23.0380 hc        1 BPP      0.057200
     43 H232      -16.7480  -33.7650   23.5990 hc        1 BPP      0.057200
     44 H241      -17.2560  -32.3910   21.6500 h1        1 BPP      0.063450
     45 H242      -18.8090  -32.9570   22.4200 h1        1 BPP      0.063450
     46 H331      -15.9600  -36.6920   23.1340 hc        1 BPP      0.053700
     47 H332      -14.5070  -36.4810   22.0790 hc        1 BPP      0.053700
     48 H38       -15.7200  -36.2120   25.4120 ha        1 BPP      0.130000
     49 H39       -14.4230  -35.2250   27.2930 ha        1 BPP      0.134500
     50 H40       -12.4360  -33.7890   26.8270 ha        1 BPP      0.136000
     51 H41       -11.7460  -33.3470   24.4690 ha        1 BPP      0.134500
     52 H42       -13.0400  -34.3360   22.5840 ha        1 BPP      0.130000
@<TRIPOS>BOND
     1    1    2 1   
     2    1    6 2   
     3    1   10 1   
     4    2    3 1   
     5    2   28 1   
     6    2   29 1   
     7    3    4 1   
     8    3    7 2   
     9    4    5 2   
    10    4    9 1   
    11    5    6 1   
    12    5   30 1   
    13    6   31 1   
    14    7    8 1   
    15    7   32 1   
    16    8    9 2   
    17    8   13 1   
    18   10   11 2   
    19   10   12 1   
    20   11   33 1   
    21   11   34 1   
    22   12   35 1   
    23   12   36 1   
    24   13   14 2   
    25   13   15 1   
    26   15   16 1   
    27   15   20 1   
    28   16   17 1   
    29   16   37 1   
    30   16   38 1   
    31   17   18 1   
    32   17   39 1   
    33   17   40 1   
    34   18   19 1   
    35   18   21 1   
    36   18   41 1   
    37   19   20 1   
    38   19   42 1   
    39   19   43 1   
    40   20   44 1   
    41   20   45 1   
    42   21   22 1   
    43   21   46 1   
    44   21   47 1   
    45   22   23 ar  
    46   22   27 ar  
    47   23   24 ar  
    48   23   48 1   
    49   24   25 ar  
    50   24   49 1   
    51   25   26 ar  
    52   25   50 1   
    53   26   27 ar  
    54   26   51 1   
    55   27   52 1   
@<TRIPOS>SUBSTRUCTURE
     1 BPP         1 TEMP              0 ****  ****    0 ROOT
