@<TRIPOS>MOLECULE
BPP
   52    49     1     0     0
SMALL
bcc


@<TRIPOS>ATOM
      1 C1         -2.8970    3.0520   -4.5480 c1        1 BPP     -0.165000
      2 C2         -1.3640    3.0540   -4.5390 c1        1 BPP     -0.003000
      3 C3         -0.6290    3.0550   -3.2210 c2        1 BPP     -0.123000
      4 C4         -1.3830    2.6660   -1.9400 c2        1 BPP     -0.062000
      5 C5         -2.8850    2.7950   -1.9010 c2        1 BPP     -0.023000
      6 C6         -3.6650    2.9400   -3.2140 c1        1 BPP     -0.168000
      7 C10         0.4790    1.9630   -3.2430 c2        1 BPP     -0.154000
      8 C11         0.3480    1.0940   -2.0720 c1        1 BPP     -0.080000
      9 N12        -0.7320    1.5000   -1.3100 n1        1 BPP     -0.028000
     10 C13        -3.6490    3.0070   -5.8650 c2        1 BPP      0.339000
     11 N14        -3.8490    4.2110   -6.6170 n3        1 BPP     -0.317000
     12 N15        -4.1180    1.8540   -6.3220 n2        1 BPP     -0.307000
     13 C17         1.6220    0.5330   -1.3800 c2        1 BPP      0.359000
     14 O18         2.7140    0.8170   -1.8110 o         1 BPP     -0.327000
     15 N19         1.4960   -0.4520   -0.3220 n         1 BPP     -0.293000
     16 C20         2.6480   -1.1390    0.2660 c3        1 BPP     -0.035000
     17 C21         2.6610   -1.0500    1.7870 c3        1 BPP     -0.181000
     18 C22         1.3650   -1.4700    2.3860 c3        1 BPP     -0.101000
     19 C23         0.2060   -0.7560    1.7690 c3        1 BPP     -0.181000
     20 C24         0.2140   -0.8480    0.2490 c3        1 BPP     -0.035000
     21 C33         1.3920   -1.1610    3.9220 c3        1 BPP     -0.117000
     22 C35         1.5290   -2.4780    4.7090 c2        1 BPP     -0.080000
     23 C38         0.4450   -2.9740    5.4210 c2        1 BPP     -0.130000
     24 C39         0.6010   -4.0850    6.2390 c1        1 BPP     -0.125000
     25 C40         1.8380   -4.6990    6.3460 c1        1 BPP     -0.125500
     26 C41         2.9210   -4.2040    5.6360 c1        1 BPP     -0.125500
     27 C42         2.7650   -3.0910    4.8170 c1        1 BPP     -0.127000
     28 H2         -0.8660    3.1250   -5.3790 ha        1 BPP      0.157000
     29 H3         -0.2130    3.9280   -3.0910 ha        1 BPP      0.192000
     30 H5         -3.3610    2.7240   -1.0540 ha        1 BPP      0.185000
     31 H6         -4.6400    2.9380   -3.2090 ha        1 BPP      0.153000
     32 H10         1.3540    2.1690   -3.5960 ha        1 BPP      0.184000
     33 H141       -4.3540    4.1930   -7.3770 hn        1 BPP      0.277000
     34 H142       -3.5640    5.0120   -6.2790 hn        1 BPP      0.277000
     35 H151       -4.5730    1.8270   -7.1180 DU        1 BPP      0.270000
     36 H152       -3.9620    1.0760   -5.8560 hn        1 BPP      0.290000
     37 H201        3.4700   -0.7360   -0.0820 h1        1 BPP      0.099750
     38 H202        2.6220   -2.0820    0.0050 h1        1 BPP      0.099750
     39 H211        2.8450   -0.1260    2.0480 hc        1 BPP      0.097750
     40 H212        3.3720   -1.6260    2.1330 hc        1 BPP      0.097750
     41 H22         1.2530   -2.4310    2.2570 hc        1 BPP      0.096000
     42 H231        0.2400    0.1850    2.0290 hc        1 BPP      0.097750
     43 H232       -0.6200   -1.1460    2.1050 hc        1 BPP      0.097750
     44 H241        0.0220   -1.7710   -0.0140 h1        1 BPP      0.099750
     45 H242       -0.4840   -0.2660   -0.1080 h1        1 BPP      0.099750
     46 H331        0.5630   -0.7130    4.1790 hc        1 BPP      0.089000
     47 H332        2.1560   -0.5780    4.1250 hc        1 BPP      0.089000
     48 H38        -0.4320   -2.5390    5.3450 ha        1 BPP      0.127000
     49 H39        -0.1700   -4.4370    6.7440 ha        1 BPP      0.134000
     50 H40         1.9480   -5.4830    6.9230 ha        1 BPP      0.136500
     51 H41         3.7910   -4.6360    5.7110 ha        1 BPP      0.136500
     52 H42         3.5310   -2.7420    4.3150 ha        1 BPP      0.131000
@<TRIPOS>BOND
     1    1    2 1   
     2    1   10 1   
     3    2   28 1   
     4    3    4 1   
     5    3    7 1   
     6    3   29 1   
     7    4    5 1   
     8    4    9 1   
     9    5    6 1   
    10    5   30 1   
    11    6   31 1   
    12    7    8 1   
    13    7   32 1   
    14    8   13 1   
    15   10   11 1   
    16   10   12 1   
    17   11   33 1   
    18   11   34 1   
    19   12   36 1   
    20   13   14 1   
    21   13   15 1   
    22   15   16 1   
    23   15   20 1   
    24   16   17 1   
    25   16   37 1   
    26   16   38 1   
    27   17   18 1   
    28   17   39 1   
    29   17   40 1   
    30   18   19 1   
    31   18   21 1   
    32   18   41 1   
    33   19   20 1   
    34   19   42 1   
    35   19   43 1   
    36   20   44 1   
    37   20   45 1   
    38   21   22 1   
    39   21   46 1   
    40   21   47 1   
    41   22   23 1   
    42   22   27 1   
    43   23   24 1   
    44   23   48 1   
    45   24   49 1   
    46   25   26 1   
    47   25   50 1   
    48   26   51 1   
    49   27   52 1   
@<TRIPOS>SUBSTRUCTURE
     1 BPP         1 TEMP              0 ****  ****    0 ROOT
