@<TRIPOS>MOLECULE
BPP
   52    55     1     0     0
SMALL
bcc


@<TRIPOS>ATOM
      1 C1         -0.0730    0.3000    0.2300 ce        1 BPP     -0.250600
      2 C2          1.1810    0.8170    0.2750 c2        1 BPP     -0.008200
      3 C3          1.7900    1.1140    1.5820 c3        1 BPP     -0.151600
      4 C4          1.2180    0.2100    2.6960 cf        1 BPP      0.385600
      5 C5         -0.2000   -0.0880    2.6370 cf        1 BPP     -0.108600
      6 C6         -0.8150   -0.0460    1.4350 ce        1 BPP     -0.169000
      7 C10         3.2700    0.9220    1.8110 c2        1 BPP     -0.152200
      8 C11         3.4100    0.1790    2.9570 ce        1 BPP      0.039400
      9 N12         2.1540   -0.2690    3.4900 ne        1 BPP     -0.454300
     10 C13        -0.7420    0.0220   -1.0720 ce        1 BPP      0.519100
     11 N14        -1.3230   -1.1840   -1.2500 nh        1 BPP     -0.466100
     12 N15        -0.7380    0.9830   -2.0240 nh        1 BPP     -0.450200
     13 C17         4.6950   -0.0590    3.6860 c         1 BPP      0.692300
     14 O18         5.3530    0.9360    4.0500 o         1 BPP     -0.583100
     15 N19         5.0890   -1.3470    3.9630 n         1 BPP     -0.447800
     16 C20         6.2820   -1.5840    4.7560 c3        1 BPP      0.092500
     17 C21         7.2980   -2.5070    4.0860 c3        1 BPP     -0.096900
     18 C22         6.6370   -3.7920    3.6110 c3        1 BPP     -0.061700
     19 C23         5.4750   -3.4550    2.6920 c3        1 BPP     -0.096900
     20 C24         4.4780   -2.5180    3.3770 c3        1 BPP      0.092500
     21 C33         7.6550   -4.6840    2.9130 c3        1 BPP     -0.034100
     22 C35         7.1380   -6.0570    2.6620 ca        1 BPP     -0.084300
     23 C38         6.9320   -6.5110    1.3550 ca        1 BPP     -0.130000
     24 C39         6.4730   -7.8070    1.1230 ca        1 BPP     -0.126500
     25 C40         6.2150   -8.6610    2.1960 ca        1 BPP     -0.129000
     26 C41         6.4210   -8.2150    3.5020 ca        1 BPP     -0.126500
     27 C42         6.8820   -6.9210    3.7350 ca        1 BPP     -0.130000
     28 H2          1.7740    1.0540   -0.6230 ha        1 BPP      0.157000
     29 H3          1.5580    2.1970    1.8400 hc        1 BPP      0.152700
     30 H5         -0.7230   -0.3690    3.5670 ha        1 BPP      0.186000
     31 H6         -1.8920   -0.2550    1.3420 ha        1 BPP      0.153000
     32 H10         4.0450    1.3880    1.2050 ha        1 BPP      0.185000
     33 H141       -1.2760   -1.8520   -0.5070 hn        1 BPP      0.328450
     34 H142       -1.8070   -1.4390   -2.0830 hn        1 BPP      0.328450
     35 H151       -1.1620    0.8650   -2.9190 hn        1 BPP      0.328450
     36 H152       -0.3190    1.8650   -1.8180 hn        1 BPP      0.328450
     37 H201        6.7760   -0.5990    4.9920 h1        1 BPP      0.059200
     38 H202        5.9490   -2.0540    5.7280 h1        1 BPP      0.059200
     39 H211        7.7820   -1.9870    3.2200 hc        1 BPP      0.055450
     40 H212        8.1000   -2.7410    4.8340 hc        1 BPP      0.055450
     41 H22         6.2340   -4.3420    4.5090 hc        1 BPP      0.058700
     42 H231        5.8630   -2.9810    1.7530 hc        1 BPP      0.055450
     43 H232        4.9360   -4.3950    2.4040 hc        1 BPP      0.055450
     44 H241        3.9550   -3.0840    4.2030 h1        1 BPP      0.059200
     45 H242        3.7050   -2.2170    2.6170 h1        1 BPP      0.059200
     46 H331        7.9670   -4.2040    1.9480 hc        1 BPP      0.054200
     47 H332        8.5730   -4.7560    3.5600 hc        1 BPP      0.054200
     48 H38         7.1430   -5.8460    0.5040 ha        1 BPP      0.130000
     49 H39         6.3210   -8.1590    0.0920 ha        1 BPP      0.134000
     50 H40         5.8570   -9.6840    2.0130 ha        1 BPP      0.136000
     51 H41         6.2260   -8.8890    4.3490 ha        1 BPP      0.134000
     52 H42         7.0530   -6.5760    4.7650 ha        1 BPP      0.130000
@<TRIPOS>BOND
     1    1    2 2   
     2    1    6 1   
     3    1   10 1   
     4    2    3 1   
     5    2   28 1   
     6    3    4 1   
     7    3    7 1   
     8    3   29 1   
     9    4    5 1   
    10    4    9 2   
    11    5    6 2   
    12    5   30 1   
    13    6   31 1   
    14    7    8 2   
    15    7   32 1   
    16    8    9 1   
    17    8   13 1   
    18   10   11 2   
    19   10   12 1   
    20   11   33 1   
    21   11   34 1   
    22   12   35 1   
    23   12   36 1   
    24   13   14 2   
    25   13   15 1   
    26   15   16 1   
    27   15   20 1   
    28   16   17 1   
    29   16   37 1   
    30   16   38 1   
    31   17   18 1   
    32   17   39 1   
    33   17   40 1   
    34   18   19 1   
    35   18   21 1   
    36   18   41 1   
    37   19   20 1   
    38   19   42 1   
    39   19   43 1   
    40   20   44 1   
    41   20   45 1   
    42   21   22 1   
    43   21   46 1   
    44   21   47 1   
    45   22   23 ar  
    46   22   27 ar  
    47   23   24 ar  
    48   23   48 1   
    49   24   25 ar  
    50   24   49 1   
    51   25   26 ar  
    52   25   50 1   
    53   26   27 ar  
    54   26   51 1   
    55   27   52 1   
@<TRIPOS>SUBSTRUCTURE
     1 BPP         1 TEMP              0 ****  ****    0 ROOT
