@<TRIPOS>MOLECULE
BPQ
   39    40     1     0     0
SMALL
bcc


@<TRIPOS>ATOM
      1 C2         -0.0870   -0.1490    0.0340 cc        1 BPQ      0.531800
      2 N1          1.2940    0.0860   -0.0070 n         1 BPQ     -0.476400
      3 C6          2.0130    0.3110    1.1980 c         1 BPQ      0.758100
      4 O6          3.2230    0.5800    1.1130 o         1 BPQ     -0.603500
      5 C5          1.2320    0.2290    2.4140 cc        1 BPQ     -0.200600
      6 C7          1.5480    0.3290    3.8030 cc        1 BPQ     -0.175300
      7 C10         2.8680    0.3940    4.4560 c3        1 BPQ      0.198100
      8 N11         3.7690    1.4480    3.8980 n4        1 BPQ     -0.661800
      9 C8          0.3240    0.1980    4.5020 cd        1 BPQ     -0.028300
     10 N9         -0.7160    0.0050    3.6100 na        1 BPQ     -0.103100
     11 C4         -0.1870    0.0100    2.3180 cd        1 BPQ      0.140100
     12 N3         -0.8620   -0.1830    1.1170 nd        1 BPQ     -0.518100
     13 N2         -0.7840   -0.3870   -1.2710 n4        1 BPQ     -0.797600
     14 C14         5.1140    1.4290    4.5970 c         1 BPQ      0.638100
     15 O15         5.6600    0.3680    4.8580 o         1 BPQ     -0.427000
     16 C20         7.9260    2.3610    4.5650 c3        1 BPQ     -0.132433
     17 C17         6.8520    2.9260    5.4640 c3        1 BPQ      0.208800
     18 C19         6.8520    2.3130    6.8460 c3        1 BPQ     -0.132433
     19 C18         6.8690    4.4450    5.5050 c3        1 BPQ     -0.132433
     20 O16         5.5060    2.6790    4.8270 os        1 BPQ     -0.424900
     21 HN1         1.8100    0.1000   -0.8650 hn        1 BPQ      0.370500
     22 H10         3.4070   -0.5990    4.3380 hx        1 BPQ      0.130200
     23 H10A        2.7470    0.5970    5.5620 hx        1 BPQ      0.130200
     24 HN11        3.9370    1.2690    2.8930 hn        1 BPQ      0.478300
     25 H8          0.1410    0.2180    5.5850 h4        1 BPQ      0.223000
     26 HN9        -1.6760   -0.1310    3.8420 hn        1 BPQ      0.357700
     27 HN2        -1.7950   -0.5360   -1.1060 hn        1 BPQ      0.495800
     28 HN2A       -0.3940   -1.2260   -1.7240 hn        1 BPQ      0.495800
     29 H20         7.8750    1.2450    4.5310 hc        1 BPQ      0.076367
     30 H20A        8.9270    2.6550    4.9680 hc        1 BPQ      0.076367
     31 H20B        7.8290    2.7660    3.5290 hc        1 BPQ      0.076367
     32 H19         5.9860    2.6850    7.4440 hc        1 BPQ      0.076367
     33 H19A        6.8110    1.1980    6.7890 hc        1 BPQ      0.076367
     34 H19B        7.7970    2.6050    7.3700 hc        1 BPQ      0.076367
     35 H18         6.0220    4.8350    6.1180 hc        1 BPQ      0.076367
     36 H18A        7.8340    4.7700    5.9680 hc        1 BPQ      0.076367
     37 H18B        6.8000    4.8690    4.4750 hc        1 BPQ      0.076367
     38 H112        3.3470    2.3780    3.9990 hn        1 BPQ      0.478300
     39 H23        -0.6640    0.4310   -1.8850 hn        1 BPQ      0.495800
@<TRIPOS>BOND
     1    1    2 1   
     2    1   12 2   
     3    1   13 1   
     4    2    3 1   
     5    2   21 1   
     6    3    4 2   
     7    3    5 1   
     8    5    6 1   
     9    5   11 2   
    10    6    7 1   
    11    6    9 2   
    12    7    8 1   
    13    7   22 1   
    14    7   23 1   
    15    8   14 1   
    16    8   24 1   
    17    8   38 1   
    18    9   10 1   
    19    9   25 1   
    20   10   11 1   
    21   10   26 1   
    22   11   12 1   
    23   13   27 1   
    24   13   28 1   
    25   13   39 1   
    26   14   15 2   
    27   14   20 1   
    28   16   17 1   
    29   16   29 1   
    30   16   30 1   
    31   16   31 1   
    32   17   18 1   
    33   17   19 1   
    34   17   20 1   
    35   18   32 1   
    36   18   33 1   
    37   18   34 1   
    38   19   35 1   
    39   19   36 1   
    40   19   37 1   
@<TRIPOS>SUBSTRUCTURE
     1 BPQ         1 TEMP              0 ****  ****    0 ROOT
