@<TRIPOS>MOLECULE
BPQ
   37    38     1     0     0
SMALL
bcc


@<TRIPOS>ATOM
      1 C2          4.5270   -0.0690    0.7130 cc        1 BPQ      0.670800
      2 N1          4.0850   -1.3120    0.2090 n         1 BPQ     -0.504400
      3 C6          2.7950   -1.4790   -0.3590 c         1 BPQ      0.751100
      4 O6          2.4820   -2.6170   -0.7530 o         1 BPQ     -0.636500
      5 C5          2.0010   -0.2790   -0.4140 cc        1 BPQ     -0.265600
      6 C7          0.6840    0.0140   -0.8980 cc        1 BPQ     -0.129300
      7 C10        -0.2530   -0.9320   -1.5520 c3        1 BPQ      0.148300
      8 N11        -1.4230   -1.2930   -0.7870 n         1 BPQ     -0.507900
      9 C8          0.4640    1.3790   -0.6710 cd        1 BPQ     -0.128300
     10 N9          1.5890    1.9450   -0.0640 na        1 BPQ     -0.165100
     11 C4          2.5470    0.9450    0.1000 cd        1 BPQ      0.188100
     12 N3          3.8140    1.0770    0.6500 nd        1 BPQ     -0.675100
     13 N2          5.7790   -0.0540    1.3760 nh        1 BPQ     -0.887800
     14 C14        -2.4280   -0.3520   -0.6020 c         1 BPQ      0.733100
     15 O15        -2.6230    0.6840   -1.2610 o         1 BPQ     -0.604000
     16 C20        -5.3720   -0.1340   -0.7170 c3        1 BPQ     -0.113433
     17 C17        -4.5510   -0.0240    0.5570 c3        1 BPQ      0.185800
     18 C19        -4.3340    1.4260    0.9590 c3        1 BPQ     -0.113433
     19 C18        -5.2250   -0.7930    1.6930 c3        1 BPQ     -0.113433
     20 O16        -3.2800   -0.7090    0.4170 os        1 BPQ     -0.450900
     21 HN1         4.6450   -2.1270    0.3260 hn        1 BPQ      0.334500
     22 H10        -0.6070   -0.4760   -2.5240 h1        1 BPQ      0.085700
     23 H10A        0.3000   -1.8940   -1.7740 h1        1 BPQ      0.085700
     24 HN11       -1.2770   -1.9240   -0.0290 hn        1 BPQ      0.315500
     25 H8         -0.4240    1.9750   -0.8990 h4        1 BPQ      0.197000
     26 HN9         1.6960    2.8900    0.2010 hn        1 BPQ      0.311700
     27 HN2         6.4860   -0.6120    0.9490 hn        1 BPQ      0.415300
     28 HN2A        6.0940    0.8590    1.6330 hn        1 BPQ      0.415300
     29 H20        -4.9020    0.4620   -1.5360 hc        1 BPQ      0.050811
     30 H20A       -5.4370   -1.2010   -1.0390 hc        1 BPQ      0.050811
     31 H20B       -6.4010    0.2540   -0.5290 hc        1 BPQ      0.050811
     32 H19        -5.3120    1.8830    1.2390 hc        1 BPQ      0.050811
     33 H19A       -3.6420    1.4810    1.8330 hc        1 BPQ      0.050811
     34 H19B       -3.8910    2.0030    0.1110 hc        1 BPQ      0.050811
     35 H18        -5.3550   -1.8640    1.4080 hc        1 BPQ      0.050811
     36 H18A       -4.6010   -0.7420    2.6160 hc        1 BPQ      0.050811
     37 H18B       -6.2240   -0.3410    1.8960 hc        1 BPQ      0.050811
@<TRIPOS>BOND
     1    1    2 1   
     2    1   12 2   
     3    1   13 1   
     4    2    3 1   
     5    2   21 1   
     6    3    4 2   
     7    3    5 1   
     8    5    6 1   
     9    5   11 2   
    10    6    7 1   
    11    6    9 2   
    12    7    8 1   
    13    7   22 1   
    14    7   23 1   
    15    8   14 1   
    16    8   24 1   
    17    9   10 1   
    18    9   25 1   
    19   10   11 1   
    20   10   26 1   
    21   11   12 1   
    22   13   27 1   
    23   13   28 1   
    24   14   15 2   
    25   14   20 1   
    26   16   17 1   
    27   16   29 1   
    28   16   30 1   
    29   16   31 1   
    30   17   18 1   
    31   17   19 1   
    32   17   20 1   
    33   18   32 1   
    34   18   33 1   
    35   18   34 1   
    36   19   35 1   
    37   19   36 1   
    38   19   37 1   
@<TRIPOS>SUBSTRUCTURE
     1 BPQ         1 TEMP              0 ****  ****    0 ROOT
