@<TRIPOS>MOLECULE
BPQ
   39    40     1     0     0
SMALL
bcc


@<TRIPOS>ATOM
      1 C2         -0.0910   -0.1480    0.0370 cc        1 BPQ      0.531800
      2 N1          1.2890    0.0910   -0.0070 ns        1 BPQ     -0.476400
      3 C6          2.0110    0.3150    1.1980 c         1 BPQ      0.758100
      4 O6          3.2190    0.5880    1.1100 o         1 BPQ     -0.603500
      5 C5          1.2320    0.2270    2.4150 cc        1 BPQ     -0.200600
      6 C7          1.5520    0.3240    3.8030 cc        1 BPQ     -0.175300
      7 C10         2.8740    0.3900    4.4530 c3        1 BPQ      0.198100
      8 N11         3.7700    1.4480    3.8960 ny        1 BPQ     -0.661800
      9 C8          0.3310    0.1860    4.5050 cd        1 BPQ     -0.028300
     10 N9         -0.7120   -0.0070    3.6150 na        1 BPQ     -0.103100
     11 C4         -0.1860    0.0030    2.3220 cd        1 BPQ      0.140100
     12 N3         -0.8630   -0.1870    1.1220 nd        1 BPQ     -0.518100
     13 N2         -0.7910   -0.3840   -1.2670 nz        1 BPQ     -0.797600
     14 C14         5.1180    1.4310    4.5910 c         1 BPQ      0.638100
     15 O15         5.6690    0.3700    4.8430 o         1 BPQ     -0.427000
     16 C20         7.9250    2.3740    4.5570 c3        1 BPQ     -0.132433
     17 C17         6.8510    2.9290    5.4640 c3        1 BPQ      0.208800
     18 C19         6.8580    2.3060    6.8400 c3        1 BPQ     -0.132433
     19 C18         6.8620    4.4470    5.5150 c3        1 BPQ     -0.132433
     20 O16         5.5050    2.6800    4.8280 os        1 BPQ     -0.424900
     21 HN1         1.8020    0.1100   -0.8660 hn        1 BPQ      0.370500
     22 H10         2.7550    0.5880    5.5600 hx        1 BPQ      0.130200
     23 H10A        3.4150   -0.6010    4.3300 hx        1 BPQ      0.130200
     24 HN11        3.3460    2.3770    4.0020 hn        1 BPQ      0.478300
     25 H8          0.1500    0.2030    5.5890 h4        1 BPQ      0.223000
     26 HN9        -1.6710   -0.1460    3.8490 hn        1 BPQ      0.357700
     27 HN2        -0.6750    0.4360   -1.8780 hn        1 BPQ      0.495800
     28 HN2A       -0.4000   -1.2200   -1.7230 hn        1 BPQ      0.495800
     29 H20         7.8780    1.2580    4.5150 hc        1 BPQ      0.076367
     30 H20A        7.8240    2.7870    3.5240 hc        1 BPQ      0.076367
     31 H20B        8.9260    2.6700    4.9600 hc        1 BPQ      0.076367
     32 H19         5.9930    2.6700    7.4450 hc        1 BPQ      0.076367
     33 H19A        7.8030    2.5980    7.3640 hc        1 BPQ      0.076367
     34 H19B        6.8220    1.1910    6.7770 hc        1 BPQ      0.076367
     35 H18         7.8270    4.7740    5.9770 hc        1 BPQ      0.076367
     36 H18A        6.0150    4.8290    6.1330 hc        1 BPQ      0.076367
     37 H18B        6.7870    4.8790    4.4880 hc        1 BPQ      0.076367
     38 H112        3.9360    1.2740    2.8900 hn        1 BPQ      0.478300
     39 H23        -1.8010   -0.5360   -1.1000 hn        1 BPQ      0.495800
@<TRIPOS>BOND
     1    1    2 1   
     2    1   12 2   
     3    1   13 1   
     4    2    3 1   
     5    2   21 1   
     6    3    4 2   
     7    3    5 1   
     8    5    6 1   
     9    5   11 2   
    10    6    7 1   
    11    6    9 2   
    12    7    8 1   
    13    7   22 1   
    14    7   23 1   
    15    8   14 1   
    16    8   24 1   
    17    8   38 1   
    18    9   10 1   
    19    9   25 1   
    20   10   11 1   
    21   10   26 1   
    22   11   12 1   
    23   13   27 1   
    24   13   28 1   
    25   13   39 1   
    26   14   15 2   
    27   14   20 1   
    28   16   17 1   
    29   16   29 1   
    30   16   30 1   
    31   16   31 1   
    32   17   18 1   
    33   17   19 1   
    34   17   20 1   
    35   18   32 1   
    36   18   33 1   
    37   18   34 1   
    38   19   35 1   
    39   19   36 1   
    40   19   37 1   
@<TRIPOS>SUBSTRUCTURE
     1 BPQ         1 TEMP              0 ****  ****    0 ROOT
