@<TRIPOS>MOLECULE
BPQ
   37    33     1     0     0
SMALL
bcc


@<TRIPOS>ATOM
      1 C2         -5.4760   -2.1300   -0.6750 c1        1 BPQ      0.605600
      2 N1         -5.0770   -1.4990    0.5260 n2        1 BPQ     -0.588400
      3 C6         -3.7400   -1.0910    0.6970 ce        1 BPQ      0.672500
      4 O6         -3.3940   -0.6070    1.7200 o         1 BPQ     -0.626300
      5 C5         -2.7390   -1.3250   -0.3990 ce        1 BPQ     -0.294000
      6 C7         -1.3880   -1.0410   -0.4980 cg        1 BPQ     -0.155300
      7 C10        -0.3420   -0.5660    0.5640 c2        1 BPQ      0.283400
      8 N11         0.4900    0.4470   -0.0030 n         1 BPQ     -0.470500
      9 C8         -0.9550   -1.4760   -1.7180 ch        1 BPQ     -0.052000
     10 N9         -2.0200   -2.0240   -2.3740 nf        1 BPQ     -0.436400
     11 C4         -3.1260   -1.9280   -1.5510 c1        1 BPQ      0.356500
     12 N3         -4.5150   -2.3570   -1.7220 n1        1 BPQ     -0.573800
     13 N2         -6.8180   -2.6060   -0.8180 n3        1 BPQ     -0.791400
     14 C14         1.5780    0.9730    0.7430 c         1 BPQ      0.733100
     15 O15         1.8090    0.5480    1.8810 o         1 BPQ     -0.604000
     16 C20         4.2490    0.5920    0.2660 c3        1 BPQ     -0.113433
     17 C17         3.7540    2.0220    0.5090 c3        1 BPQ      0.185800
     18 C19         4.5490    3.0360   -0.4460 c3        1 BPQ     -0.113433
     19 C18         3.9950    2.4000    1.9610 c3        1 BPQ     -0.113433
     20 O16         2.3340    2.0940    0.2240 os        1 BPQ     -0.450900
     21 HN1        -5.6660   -1.3590    1.1680 hn        1 BPQ      0.492400
     22 H10         0.1920   -1.2970    0.8300 h4        1 BPQ     -0.004200
     23 H10A       -0.8080   -0.2050    1.3390 h4        1 BPQ     -0.004200
     24 HN11        0.2890    0.7980   -0.8250 hn        1 BPQ      0.315500
     25 H8         -0.0510   -1.4730   -2.0240 DU        1 BPQ      0.229500
     26 HN9        -2.0030   -2.3990   -3.2320 DU        1 BPQ      0.229500
     27 HN2        -7.0600   -3.0100   -1.5530 hn        1 BPQ      0.415300
     28 HN2A       -7.4110   -2.5330   -0.1130 hn        1 BPQ      0.415300
     29 H20         3.9370    0.2780   -0.6220 hc        1 BPQ      0.050811
     30 H20A        3.8970    0.0040    0.9620 hc        1 BPQ      0.050811
     31 H20B        5.2510    0.5780    0.2910 hc        1 BPQ      0.050811
     32 H19         5.4720    3.1180   -0.1390 hc        1 BPQ      0.050811
     33 H19A        4.1190    3.9110   -0.4190 hc        1 BPQ      0.050811
     34 H19B        4.5380    2.6820   -1.4000 hc        1 BPQ      0.050811
     35 H18         3.5210    3.2660    2.1620 hc        1 BPQ      0.050811
     36 H18A        4.9820    2.5120    2.1220 hc        1 BPQ      0.050811
     37 H18B        3.6340    1.6670    2.5670 hc        1 BPQ      0.050811
@<TRIPOS>BOND
     1    1   12 3   
     2    1   13 1   
     3    2    3 2   
     4    2   21 1   
     5    3    4 1   
     6    3    5 1   
     7    5    6 1   
     8    5   11 2   
     9    6    9 3   
    10    7    8 2   
    11    7   22 1   
    12    7   23 1   
    13    8   14 1   
    14    8   24 1   
    15    9   10 1   
    16   10   11 2   
    17   13   27 1   
    18   13   28 1   
    19   14   15 2   
    20   14   20 1   
    21   16   17 1   
    22   16   29 1   
    23   16   30 1   
    24   16   31 1   
    25   17   18 1   
    26   17   19 1   
    27   17   20 1   
    28   18   32 1   
    29   18   33 1   
    30   18   34 1   
    31   19   35 1   
    32   19   36 1   
    33   19   37 1   
@<TRIPOS>SUBSTRUCTURE
     1 BPQ         1 TEMP              0 ****  ****    0 ROOT
