@<TRIPOS>MOLECULE
BPQ
   39    40     1     0     0
SMALL
bcc


@<TRIPOS>ATOM
      1 C2         -0.0940   -0.1480    0.0400 cc        1 BPQ      0.531800
      2 N1          1.2870    0.0850   -0.0040 n         1 BPQ     -0.476400
      3 C6          2.0090    0.3110    1.2000 c         1 BPQ      0.758100
      4 O6          3.2180    0.5790    1.1120 o         1 BPQ     -0.603500
      5 C5          1.2290    0.2310    2.4170 cc        1 BPQ     -0.200600
      6 C7          1.5480    0.3330    3.8050 cc        1 BPQ     -0.175300
      7 C10         2.8700    0.3970    4.4550 c3        1 BPQ      0.198100
      8 N11         3.7710    1.4500    3.8940 n4        1 BPQ     -0.661800
      9 C8          0.3260    0.2030    4.5070 cd        1 BPQ     -0.028300
     10 N9         -0.7170    0.0110    3.6160 na        1 BPQ     -0.103100
     11 C4         -0.1900    0.0130    2.3240 cd        1 BPQ      0.140100
     12 N3         -0.8670   -0.1800    1.1240 nd        1 BPQ     -0.518100
     13 N2         -0.7940   -0.3870   -1.2640 n4        1 BPQ     -0.797600
     14 C14         5.1180    1.4290    4.5900 c         1 BPQ      0.638100
     15 O15         5.6660    0.3670    4.8430 o         1 BPQ     -0.427000
     16 C20         7.9280    2.3650    4.5550 c3        1 BPQ     -0.132433
     17 C17         6.8560    2.9240    5.4610 c3        1 BPQ      0.208800
     18 C19         6.8610    2.3020    6.8380 c3        1 BPQ     -0.132433
     19 C18         6.8710    4.4410    5.5110 c3        1 BPQ     -0.132433
     20 O16         5.5090    2.6780    4.8260 os        1 BPQ     -0.424900
     21 HN1         1.8010    0.0980   -0.8640 hn        1 BPQ      0.370500
     22 H10         2.7510    0.6000    5.5610 hx        1 BPQ      0.130200
     23 H10A        3.4080   -0.5970    4.3370 hx        1 BPQ      0.130200
     24 HN11        3.3510    2.3800    3.9970 hn        1 BPQ      0.478300
     25 H8          0.1450    0.2260    5.5900 h4        1 BPQ      0.223000
     26 HN9        -1.6760   -0.1240    3.8510 hn        1 BPQ      0.357700
     27 HN2        -0.6750    0.4300   -1.8790 hn        1 BPQ      0.495800
     28 HN2A       -0.4060   -1.2270   -1.7160 hn        1 BPQ      0.495800
     29 H20         7.8780    1.2490    4.5150 hc        1 BPQ      0.076367
     30 H20A        7.8280    2.7770    3.5220 hc        1 BPQ      0.076367
     31 H20B        8.9300    2.6580    4.9580 hc        1 BPQ      0.076367
     32 H19         5.9960    2.6690    7.4420 hc        1 BPQ      0.076367
     33 H19A        7.8070    2.5920    7.3620 hc        1 BPQ      0.076367
     34 H19B        6.8220    1.1870    6.7760 hc        1 BPQ      0.076367
     35 H18         7.8370    4.7660    5.9730 hc        1 BPQ      0.076367
     36 H18A        6.0250    4.8270    6.1280 hc        1 BPQ      0.076367
     37 H18B        6.7970    4.8720    4.4830 hc        1 BPQ      0.076367
     38 H112        3.9360    1.2700    2.8890 hn        1 BPQ      0.478300
     39 H23        -1.8050   -0.5350   -1.0960 hn        1 BPQ      0.495800
@<TRIPOS>BOND
     1    1    2 1   
     2    1   12 2   
     3    1   13 1   
     4    2    3 1   
     5    2   21 1   
     6    3    4 2   
     7    3    5 1   
     8    5    6 1   
     9    5   11 2   
    10    6    7 1   
    11    6    9 2   
    12    7    8 1   
    13    7   22 1   
    14    7   23 1   
    15    8   14 1   
    16    8   24 1   
    17    8   38 1   
    18    9   10 1   
    19    9   25 1   
    20   10   11 1   
    21   10   26 1   
    22   11   12 1   
    23   13   27 1   
    24   13   28 1   
    25   13   39 1   
    26   14   15 2   
    27   14   20 1   
    28   16   17 1   
    29   16   29 1   
    30   16   30 1   
    31   16   31 1   
    32   17   18 1   
    33   17   19 1   
    34   17   20 1   
    35   18   32 1   
    36   18   33 1   
    37   18   34 1   
    38   19   35 1   
    39   19   36 1   
    40   19   37 1   
@<TRIPOS>SUBSTRUCTURE
     1 BPQ         1 TEMP              0 ****  ****    0 ROOT
