@<TRIPOS>MOLECULE
BPS
   25    19     1     0     0
SMALL
bcc


@<TRIPOS>ATOM
      1 CX1        -2.1350   -0.0590    0.3520 c1        1 BPS     -0.058625
      2 CX2        -0.7490   -0.0590    0.3520 c1        1 BPS      0.057000
      3 CX3        -0.0560   -0.0590    1.5520 c1        1 BPS     -0.141400
      4 CX4        -0.7490   -0.0590    2.7530 c1        1 BPS     -0.058625
      5 CX5        -2.1350   -0.0590    2.7530 c1        1 BPS     -0.058625
      6 CX6        -2.8280   -0.0590    1.5520 c1        1 BPS     -0.058625
      7 CX7        -0.0560   -0.0590   -0.8490 c1        1 BPS     -0.075000
      8 CX8         0.2360   -1.2580   -1.4790 c1        1 BPS     -0.055500
      9 CX9         0.9290   -1.2590   -2.6800 c1        1 BPS     -0.058625
     10 CXA         1.3290   -0.0610   -3.2500 c1        1 BPS     -0.058625
     11 CXB         1.0370    1.1380   -2.6190 c1        1 BPS     -0.058625
     12 CXC         0.3440    1.1390   -1.4190 c1        1 BPS     -0.058625
     13 SX1         1.7160    0.0040    1.5530 s4        1 BPS      0.611400
     14 OX1         2.4240    1.3020    1.8530 oh        1 BPS     -0.601800
     15 OX2         2.4770   -1.1890    1.3060 o         1 BPS     -0.540200
     16 H1         -2.6230   -0.0590   -0.4940 ha        1 BPS      0.086125
     17 HX4        -0.2610   -0.0590    3.5980 ha        1 BPS      0.086125
     18 HX5        -2.6230   -0.0590    3.5980 ha        1 BPS      0.086125
     19 HX6        -3.8040   -0.0590    1.5520 ha        1 BPS      0.086125
     20 HX8        -0.0460   -2.1020   -1.0780 ha        1 BPS      0.079500
     21 HX9         1.1350   -2.1040   -3.1240 ha        1 BPS      0.086125
     22 HX10        1.8170   -0.0610   -4.0950 ha        1 BPS      0.086125
     23 HX11        1.3190    1.9820   -3.0210 ha        1 BPS      0.086125
     24 HX12        0.1380    1.9840   -0.9750 ha        1 BPS      0.086125
     25 HX1         3.1670    1.1350    2.3090 ho        1 BPS      0.448000
@<TRIPOS>BOND
     1    1    6 3   
     2    1   16 1   
     3    2    3 3   
     4    3   13 1   
     5    4    5 3   
     6    4   17 1   
     7    5   18 1   
     8    6   19 1   
     9    7    8 3   
    10    8   20 1   
    11    9   10 3   
    12    9   21 1   
    13   10   22 1   
    14   11   12 3   
    15   11   23 1   
    16   12   24 1   
    17   13   14 1   
    18   13   15 2   
    19   14   25 1   
@<TRIPOS>SUBSTRUCTURE
     1 BPS         1 TEMP              0 ****  ****    0 ROOT
