@<TRIPOS>MOLECULE
BPS
   25    26     1     0     0
SMALL
bcc


@<TRIPOS>ATOM
      1 CX1        -1.2410   -1.9830    0.4340 ca        1 BPS     -0.141000
      2 CX2        -0.6530   -0.7470    0.1140 cp        1 BPS      0.072000
      3 CX3        -1.4650    0.3450   -0.2180 ca        1 BPS     -0.153500
      4 CX4        -2.8590    0.1770   -0.1980 ca        1 BPS     -0.067000
      5 CX5        -3.4400   -1.0430    0.1250 ca        1 BPS     -0.147000
      6 CX6        -2.6230   -2.1310    0.4400 ca        1 BPS     -0.086000
      7 CX7         0.8130   -0.6650    0.1530 cp        1 BPS     -0.069000
      8 CX8         1.4590    0.0110    1.1960 ca        1 BPS     -0.108000
      9 CX9         2.8520    0.0380    1.2530 ca        1 BPS     -0.131500
     10 CXA         3.6070   -0.6010    0.2700 ca        1 BPS     -0.119000
     11 CXB         2.9670   -1.2720   -0.7720 ca        1 BPS     -0.131500
     12 CXC         1.5750   -1.3090   -0.8310 ca        1 BPS     -0.108000
     13 SX1        -1.0100    1.9270   -0.6940 sx        1 BPS      0.626500
     14 OX1        -0.0620    2.4730    0.6050 oh        1 BPS     -0.598800
     15 OX2         0.0700    1.8480   -1.6760 o         1 BPS     -0.522200
     16 H1         -0.5930   -2.8370    0.6850 ha        1 BPS      0.143000
     17 HX4        -3.5080    1.0340   -0.4450 ha        1 BPS      0.129000
     18 HX5        -4.5340   -1.1520    0.1340 ha        1 BPS      0.137000
     19 HX6        -3.0720   -3.1030    0.6940 ha        1 BPS      0.136000
     20 HX8         0.8640    0.5240    1.9680 ha        1 BPS      0.143500
     21 HX9         3.3540    0.5680    2.0760 ha        1 BPS      0.134000
     22 HX10        4.7050   -0.5750    0.3150 ha        1 BPS      0.132000
     23 HX11        3.5600   -1.7690   -1.5540 ha        1 BPS      0.134000
     24 HX12        1.0710   -1.8330   -1.6570 ha        1 BPS      0.143500
     25 HX1         0.8790    2.3710    0.4390 ho        1 BPS      0.450000
@<TRIPOS>BOND
     1    1    2 ar  
     2    1    6 ar  
     3    1   16 1   
     4    2    3 ar  
     5    2    7 1   
     6    3    4 ar  
     7    3   13 1   
     8    4    5 ar  
     9    4   17 1   
    10    5    6 ar  
    11    5   18 1   
    12    6   19 1   
    13    7    8 ar  
    14    7   12 ar  
    15    8    9 ar  
    16    8   20 1   
    17    9   10 ar  
    18    9   21 1   
    19   10   11 ar  
    20   10   22 1   
    21   11   12 ar  
    22   11   23 1   
    23   12   24 1   
    24   13   14 1   
    25   13   15 2   
    26   14   25 1   
@<TRIPOS>SUBSTRUCTURE
     1 BPS         1 TEMP              0 ****  ****    0 ROOT
