@<TRIPOS>MOLECULE
BPS
   25    26     1     0     0
SMALL
bcc


@<TRIPOS>ATOM
      1 CX1         0.0340   -0.0780   -0.0200 ca        1 BPS     -0.141000
      2 CX2         1.4370   -0.0410    0.0510 cp        1 BPS      0.072000
      3 CX3         2.0700    0.0340    1.2980 ca        1 BPS     -0.153500
      4 CX4         1.2750    0.0470    2.4550 ca        1 BPS     -0.067000
      5 CX5        -0.1120    0.0040    2.3860 ca        1 BPS     -0.147000
      6 CX6        -0.7350   -0.0550    1.1370 ca        1 BPS     -0.086000
      7 CX7         2.1780   -0.0930   -1.2160 cp        1 BPS     -0.069000
      8 CX8         2.8560   -1.2590   -1.5970 ca        1 BPS     -0.108000
      9 CX9         3.5130   -1.3150   -2.8250 ca        1 BPS     -0.131500
     10 CXA         3.5050   -0.2110   -3.6770 ca        1 BPS     -0.119000
     11 CXB         2.8350    0.9530   -3.2990 ca        1 BPS     -0.131500
     12 CXC         2.1690    1.0130   -2.0760 ca        1 BPS     -0.108000
     13 SX1         3.7410    0.1440    1.6570 sx        1 BPS      0.626500
     14 OX1         4.3950   -1.2410    0.9240 oh        1 BPS     -0.598800
     15 OX2         4.3670    1.1220    0.7700 o         1 BPS     -0.522200
     16 H1         -0.4540   -0.1280   -1.0060 ha        1 BPS      0.143000
     17 HX4         1.7640    0.0930    3.4430 ha        1 BPS      0.129000
     18 HX5        -0.7140    0.0170    3.3050 ha        1 BPS      0.137000
     19 HX6        -1.8340   -0.0860    1.0710 ha        1 BPS      0.136000
     20 HX8         2.8700   -2.1280   -0.9200 ha        1 BPS      0.143500
     21 HX9         4.0410   -2.2340   -3.1190 ha        1 BPS      0.134000
     22 HX10        4.0270   -0.2570   -4.6430 ha        1 BPS      0.132000
     23 HX11        2.8340    1.8280   -3.9650 ha        1 BPS      0.134000
     24 HX12        1.6470    1.9340   -1.7770 ha        1 BPS      0.143500
     25 HX1         4.7760   -1.0540    0.0620 ho        1 BPS      0.450000
@<TRIPOS>BOND
     1    1    2 ar  
     2    1    6 ar  
     3    1   16 1   
     4    2    3 ar  
     5    2    7 1   
     6    3    4 ar  
     7    3   13 1   
     8    4    5 ar  
     9    4   17 1   
    10    5    6 ar  
    11    5   18 1   
    12    6   19 1   
    13    7    8 ar  
    14    7   12 ar  
    15    8    9 ar  
    16    8   20 1   
    17    9   10 ar  
    18    9   21 1   
    19   10   11 ar  
    20   10   22 1   
    21   11   12 ar  
    22   11   23 1   
    23   12   24 1   
    24   13   14 1   
    25   13   15 2   
    26   14   25 1   
@<TRIPOS>SUBSTRUCTURE
     1 BPS         1 TEMP              0 ****  ****    0 ROOT
