@<TRIPOS>MOLECULE
BPU
   22    24     1     0     0
SMALL
bcc


@<TRIPOS>ATOM
      1 OAA        -3.3990   -2.6360    0.0000 o         1 BPU     -0.609500
      2 CAC        -4.4200    1.6710   -0.0010 cc        1 BPU     -0.203000
      3 CAD         1.3620    1.5090    0.0000 ca        1 BPU     -0.117000
      4 CAE        -4.5040    0.2420   -0.0010 cc        1 BPU     -0.094000
      5 CAF        -0.0070    1.7410   -0.0000 ca        1 BPU     -0.115000
      6 CAG        -3.0590    2.0230   -0.0010 cd        1 BPU     -0.117300
      7 CAH         0.9820   -0.8830    0.0010 ca        1 BPU     -0.142000
      8 NAI        -1.2880   -1.7680    0.0000 n         1 BPU     -0.467100
      9 CAJ         1.8550    0.2010    0.0010 ca        1 BPU     -0.002900
     10 CAK        -2.6820   -1.6210    0.0000 c         1 BPU      0.747100
     11 CAL        -0.4150   -0.6800    0.0000 ca        1 BPU      0.069600
     12 CAM        -3.1890   -0.2470   -0.0000 cd        1 BPU     -0.194900
     13 CAN        -0.9140    0.6670    0.0000 ca        1 BPU     -0.026200
     14 NAO        -2.3040    0.8570   -0.0000 na        1 BPU      0.033800
     15 HAC        -5.2560    2.3640   -0.0010 ha        1 BPU      0.163000
     16 HAD         2.0540    2.3670    0.0000 ha        1 BPU      0.156000
     17 HAE        -5.4070   -0.3630   -0.0010 ha        1 BPU      0.174000
     18 HAF        -0.3780    2.7780   -0.0000 ha        1 BPU      0.148000
     19 HAG        -2.5930    3.0090   -0.0010 h4        1 BPU      0.174000
     20 HAH         1.3800   -1.9110    0.0010 ha        1 BPU      0.156000
     21 HNAI       -0.9060   -2.6880    0.0010 hn        1 BPU      0.338500
     22 BR          3.7030   -0.1000    0.0010 br        1 BPU     -0.072100
@<TRIPOS>BOND
     1    1   10 2   
     2    2    4 1   
     3    2    6 2   
     4    2   15 1   
     5    3    5 ar  
     6    3    9 ar  
     7    3   16 1   
     8    4   12 2   
     9    4   17 1   
    10    5   13 ar  
    11    5   18 1   
    12    6   14 1   
    13    6   19 1   
    14    7    9 ar  
    15    7   11 ar  
    16    7   20 1   
    17    8   10 1   
    18    8   11 1   
    19    8   21 1   
    20    9   22 1   
    21   10   12 1   
    22   11   13 ar  
    23   12   14 1   
    24   13   14 1   
@<TRIPOS>SUBSTRUCTURE
     1 BPU         1 TEMP              0 ****  ****    0 ROOT
