@<TRIPOS>MOLECULE
BPU
   22    19     1     0     0
SMALL
bcc


@<TRIPOS>ATOM
      1 OAA        -1.9130   -0.0020   -2.9400 o         1 BPU     -0.334000
      2 BR         -2.1340   -0.0120    4.6390 br        1 BPU      0.068000
      3 CAC         2.3620   -0.0020   -2.3900 c1        1 BPU     -0.203000
      4 CAD         0.1770   -0.0020    2.9440 c1        1 BPU     -0.117000
      5 CAE         1.1140   -0.0020   -2.9400 c1        1 BPU     -0.094000
      6 CAF         0.8680   -0.0020    1.7310 c1        1 BPU     -0.115000
      7 CAG         2.2210   -0.0020   -1.0150 c1        1 BPU     -0.093000
      8 CAH        -1.9380   -0.0020    1.7510 c1        1 BPU     -0.142000
      9 NAI        -1.9760   -0.0020   -0.7040 n         1 BPU     -0.321000
     10 CAJ        -1.2300   -0.0020    2.9550 c1        1 BPU     -0.143000
     11 CAK        -1.3000   -0.0020   -1.8950 c2        1 BPU      0.384000
     12 CAL        -1.2480   -0.0020    0.5330 c2        1 BPU      0.077000
     13 CAM         0.1860   -0.0020   -1.9020 c2        1 BPU     -0.150000
     14 CAN         0.1610   -0.0020    0.5230 c2        1 BPU      0.019000
     15 NAO         0.8720   -0.0020   -0.7230 na        1 BPU     -0.060000
     16 HAC         3.2060    0.0150   -2.8800 DU        1 BPU      0.170333
     17 HAD         0.6710   -0.0020    3.7870 ha        1 BPU      0.156000
     18 HAE         0.9080   -0.0020   -3.8950 DU        1 BPU      0.170333
     19 HAF         1.8440   -0.0020    1.7250 ha        1 BPU      0.148000
     20 HAG         2.9490   -0.0020   -0.3640 DU        1 BPU      0.170333
     21 HAH        -2.9140   -0.0020    1.7590 ha        1 BPU      0.156000
     22 HNAI       -2.8870    0.0350   -0.6980 hn        1 BPU      0.252000
@<TRIPOS>BOND
     1    1   11 1   
     2    2   10 1   
     3    3    5 1   
     4    3    7 1   
     5    4   10 1   
     6    4   17 1   
     7    5   13 1   
     8    6   14 1   
     9    6   19 1   
    10    7   15 1   
    11    8   12 1   
    12    8   21 1   
    13    9   11 1   
    14    9   12 1   
    15    9   22 1   
    16   11   13 1   
    17   12   14 1   
    18   13   15 1   
    19   14   15 1   
@<TRIPOS>SUBSTRUCTURE
     1 BPU         1 TEMP              0 ****  ****    0 ROOT
