@<TRIPOS>MOLECULE
BPU
   22    21     1     0     0
SMALL
bcc


@<TRIPOS>ATOM
      1 OAA        -0.1550    0.2640   -0.6560 o         1 BPU     -0.342000
      2 CAC         4.7950    0.2590    0.3880 c1        1 BPU     -0.050000
      3 CAD         1.9910   -0.6080    6.9620 c2        1 BPU     -0.411000
      4 CAE         2.6630    0.1770   -0.7890 c1        1 BPU      0.125000
      5 CAF         2.9400   -0.3830    6.0760 c1        1 BPU      0.225000
      6 CAG         4.0880    0.1080    1.6310 c3        1 BPU     -0.148000
      7 CAH        -0.2520   -0.0450    6.1390 c1        1 BPU      0.270000
      8 NAI        -0.1270    0.1690    1.6250 n         1 BPU     -0.313000
      9 CAJ         0.7050    0.0470    7.0530 c2        1 BPU     -0.415000
     10 CAK         0.5100    0.1520    0.3890 c2        1 BPU      0.370000
     11 CAL         0.6010    0.0220    2.8030 c2        1 BPU     -0.091000
     12 CAM         2.0080    0.0360    0.3850 c2        1 BPU     -0.303000
     13 CAN         1.9520   -0.1430    2.7920 c2        1 BPU     -0.143000
     14 NAO         2.6830   -0.2900    1.6000 na        1 BPU     -0.188000
     15 HAC         4.2450    1.0940    2.1840 h1        1 BPU      0.170500
     16 HAD         2.1920   -1.3750    7.7470 ha        1 BPU      0.212000
     17 HAE         4.3080    0.2390   -0.6310 ha        1 BPU      0.155000
     18 HAF         2.5380   -0.2500    3.7220 h4        1 BPU      0.166000
     19 HAG         4.6380   -0.6830    2.2370 h1        1 BPU      0.170500
     20 HAH         0.0140    0.0440    3.7380 h4        1 BPU      0.166000
     21 HNAI       -1.1190    0.2180    1.6570 hn        1 BPU      0.253000
     22 BR          0.3440    1.0900    8.5730 br        1 BPU      0.119000
@<TRIPOS>BOND
     1    1   10 1   
     2    2    6 1   
     3    2   17 1   
     4    3    5 1   
     5    3    9 1   
     6    3   16 1   
     7    4   12 1   
     8    6   14 1   
     9    6   15 1   
    10    6   19 1   
    11    7    9 1   
    12    8   10 1   
    13    8   11 1   
    14    8   21 1   
    15    9   22 1   
    16   10   12 1   
    17   11   13 1   
    18   11   20 1   
    19   12   14 1   
    20   13   14 1   
    21   13   18 1   
@<TRIPOS>SUBSTRUCTURE
     1 BPU         1 TEMP              0 ****  ****    0 ROOT
