@<TRIPOS>MOLECULE
BPU
   22    21     1     0     0
SMALL
bcc


@<TRIPOS>ATOM
      1 OAA        -0.3910   -0.9020    0.0130 o         1 BPU     -0.344000
      2 CAC         4.1660    0.9970   -1.0910 c1        1 BPU     -0.050000
      3 CAD         0.8880   -0.9740    8.4560 c1        1 BPU     -0.129000
      4 CAE         1.9960   -0.1070   -1.2610 c1        1 BPU      0.126000
      5 CAF         1.0890   -1.8770    9.2160 c1        1 BPU     -0.140000
      6 CAG         4.0400    0.9640    0.3420 c3        1 BPU     -0.150000
      7 CAH         0.8530    0.0990    6.2700 c1        1 BPU      0.267000
      8 NAI         0.4400   -0.3700    2.0720 n         1 BPU     -0.313000
      9 CAJ         0.6490    0.0860    7.5830 c2        1 BPU     -0.349000
     10 CAK         0.5720   -0.5090    0.6950 c2        1 BPU      0.369000
     11 CAL         1.5150    0.0460    2.8530 c2        1 BPU     -0.084000
     12 CAM         1.8920   -0.1310    0.0860 c2        1 BPU     -0.304000
     13 CAN         2.7270    0.3310    2.3030 c2        1 BPU     -0.147000
     14 NAO         3.0090    0.1190    0.9410 na        1 BPU     -0.187000
     15 HAC         3.9400    2.0560    0.6550 h1        1 BPU      0.166500
     16 HAD         1.2680   -2.6790    9.8870 ha        1 BPU      0.235000
     17 HAE         3.4240    0.5360   -1.8060 ha        1 BPU      0.154000
     18 HAF         3.5780    0.6670    2.9170 h4        1 BPU      0.158000
     19 HAG         5.0370    0.6040    0.7570 h1        1 BPU      0.166500
     20 HAH         1.3250    0.1240    3.9400 h4        1 BPU      0.182000
     21 HNAI       -0.4140   -0.6340    2.5050 hn        1 BPU      0.252000
     22 BR         -0.0400    1.6970    8.2900 br        1 BPU      0.120000
@<TRIPOS>BOND
     1    1   10 1   
     2    2    6 1   
     3    2   17 1   
     4    3    5 1   
     5    3    9 1   
     6    4   12 1   
     7    5   16 1   
     8    6   14 1   
     9    6   15 1   
    10    6   19 1   
    11    7    9 1   
    12    8   10 1   
    13    8   11 1   
    14    8   21 1   
    15    9   22 1   
    16   10   12 1   
    17   11   13 1   
    18   11   20 1   
    19   12   14 1   
    20   13   14 1   
    21   13   18 1   
@<TRIPOS>SUBSTRUCTURE
     1 BPU         1 TEMP              0 ****  ****    0 ROOT
