@<TRIPOS>MOLECULE
BPU
   22    21     1     0     0
SMALL
bcc


@<TRIPOS>ATOM
      1 OAA        -0.3900   -0.9040    0.0140 o         1 BPU     -0.344000
      2 CAC         4.1640    0.9990   -1.0920 c1        1 BPU     -0.050000
      3 CAD         0.8860   -0.9740    8.4570 c1        1 BPU     -0.129000
      4 CAE         1.9950   -0.1070   -1.2610 c1        1 BPU      0.126000
      5 CAF         1.0840   -1.8770    9.2170 c1        1 BPU     -0.140000
      6 CAG         4.0390    0.9650    0.3410 c3        1 BPU     -0.150000
      7 CAH         0.8540    0.0980    6.2700 c1        1 BPU      0.267000
      8 NAI         0.4420   -0.3720    2.0720 ns        1 BPU     -0.313000
      9 CAJ         0.6500    0.0860    7.5830 c2        1 BPU     -0.349000
     10 CAK         0.5730   -0.5100    0.6960 c2        1 BPU      0.369000
     11 CAL         1.5170    0.0450    2.8530 c2        1 BPU     -0.084000
     12 CAM         1.8920   -0.1310    0.0860 c2        1 BPU     -0.304000
     13 CAN         2.7280    0.3310    2.3030 c2        1 BPU     -0.147000
     14 NAO         3.0090    0.1190    0.9400 na        1 BPU     -0.187000
     15 HAC         3.9380    2.0570    0.6540 h1        1 BPU      0.166500
     16 HAD         1.2600   -2.6800    9.8890 ha        1 BPU      0.235000
     17 HAE         3.4220    0.5380   -1.8070 ha        1 BPU      0.154000
     18 HAF         3.5790    0.6670    2.9160 h4        1 BPU      0.158000
     19 HAG         5.0360    0.6060    0.7550 h1        1 BPU      0.166500
     20 HAH         1.3270    0.1220    3.9410 h4        1 BPU      0.182000
     21 HNAI       -0.4120   -0.6360    2.5060 hn        1 BPU      0.252000
     22 Br         -0.0330    1.6990    8.2900 br        1 BPU      0.120000
@<TRIPOS>BOND
     1    1   10 1   
     2    2    6 1   
     3    2   17 1   
     4    3    5 1   
     5    3    9 1   
     6    4   12 1   
     7    5   16 1   
     8    6   14 1   
     9    6   15 1   
    10    6   19 1   
    11    7    9 1   
    12    8   10 1   
    13    8   11 1   
    14    8   21 1   
    15    9   22 1   
    16   10   12 1   
    17   11   13 1   
    18   11   20 1   
    19   12   14 1   
    20   13   14 1   
    21   13   18 1   
@<TRIPOS>SUBSTRUCTURE
     1 BPU         1 TEMP              0 ****  ****    0 ROOT
