@<TRIPOS>MOLECULE
BPV
    9     8     1     0     0
SMALL
bcc


@<TRIPOS>ATOM
      1 BR          0.0570    0.0000   -0.2730 br        1 BPV     -0.248400
      2 C3          1.9530    0.0000    0.1120 c3        1 BPV     -0.095000
      3 C2          2.4070   -0.0000    1.5470 c         1 BPV      0.443100
      4 O3          1.6350    0.0000    2.5050 o         1 BPV     -0.540100
      5 C1          3.9540   -0.0000    1.6600 c         1 BPV      0.847600
      6 O2          4.4570   -0.0000    2.8090 o         1 BPV     -0.798800
      7 O1          4.5940   -0.0000    0.5730 o         1 BPV     -0.798800
      8 H3          2.3750   -0.9070   -0.3840 h1        1 BPV      0.094700
      9 H3A         2.3750    0.9070   -0.3840 h1        1 BPV      0.094700
@<TRIPOS>BOND
     1    1    2 1   
     2    2    3 1   
     3    2    8 1   
     4    2    9 1   
     5    3    4 2   
     6    3    5 1   
     7    5    6 1   
     8    5    7 1   
@<TRIPOS>SUBSTRUCTURE
     1 BPV         1 TEMP              0 ****  ****    0 ROOT
