@<TRIPOS>MOLECULE
BPV
    9     8     1     0     0
SMALL
bcc


@<TRIPOS>ATOM
      1 BR         -0.4600    1.2740   -1.7300 br        1 BPV     -0.209400
      2 C3         -0.2550   -0.5070   -1.0650 c3        1 BPV     -0.108000
      3 C2          0.3870   -0.4630    0.3040 c         1 BPV      0.466100
      4 O3          1.1460   -1.3480    0.6470 o         1 BPV     -0.565100
      5 C1          0.0850    0.6810    1.2450 c         1 BPV      0.860600
      6 O2         -0.8720    0.5910    2.0590 o         1 BPV     -0.802800
      7 O1          0.7890    1.7250    1.2150 o         1 BPV     -0.802800
      8 H3          0.3120   -1.0200   -1.6750 h1        1 BPV      0.080700
      9 H3A        -1.1330   -0.9330   -1.0000 h1        1 BPV      0.080700
@<TRIPOS>BOND
     1    1    2 1   
     2    2    3 1   
     3    2    8 1   
     4    2    9 1   
     5    3    4 2   
     6    3    5 1   
     7    5    6 1   
     8    5    7 1   
@<TRIPOS>SUBSTRUCTURE
     1 BPV         1 TEMP              0 ****  ****    0 ROOT
