@<TRIPOS>MOLECULE
BPV
    9     8     1     0     0
SMALL
bcc


@<TRIPOS>ATOM
      1 BR         -1.9490   -0.2950    0.0000 br        1 BPV     -0.248400
      2 C3         -0.0690   -0.7530    0.0000 c3        1 BPV     -0.095000
      3 C2          0.9520    0.3510   -0.0000 c         1 BPV      0.443100
      4 O3          0.6610    1.5480   -0.0000 o         1 BPV     -0.540100
      5 C1          2.4010   -0.2050   -0.0000 c         1 BPV      0.847600
      6 O2          3.3450    0.6200   -0.0000 o         1 BPV     -0.798800
      7 O1          2.5160   -1.4610   -0.0000 o         1 BPV     -0.798800
      8 H3          0.1010   -1.3820    0.9070 h1        1 BPV      0.094700
      9 H3A         0.1010   -1.3820   -0.9070 h1        1 BPV      0.094700
@<TRIPOS>BOND
     1    1    2 1   
     2    2    3 1   
     3    2    8 1   
     4    2    9 1   
     5    3    4 2   
     6    3    5 1   
     7    5    6 1   
     8    5    7 1   
@<TRIPOS>SUBSTRUCTURE
     1 BPV         1 TEMP              0 ****  ****    0 ROOT
