@<TRIPOS>MOLECULE
BPV
    9     8     1     0     0
SMALL
bcc


@<TRIPOS>ATOM
      1 Br          0.0790   -0.1580   -0.2950 br        1 BPV     -0.239400
      2 C3          1.9540   -0.2540    0.1680 c3        1 BPV     -0.105000
      3 C2          2.4210    0.3280    1.4730 c         1 BPV      0.463100
      4 O3          1.6800    0.8750    2.2900 o         1 BPV     -0.555100
      5 C1          3.9480    0.1450    1.6440 c         1 BPV      0.859600
      6 O2          4.3280   -0.9210    2.1920 o         1 BPV     -0.802300
      7 O1          4.6790    1.0570    1.1820 o         1 BPV     -0.802300
      8 H3          2.2160   -1.3390    0.1650 h1        1 BPV      0.090700
      9 H3A         2.5010    0.2670   -0.6540 h1        1 BPV      0.090700
@<TRIPOS>BOND
     1    1    2 1   
     2    2    3 1   
     3    2    8 1   
     4    2    9 1   
     5    3    4 2   
     6    3    5 1   
     7    5    6 1   
     8    5    7 1   
@<TRIPOS>SUBSTRUCTURE
     1 BPV         1 TEMP              0 ****  ****    0 ROOT
