@<TRIPOS>MOLECULE
BPX
   33    33     1     0     0
SMALL
bcc


@<TRIPOS>ATOM
      1 CAJ         0.0200    1.0390    0.5930 ca        1 BPX     -0.127000
      2 CAI         1.3850    0.9910    0.3100 ca        1 BPX     -0.145000
      3 CAE         2.1980    0.0510    0.9400 ca        1 BPX     -0.153000
      4 CAD         1.6400   -0.8450    1.8530 ca        1 BPX     -0.145000
      5 CAL         0.2780   -0.8010    2.1400 ca        1 BPX     -0.127000
      6 CAK        -0.5440    0.1460    1.5110 ca        1 BPX     -0.054300
      7 CAF        -1.9950    0.2080    1.8440 c3        1 BPX     -0.022100
      8 CAB        -2.7770   -0.9720    1.2840 c3        1 BPX     -0.188700
      9 CAC        -2.8010   -2.1770    2.2620 c         1 BPX      0.910600
     10 OAO        -2.2480   -2.0870    3.3900 o         1 BPX     -0.835300
     11 OAN        -3.4080   -3.2180    1.8620 o         1 BPX     -0.835300
     12 CAA        -4.2140   -0.5790    0.9700 c3        1 BPX     -0.070400
     13 CAG        -4.7020   -1.1170   -0.3830 c3        1 BPX      0.373600
     14 OAP        -4.1040   -0.3680   -1.4160 oh        1 BPX     -0.641800
     15 OAQ        -4.4000   -2.4450   -0.6940 oh        1 BPX     -0.641800
     16 CAH        -6.2490   -0.9410   -0.4190 c3        1 BPX     -0.118700
     17 NAM        -6.8950   -1.3170   -1.7290 no        1 BPX      0.246300
     18 OAS        -6.3050   -1.1680   -2.7640 o         1 BPX     -0.233000
     19 OAR        -8.0260   -1.7320   -1.7050 o         1 BPX     -0.233000
     20 HAJ        -0.6180    1.7780    0.0860 ha        1 BPX      0.157500
     21 HAI         1.8180    1.6950   -0.4150 ha        1 BPX      0.114500
     22 HAE         3.2720    0.0130    0.7160 ha        1 BPX      0.109000
     23 HAD         2.2770   -1.5930    2.3470 ha        1 BPX      0.114500
     24 HAL        -0.1870   -1.5110    2.8520 ha        1 BPX      0.157500
     25 HAF        -2.1080    0.2050    2.9650 hc        1 BPX      0.047700
     26 HAFA       -2.4160    1.1740    1.4560 hc        1 BPX      0.047700
     27 HAB        -2.2820   -1.3230    0.3370 hc        1 BPX      0.063700
     28 HAA        -4.8910   -0.9850    1.7670 hc        1 BPX      0.050700
     29 HAAA       -4.3300    0.5360    0.9410 hc        1 BPX      0.050700
     30 HOAP       -4.1110   -0.9120   -2.2190 ho        1 BPX      0.465000
     31 HOAQ       -3.9770   -2.8810    0.0770 ho        1 BPX      0.465000
     32 HAH        -6.7160   -1.5860    0.3720 h1        1 BPX      0.099700
     33 HAHA       -6.4990    0.1410   -0.2570 h1        1 BPX      0.099700
@<TRIPOS>BOND
     1    1    2 ar  
     2    1    6 ar  
     3    1   20 1   
     4    2    3 ar  
     5    2   21 1   
     6    3    4 ar  
     7    3   22 1   
     8    4    5 ar  
     9    4   23 1   
    10    5    6 ar  
    11    5   24 1   
    12    6    7 1   
    13    7    8 1   
    14    7   25 1   
    15    7   26 1   
    16    8    9 1   
    17    8   12 1   
    18    8   27 1   
    19    9   10 1   
    20    9   11 1   
    21   12   13 1   
    22   12   28 1   
    23   12   29 1   
    24   13   14 1   
    25   13   15 1   
    26   13   16 1   
    27   14   30 1   
    28   15   31 1   
    29   16   17 1   
    30   16   32 1   
    31   16   33 1   
    32   17   18 1   
    33   17   19 1   
@<TRIPOS>SUBSTRUCTURE
     1 BPX         1 TEMP              0 ****  ****    0 ROOT
