@<TRIPOS>MOLECULE
BPX
   33    33     1     0     0
SMALL
bcc


@<TRIPOS>ATOM
      1 CAJ        -2.0240   -1.9270    0.1600 ca        1 BPX     -0.135000
      2 CAI        -3.0350   -2.5960   -0.5300 ca        1 BPX     -0.143500
      3 CAE        -4.2060   -1.9260   -0.8780 ca        1 BPX     -0.154000
      4 CAD        -4.3650   -0.5820   -0.5350 ca        1 BPX     -0.143500
      5 CAL        -3.3590    0.0900    0.1530 ca        1 BPX     -0.135000
      6 CAK        -2.1800   -0.5820    0.5090 ca        1 BPX     -0.063300
      7 CAF        -1.1220    0.1470    1.2620 c3        1 BPX     -0.041100
      8 CAB        -0.4810    1.2560    0.4390 c3        1 BPX     -0.194700
      9 CAC        -1.0160    2.6630    0.8470 c         1 BPX      0.918600
     10 OAO        -2.1960    2.7470    1.2850 o         1 BPX     -0.835300
     11 OAN        -0.2420    3.6490    0.6910 o         1 BPX     -0.835300
     12 CAA         1.0290    1.2540    0.5640 c3        1 BPX     -0.108400
     13 CAG         1.7280    0.0350   -0.0520 c3        1 BPX      0.350600
     14 OAP         1.8460   -1.0440    0.8590 oh        1 BPX     -0.610800
     15 OAQ         1.0520   -0.5770   -1.1220 oh        1 BPX     -0.610800
     16 CAH         3.0970    0.5000   -0.6180 c3        1 BPX     -0.106700
     17 NAM         4.1280   -0.5960   -0.7340 no        1 BPX      0.244300
     18 OAS         4.5550   -0.8910   -1.8170 o         1 BPX     -0.227000
     19 OAR         4.5330   -1.1160    0.2730 o         1 BPX     -0.227000
     20 HAJ        -1.1010   -2.4610    0.4330 ha        1 BPX      0.163500
     21 HAI        -2.9050   -3.6540   -0.8010 ha        1 BPX      0.115500
     22 HAE        -5.0020   -2.4540   -1.4220 ha        1 BPX      0.110000
     23 HAD        -5.2870   -0.0510   -0.8120 ha        1 BPX      0.115500
     24 HAL        -3.4530    1.1610    0.4320 ha        1 BPX      0.163500
     25 HAF        -1.5920    0.6080    2.1760 hc        1 BPX      0.056700
     26 HAFA       -0.3370   -0.5800    1.6070 hc        1 BPX      0.056700
     27 HAB        -0.7570    1.1370   -0.6450 hc        1 BPX      0.052700
     28 HAA         1.4000    2.1930    0.0670 hc        1 BPX      0.070200
     29 HAAA        1.3130    1.3090    1.6470 hc        1 BPX      0.070200
     30 HOAP        2.4360   -0.7740    1.5710 ho        1 BPX      0.432500
     31 HOAQ        0.1950   -0.8820   -0.7810 ho        1 BPX      0.432500
     32 HAH         2.9340    0.9230   -1.6460 h1        1 BPX      0.108700
     33 HAHA        3.5400    1.2690    0.0710 h1        1 BPX      0.108700
@<TRIPOS>BOND
     1    1    2 ar  
     2    1    6 ar  
     3    1   20 1   
     4    2    3 ar  
     5    2   21 1   
     6    3    4 ar  
     7    3   22 1   
     8    4    5 ar  
     9    4   23 1   
    10    5    6 ar  
    11    5   24 1   
    12    6    7 1   
    13    7    8 1   
    14    7   25 1   
    15    7   26 1   
    16    8    9 1   
    17    8   12 1   
    18    8   27 1   
    19    9   10 1   
    20    9   11 1   
    21   12   13 1   
    22   12   28 1   
    23   12   29 1   
    24   13   14 1   
    25   13   15 1   
    26   13   16 1   
    27   14   30 1   
    28   15   31 1   
    29   16   17 1   
    30   16   32 1   
    31   16   33 1   
    32   17   18 1   
    33   17   19 1   
@<TRIPOS>SUBSTRUCTURE
     1 BPX         1 TEMP              0 ****  ****    0 ROOT
