@<TRIPOS>MOLECULE
BPX
   33    30     1     0     0
SMALL
bcc


@<TRIPOS>ATOM
      1 CAJ         2.7390    1.1920   -0.3350 c1        1 BPX     -0.084500
      2 CAI         4.1110    1.1780   -0.1420 c1        1 BPX     -0.080000
      3 CAE         4.6310    1.1640    1.1420 c1        1 BPX     -0.080000
      4 CAD         3.7780    1.1640    2.2340 c1        1 BPX     -0.080000
      5 CAL         2.4050    1.1780    2.0420 c1        1 BPX     -0.080000
      6 CAK         1.8860    1.1920    0.7570 c1        1 BPX     -0.021100
      7 CAF         0.3920    1.2980    0.5480 c3        1 BPX     -0.062300
      8 CAB        -0.1610   -0.0570    0.1620 c3        1 BPX     -0.188700
      9 CAC         0.2650   -1.0860    1.1860 c         1 BPX      0.903600
     10 OAO        -0.1040   -0.9710    2.3840 o         1 BPX     -0.838800
     11 OAN         0.9480   -2.0820    0.8310 o         1 BPX     -0.838800
     12 CAA        -1.6720    0.0100    0.1130 c3        1 BPX     -0.074400
     13 CAG        -2.1770   -0.8350   -1.0340 c3        1 BPX      0.383600
     14 OAP        -1.8030   -0.2410   -2.2550 oh        1 BPX     -0.638800
     15 OAQ        -1.6180   -2.1240   -0.9490 oh        1 BPX     -0.638800
     16 CAH        -3.6850   -0.9340   -0.9620 c3        1 BPX     -0.145700
     17 NAM        -4.1880   -1.4260   -2.1990 no        1 BPX      0.244300
     18 OAS        -4.3580   -2.6270   -2.3550 o         1 BPX     -0.242000
     19 OAR        -4.4900   -0.5570   -3.2070 o         1 BPX     -0.242000
     20 HAJ         2.3730    1.2020   -1.2400 ha        1 BPX      0.061500
     21 HAI         4.7120    1.1780   -0.9120 ha        1 BPX      0.075250
     22 HAE         5.5970    1.1540    1.2780 ha        1 BPX      0.075250
     23 HAD         4.1430    1.1540    3.1390 ha        1 BPX      0.075250
     24 HAL         1.8050    1.1780    2.8110 ha        1 BPX      0.075250
     25 HAF        -0.0330    1.5990    1.3750 hc        1 BPX      0.049700
     26 HAFA        0.2070    1.9410   -0.1660 hc        1 BPX      0.049700
     27 HAB         0.1820   -0.3100   -0.7160 hc        1 BPX      0.059700
     28 HAA        -2.0400   -0.3270    0.9540 hc        1 BPX      0.048200
     29 HAAA       -1.9530    0.9380   -0.0170 hc        1 BPX      0.048200
     30 HOAP       -1.6890   -0.8740   -2.8700 ho        1 BPX      0.458000
     31 HOAQ       -2.2040   -2.6770   -0.5720 ho        1 BPX      0.458000
     32 HAH        -4.0620   -0.0470   -0.7860 h1        1 BPX      0.134700
     33 HAHA       -3.9380   -1.5450   -0.2400 h1        1 BPX      0.134700
@<TRIPOS>BOND
     1    1    6 3   
     2    1   20 1   
     3    2    3 3   
     4    2   21 1   
     5    3   22 1   
     6    4    5 3   
     7    4   23 1   
     8    5   24 1   
     9    6    7 1   
    10    7    8 1   
    11    7   25 1   
    12    7   26 1   
    13    8    9 1   
    14    8   12 1   
    15    8   27 1   
    16    9   10 1   
    17    9   11 1   
    18   12   13 1   
    19   12   28 1   
    20   12   29 1   
    21   13   14 1   
    22   13   15 1   
    23   13   16 1   
    24   14   30 1   
    25   15   31 1   
    26   16   17 1   
    27   16   32 1   
    28   16   33 1   
    29   17   18 1   
    30   17   19 1   
@<TRIPOS>SUBSTRUCTURE
     1 BPX         1 TEMP              0 ****  ****    0 ROOT
