@<TRIPOS>MOLECULE
BPY
   24    25     1     0     0
SMALL
bcc


@<TRIPOS>ATOM
      1 CK1         0.0710    0.2370    0.0010 ca        1 BPY     -0.121000
      2 CK2         1.4620    0.0380   -0.0170 cp        1 BPY     -0.034000
      3 CK3         2.1270   -0.1320    1.2120 ca        1 BPY      0.122100
      4 CK4         1.3930   -0.0870    2.4200 ca        1 BPY      0.038100
      5 CK5         0.0130    0.1180    2.4140 ca        1 BPY     -0.169000
      6 CK6        -0.6420    0.2770    1.1940 ca        1 BPY     -0.130000
      7 CK7         2.1700    0.0140   -1.2950 cp        1 BPY     -0.032000
      8 CK8         1.8220    0.9250   -2.3050 ca        1 BPY     -0.108500
      9 CK9         2.4760    0.8970   -3.5340 ca        1 BPY     -0.135500
     10 CKA         3.4830   -0.0390   -3.7720 ca        1 BPY     -0.125000
     11 CKB         3.8370   -0.9440   -2.7720 ca        1 BPY     -0.135500
     12 CKC         3.1880   -0.9180   -1.5390 ca        1 BPY     -0.108500
     13 OK1         2.1290   -0.2580    3.5770 oh        1 BPY     -0.519100
     14 OK2         3.4840   -0.3520    1.2070 oh        1 BPY     -0.491100
     15 HCK1       -0.4600    0.3580   -0.9560 ha        1 BPY      0.141000
     16 HCK5       -0.5460    0.1510    3.3600 ha        1 BPY      0.136000
     17 HCK6       -1.7310    0.4320    1.1770 ha        1 BPY      0.137000
     18 HCK8        1.0350    1.6710   -2.1200 ha        1 BPY      0.139500
     19 HCK9        2.1980    1.6170   -4.3170 ha        1 BPY      0.130500
     20 HC10        3.9960   -0.0610   -4.7440 ha        1 BPY      0.130000
     21 HC11        4.6330   -1.6810   -2.9540 ha        1 BPY      0.130500
     22 HC12        3.4810   -1.6230   -0.7450 ha        1 BPY      0.139500
     23 H0K1        1.5320   -0.1350    4.3270 ho        1 BPY      0.430000
     24 HOK2        3.7990   -0.3140    2.1240 ho        1 BPY      0.437000
@<TRIPOS>BOND
     1    1    2 ar  
     2    1    6 ar  
     3    1   15 1   
     4    2    3 ar  
     5    2    7 1   
     6    3    4 ar  
     7    3   14 1   
     8    4    5 ar  
     9    4   13 1   
    10    5    6 ar  
    11    5   16 1   
    12    6   17 1   
    13    7    8 ar  
    14    7   12 ar  
    15    8    9 ar  
    16    8   18 1   
    17    9   10 ar  
    18    9   19 1   
    19   10   11 ar  
    20   10   20 1   
    21   11   12 ar  
    22   11   21 1   
    23   12   22 1   
    24   13   23 1   
    25   14   24 1   
@<TRIPOS>SUBSTRUCTURE
     1 BPY         1 TEMP              0 ****  ****    0 ROOT
