@<TRIPOS>MOLECULE
BPY
   24    25     1     0     0
SMALL
bcc


@<TRIPOS>ATOM
      1 CK1        -1.7720   -0.2280    0.7920 ca        1 BPY     -0.124000
      2 CK2        -0.4570   -0.0780    0.3270 cp        1 BPY     -0.072000
      3 CK3         0.5800    0.0220    1.2680 ca        1 BPY      0.052100
      4 CK4         0.2970   -0.0380    2.6520 ca        1 BPY      0.109100
      5 CK5        -1.0210   -0.2000    3.0940 ca        1 BPY     -0.133000
      6 CK6        -2.0460   -0.2920    2.1550 ca        1 BPY     -0.127000
      7 CK7        -0.1990   -0.0270   -1.1120 cp        1 BPY     -0.049000
      8 CK8        -0.9530    0.8270   -1.9300 ca        1 BPY     -0.123500
      9 CK9        -0.7240    0.8670   -3.3030 ca        1 BPY     -0.128500
     10 CKA         0.2540    0.0520   -3.8750 ca        1 BPY     -0.124000
     11 CKB         1.0030   -0.8040   -3.0690 ca        1 BPY     -0.128500
     12 CKC         0.7800   -0.8450   -1.6940 ca        1 BPY     -0.123500
     13 OK1         1.2790    0.0480    3.6100 oh        1 BPY     -0.496100
     14 OK2         1.9140    0.1690    0.9460 oh        1 BPY     -0.522100
     15 HCK1       -2.5910   -0.3040    0.0610 ha        1 BPY      0.139000
     16 HCK5       -1.2250   -0.2490    4.1730 ha        1 BPY      0.153000
     17 HCK6       -3.0840   -0.4170    2.4980 ha        1 BPY      0.137000
     18 HCK8       -1.7260    1.4680   -1.4790 ha        1 BPY      0.141000
     19 HCK9       -1.3170    1.5420   -3.9380 ha        1 BPY      0.135000
     20 HC10        0.4320    0.0840   -4.9600 ha        1 BPY      0.134000
     21 HC11        1.7700   -1.4520   -3.5170 ha        1 BPY      0.135000
     22 HC12        1.3630   -1.5310   -1.0590 ha        1 BPY      0.141000
     23 H0K1        2.1250    0.2020    3.1610 ho        1 BPY      0.437000
     24 HOK2        1.9670    0.4560    0.0210 ho        1 BPY      0.437000
@<TRIPOS>BOND
     1    1    2 ar  
     2    1    6 ar  
     3    1   15 1   
     4    2    3 ar  
     5    2    7 1   
     6    3    4 ar  
     7    3   14 1   
     8    4    5 ar  
     9    4   13 1   
    10    5    6 ar  
    11    5   16 1   
    12    6   17 1   
    13    7    8 ar  
    14    7   12 ar  
    15    8    9 ar  
    16    8   18 1   
    17    9   10 ar  
    18    9   19 1   
    19   10   11 ar  
    20   10   20 1   
    21   11   12 ar  
    22   11   21 1   
    23   12   22 1   
    24   13   23 1   
    25   14   24 1   
@<TRIPOS>SUBSTRUCTURE
     1 BPY         1 TEMP              0 ****  ****    0 ROOT
