@<TRIPOS>MOLECULE
BPY
   24    25     1     0     0
SMALL
bcc


@<TRIPOS>ATOM
      1 CK1         0.0710    0.2420   -0.0010 ca        1 BPY     -0.121000
      2 CK2         1.4610    0.0380   -0.0180 cp        1 BPY     -0.034000
      3 CK3         2.1250   -0.1380    1.2120 ca        1 BPY      0.122100
      4 CK4         1.3890   -0.0940    2.4190 ca        1 BPY      0.038100
      5 CK5         0.0090    0.1150    2.4120 ca        1 BPY     -0.169000
      6 CK6        -0.6430    0.2800    1.1910 ca        1 BPY     -0.130000
      7 CK7         2.1720    0.0160   -1.2940 cp        1 BPY     -0.032000
      8 CK8         1.8280    0.9310   -2.3020 ca        1 BPY     -0.108500
      9 CK9         2.4830    0.9050   -3.5300 ca        1 BPY     -0.135500
     10 CKA         3.4870   -0.0330   -3.7700 ca        1 BPY     -0.125000
     11 CKB         3.8370   -0.9430   -2.7730 ca        1 BPY     -0.135500
     12 CKC         3.1870   -0.9190   -1.5400 ca        1 BPY     -0.108500
     13 OK1         2.1230   -0.2720    3.5760 oh        1 BPY     -0.519100
     14 OK2         3.4810   -0.3630    1.2080 oh        1 BPY     -0.491100
     15 HCK1       -0.4580    0.3680   -0.9580 ha        1 BPY      0.141000
     16 HCK5       -0.5510    0.1470    3.3570 ha        1 BPY      0.136000
     17 HCK6       -1.7320    0.4390    1.1740 ha        1 BPY      0.137000
     18 HCK8        1.0430    1.6790   -2.1160 ha        1 BPY      0.139500
     19 HCK9        2.2090    1.6290   -4.3120 ha        1 BPY      0.130500
     20 HC10        4.0020   -0.0530   -4.7410 ha        1 BPY      0.130000
     21 HC11        4.6310   -1.6810   -2.9560 ha        1 BPY      0.130500
     22 HC12        3.4760   -1.6270   -0.7490 ha        1 BPY      0.139500
     23 H0K1        1.5250   -0.1490    4.3260 ho        1 BPY      0.430000
     24 HOK2        3.7940   -0.3290    2.1250 ho        1 BPY      0.437000
@<TRIPOS>BOND
     1    1    2 ar  
     2    1    6 ar  
     3    1   15 1   
     4    2    3 ar  
     5    2    7 1   
     6    3    4 ar  
     7    3   14 1   
     8    4    5 ar  
     9    4   13 1   
    10    5    6 ar  
    11    5   16 1   
    12    6   17 1   
    13    7    8 ar  
    14    7   12 ar  
    15    8    9 ar  
    16    8   18 1   
    17    9   10 ar  
    18    9   19 1   
    19   10   11 ar  
    20   10   20 1   
    21   11   12 ar  
    22   11   21 1   
    23   12   22 1   
    24   13   23 1   
    25   14   24 1   
@<TRIPOS>SUBSTRUCTURE
     1 BPY         1 TEMP              0 ****  ****    0 ROOT
