@<TRIPOS>MOLECULE
BPY
   24    18     1     0     0
SMALL
bcc


@<TRIPOS>ATOM
      1 CK1        -1.8670   -0.1390    0.3020 c1        1 BPY     -0.127833
      2 CK2        -0.4830   -0.0600    0.2940 c1        1 BPY     -0.034000
      3 CK3         0.2090    0.0910    1.4850 c1        1 BPY      0.077000
      4 CK4        -0.4830    0.1630    2.6840 c1        1 BPY     -0.007000
      5 CK5        -1.8660    0.0840    2.6920 c1        1 BPY     -0.169000
      6 CK6        -2.5580   -0.0670    1.5000 c1        1 BPY     -0.127833
      7 CK7         0.2040   -0.0670   -0.9090 c1        1 BPY     -0.032000
      8 CK8         0.4680    1.1260   -1.5630 c1        1 BPY     -0.097000
      9 CK9         1.1890    1.1230   -2.7470 c1        1 BPY     -0.127833
     10 CKA         1.6460   -0.0740   -3.2770 c1        1 BPY     -0.127833
     11 CKB         1.3820   -1.2670   -2.6230 c1        1 BPY     -0.127833
     12 CKC         0.6610   -1.2640   -1.4400 c1        1 BPY     -0.127833
     13 OK1         0.2210    0.2990    3.8960 oh        1 BPY     -0.273000
     14 OK2         1.6140    0.1730    1.4770 oh        1 BPY     -0.245000
     15 HCK1       -2.3540   -0.2450   -0.5380 ha        1 BPY      0.133333
     16 HCK5       -2.3540    0.1350    3.5360 ha        1 BPY      0.136000
     17 HCK6       -3.5330   -0.1220    1.5060 ha        1 BPY      0.133333
     18 HCK8        0.1470    1.9690   -1.1900 ha        1 BPY      0.148000
     19 HCK9        1.3750    1.9630   -3.2080 ha        1 BPY      0.133333
     20 HC10        2.1530   -0.0760   -4.1110 ha        1 BPY      0.133333
     21 HC11        1.7040   -2.1100   -2.9970 ha        1 BPY      0.133333
     22 HC12        0.4760   -2.1040   -0.9790 ha        1 BPY      0.133333
     23 H0K1        0.1810   -0.4650    4.3490 ho        1 BPY      0.229000
     24 HOK2        1.8690    0.9330    1.8630 ho        1 BPY      0.236000
@<TRIPOS>BOND
     1    1    6 1   
     2    1   15 1   
     3    2    3 1   
     4    3   14 1   
     5    4    5 1   
     6    4   13 1   
     7    5   16 1   
     8    6   17 1   
     9    7    8 1   
    10    8   18 1   
    11    9   10 1   
    12    9   19 1   
    13   10   20 1   
    14   11   12 1   
    15   11   21 1   
    16   12   22 1   
    17   13   23 1   
    18   14   24 1   
@<TRIPOS>SUBSTRUCTURE
     1 BPY         1 TEMP              0 ****  ****    0 ROOT
