@<TRIPOS>MOLECULE
BPZ
   40    42     1     0     0
SMALL
bcc


@<TRIPOS>ATOM
      1 O2          5.0800   -1.5500    0.4000 oh        1 BPZ     -0.498100
      2 C16         3.8690   -0.9160    0.2450 ca        1 BPZ      0.121100
      3 C15         2.8810   -1.2030    1.2030 ca        1 BPZ     -0.184750
      4 C14         1.6420   -0.5870    1.0960 ca        1 BPZ     -0.091000
      5 C17         3.6040   -0.0280   -0.8030 ca        1 BPZ     -0.184750
      6 C18         2.3520    0.5800   -0.8900 ca        1 BPZ     -0.091000
      7 C7          1.3590    0.3160    0.0570 ca        1 BPZ     -0.099800
      8 C5         -0.0110    0.9610    0.0180 c3        1 BPZ      0.057600
      9 C8         -0.1430    1.8330    1.2810 c3        1 BPZ     -0.068400
     10 C1         -1.4230    2.6420    1.3270 c3        1 BPZ     -0.078900
     11 C4         -0.1550    1.9100   -1.1830 c3        1 BPZ     -0.068400
     12 C3         -1.4700    2.6610   -1.1620 c3        1 BPZ     -0.078900
     13 C2         -1.5890    3.5020    0.0920 c3        1 BPZ     -0.075400
     14 C6         -1.0320   -0.1510   -0.0590 ca        1 BPZ     -0.099800
     15 C13        -1.1860   -0.8610   -1.2620 ca        1 BPZ     -0.091000
     16 C12        -2.1010   -1.9000   -1.3800 ca        1 BPZ     -0.184750
     17 C11        -2.8810   -2.2540   -0.2670 ca        1 BPZ      0.121100
     18 O1         -3.7760   -3.2850   -0.4420 oh        1 BPZ     -0.498100
     19 C10        -2.7280   -1.5770    0.9480 ca        1 BPZ     -0.184750
     20 C9         -1.8030   -0.5380    1.0420 ca        1 BPZ     -0.091000
     21 HO2         5.6560   -1.2720   -0.3260 ho        1 BPZ      0.418000
     22 H15         3.1010   -1.9090    2.0160 ha        1 BPZ      0.141000
     23 H14         0.8570   -0.8200    1.8340 ha        1 BPZ      0.136000
     24 H17         4.3770    0.1900   -1.5540 ha        1 BPZ      0.141000
     25 H18         2.1690    1.2700   -1.7280 ha        1 BPZ      0.136000
     26 H8         -0.0650    1.1930    2.1980 hc        1 BPZ      0.043700
     27 H8A         0.7320    2.5370    1.2990 hc        1 BPZ      0.043700
     28 H1         -2.3060    1.9560    1.4170 hc        1 BPZ      0.043450
     29 H1A        -1.4080    3.2940    2.2400 hc        1 BPZ      0.043450
     30 H4          0.6840    2.6570   -1.1480 hc        1 BPZ      0.043700
     31 H4A        -0.0640    1.3420   -2.1440 hc        1 BPZ      0.043700
     32 H3         -1.5340    3.3210   -2.0660 hc        1 BPZ      0.043450
     33 H3A        -2.3210    1.9320   -1.2110 hc        1 BPZ      0.043450
     34 H2         -2.5900    4.0070    0.1160 hc        1 BPZ      0.039200
     35 H2A        -0.8060    4.3050    0.0830 hc        1 BPZ      0.039200
     36 H13        -0.5630   -0.6080   -2.1340 ha        1 BPZ      0.136000
     37 H12        -2.2210   -2.4500   -2.3240 ha        1 BPZ      0.141000
     38 HO1        -4.2310   -3.4280    0.4000 ho        1 BPZ      0.418000
     39 H10        -3.3280   -1.8620    1.8220 ha        1 BPZ      0.141000
     40 H9         -1.6920   -0.0310    2.0130 ha        1 BPZ      0.136000
@<TRIPOS>BOND
     1    1    2 1   
     2    1   21 1   
     3    2    3 ar  
     4    2    5 ar  
     5    3    4 ar  
     6    3   22 1   
     7    4    7 ar  
     8    4   23 1   
     9    5    6 ar  
    10    5   24 1   
    11    6    7 ar  
    12    6   25 1   
    13    7    8 1   
    14    8    9 1   
    15    8   11 1   
    16    8   14 1   
    17    9   10 1   
    18    9   26 1   
    19    9   27 1   
    20   10   13 1   
    21   10   28 1   
    22   10   29 1   
    23   11   12 1   
    24   11   30 1   
    25   11   31 1   
    26   12   13 1   
    27   12   32 1   
    28   12   33 1   
    29   13   34 1   
    30   13   35 1   
    31   14   15 ar  
    32   14   20 ar  
    33   15   16 ar  
    34   15   36 1   
    35   16   17 ar  
    36   16   37 1   
    37   17   18 1   
    38   17   19 ar  
    39   18   38 1   
    40   19   20 ar  
    41   19   39 1   
    42   20   40 1   
@<TRIPOS>SUBSTRUCTURE
     1 BPZ         1 TEMP              0 ****  ****    0 ROOT
