@<TRIPOS>MOLECULE
BPZ
   40    42     1     0     0
SMALL
bcc


@<TRIPOS>ATOM
      1 O2          0.0220    0.0710    0.3510 oh        1 BPZ     -0.498100
      2 C16         1.3890    0.0800    0.1920 ca        1 BPZ      0.121100
      3 C15         2.1590    0.0180    1.3660 ca        1 BPZ     -0.184750
      4 C14         3.5430    0.0190    1.2630 ca        1 BPZ     -0.091000
      5 C17         2.0080    0.1490   -1.0610 ca        1 BPZ     -0.184750
      6 C18         3.4010    0.1490   -1.1400 ca        1 BPZ     -0.091000
      7 C7          4.1850    0.0780    0.0130 ca        1 BPZ     -0.099800
      8 C5          5.6990    0.0580   -0.0180 c3        1 BPZ      0.057600
      9 C8          6.1520   -1.3040    0.5420 c3        1 BPZ     -0.068400
     10 C1          7.6480   -1.5240    0.4640 c3        1 BPZ     -0.078900
     11 C4          6.2360    0.1380   -1.4560 c3        1 BPZ     -0.068400
     12 C3          7.7420   -0.0140   -1.5120 c3        1 BPZ     -0.078900
     13 C2          8.1700   -1.3510   -0.9460 c3        1 BPZ     -0.075400
     14 C6          6.1840    1.2360    0.7950 ca        1 BPZ     -0.099800
     15 C13         6.0580    2.5340    0.2700 ca        1 BPZ     -0.091000
     16 C12         6.4760    3.6500    0.9820 ca        1 BPZ     -0.184750
     17 C11         7.0260    3.4770    2.2630 ca        1 BPZ      0.121100
     18 O1          7.4300    4.6160    2.9210 oh        1 BPZ     -0.498100
     19 C10         7.1390    2.1970    2.8170 ca        1 BPZ     -0.184750
     20 C9          6.7130    1.0920    2.0830 ca        1 BPZ     -0.091000
     21 HO2        -0.3790    0.1290   -0.5280 ho        1 BPZ      0.418000
     22 H15         1.6580   -0.0290    2.3430 ha        1 BPZ      0.141000
     23 H14         4.1540   -0.0130    2.1800 ha        1 BPZ      0.136000
     24 H17         1.4040    0.2050   -1.9770 ha        1 BPZ      0.141000
     25 H18         3.8620    0.2110   -2.1380 ha        1 BPZ      0.136000
     26 H8          5.8060   -1.4170    1.6020 hc        1 BPZ      0.043700
     27 H8A         5.6360   -2.1030   -0.0570 hc        1 BPZ      0.043700
     28 H1          8.1770   -0.8020    1.1410 hc        1 BPZ      0.043450
     29 H1A         7.8830   -2.5590    0.8280 hc        1 BPZ      0.043450
     30 H4          5.9390    1.1070   -1.9310 hc        1 BPZ      0.043700
     31 H4A         5.7710   -0.6920   -2.0540 hc        1 BPZ      0.043700
     32 H3          8.2250    0.8150   -0.9310 hc        1 BPZ      0.043450
     33 H3A         8.0840    0.0730   -2.5760 hc        1 BPZ      0.043450
     34 H2          9.2890   -1.4230   -0.9460 hc        1 BPZ      0.039200
     35 H2A         7.7790   -2.1780   -1.5970 hc        1 BPZ      0.039200
     36 H13         5.6060    2.6820   -0.7230 ha        1 BPZ      0.136000
     37 H12         6.3800    4.6620    0.5650 ha        1 BPZ      0.141000
     38 HO1         7.7740    4.3530    3.7870 ho        1 BPZ      0.418000
     39 H10         7.5580    2.0630    3.8240 ha        1 BPZ      0.141000
     40 H9          6.8000    0.0980    2.5470 ha        1 BPZ      0.136000
@<TRIPOS>BOND
     1    1    2 1   
     2    1   21 1   
     3    2    3 ar  
     4    2    5 ar  
     5    3    4 ar  
     6    3   22 1   
     7    4    7 ar  
     8    4   23 1   
     9    5    6 ar  
    10    5   24 1   
    11    6    7 ar  
    12    6   25 1   
    13    7    8 1   
    14    8    9 1   
    15    8   11 1   
    16    8   14 1   
    17    9   10 1   
    18    9   26 1   
    19    9   27 1   
    20   10   13 1   
    21   10   28 1   
    22   10   29 1   
    23   11   12 1   
    24   11   30 1   
    25   11   31 1   
    26   12   13 1   
    27   12   32 1   
    28   12   33 1   
    29   13   34 1   
    30   13   35 1   
    31   14   15 ar  
    32   14   20 ar  
    33   15   16 ar  
    34   15   36 1   
    35   16   17 ar  
    36   16   37 1   
    37   17   18 1   
    38   17   19 ar  
    39   18   38 1   
    40   19   20 ar  
    41   19   39 1   
    42   20   40 1   
@<TRIPOS>SUBSTRUCTURE
     1 BPZ         1 TEMP              0 ****  ****    0 ROOT
