@<TRIPOS>MOLECULE
BPZ
   40    38     1     0     0
SMALL
bcc


@<TRIPOS>ATOM
      1 O2         -5.5560   -0.4450   -0.4210 oh        1 BPZ     -0.252000
      2 C16        -4.1540   -0.4450   -0.4210 c2        1 BPZ      0.076000
      3 C15        -3.4610   -0.4450    0.7810 c2        1 BPZ     -0.210000
      4 C14        -2.0740   -0.4450    0.7830 c1        1 BPZ     -0.084000
      5 C17        -3.4580   -0.4450   -1.6230 c1        1 BPZ     -0.159000
      6 C18        -2.0710   -0.4450   -1.6210 c1        1 BPZ     -0.096000
      7 C7         -1.3780   -0.4450   -0.4190 c1        1 BPZ     -0.099000
      8 C5          0.1390   -0.4450   -0.4170 c3        1 BPZ      0.043000
      9 C8          0.4450   -1.8310    0.1080 c3        1 BPZ     -0.146500
     10 C1          1.9320   -2.0950    0.2100 c3        1 BPZ     -0.157500
     11 C4          0.8700   -0.1340   -1.7090 c3        1 BPZ     -0.146500
     12 C3          2.3560   -0.3950   -1.6080 c3        1 BPZ     -0.157500
     13 C2          2.6650   -1.7870   -1.0830 c3        1 BPZ     -0.154000
     14 C6          0.5990    0.7220    0.4390 c2        1 BPZ     -0.087000
     15 C13         0.5220    2.0170   -0.0550 c2        1 BPZ     -0.085000
     16 C12         0.9420    3.0830    0.7260 c1        1 BPZ     -0.211000
     17 C11         1.4400    2.8560    2.0010 c1        1 BPZ      0.075000
     18 O1          1.9390    3.9250    2.7590 oh        1 BPZ     -0.252000
     19 C10         1.5170    1.5620    2.4950 c1        1 BPZ     -0.159000
     20 C9          1.0970    0.4950    1.7130 c1        1 BPZ     -0.100000
     21 HO2        -5.8520   -1.2820   -0.4240 ho        1 BPZ      0.217000
     22 H15        -3.9500   -0.4450    1.6260 ha        1 BPZ      0.133000
     23 H14        -1.5860   -0.4450    1.6280 ha        1 BPZ      0.137000
     24 H17        -3.9450   -0.4450   -2.4690 ha        1 BPZ      0.149000
     25 H18        -1.5820   -0.4450   -2.4660 ha        1 BPZ      0.136000
     26 H8          0.0460   -1.9290    0.9940 hc        1 BPZ      0.082750
     27 H8A         0.0480   -2.4910   -0.4920 hc        1 BPZ      0.082750
     28 H1          2.3030   -1.5400    0.9230 hc        1 BPZ      0.083000
     29 H1A         2.0720   -3.0340    0.4360 hc        1 BPZ      0.083000
     30 H4          0.7300    0.8050   -1.9330 hc        1 BPZ      0.082750
     31 H4A         0.5000   -0.6880   -2.4220 hc        1 BPZ      0.082750
     32 H3          2.7520    0.2640   -1.0070 hc        1 BPZ      0.083000
     33 H3A         2.7550   -0.2960   -2.4930 hc        1 BPZ      0.083000
     34 H2          2.4060   -2.4430   -1.7570 hc        1 BPZ      0.078500
     35 H2A         3.6260   -1.8580   -0.9260 hc        1 BPZ      0.078500
     36 H13         0.1720    2.1780   -0.9520 ha        1 BPZ      0.136000
     37 H12         0.8880    3.9940    0.3790 ha        1 BPZ      0.133000
     38 HO1         1.2890    4.2620    3.2600 ho        1 BPZ      0.217000
     39 H10         1.8670    1.4020    3.3920 ha        1 BPZ      0.149000
     40 H9          1.1510   -0.4160    2.0610 ha        1 BPZ      0.136000
@<TRIPOS>BOND
     1    1    2 1   
     2    1   21 1   
     3    2    3 1   
     4    2    5 1   
     5    3    4 1   
     6    3   22 1   
     7    4   23 1   
     8    5   24 1   
     9    6    7 1   
    10    6   25 1   
    11    7    8 1   
    12    8    9 1   
    13    8   11 1   
    14    8   14 1   
    15    9   10 1   
    16    9   26 1   
    17    9   27 1   
    18   10   13 1   
    19   10   28 1   
    20   10   29 1   
    21   11   12 1   
    22   11   30 1   
    23   11   31 1   
    24   12   13 1   
    25   12   32 1   
    26   12   33 1   
    27   13   34 1   
    28   13   35 1   
    29   14   15 1   
    30   14   20 1   
    31   15   16 1   
    32   15   36 1   
    33   16   37 1   
    34   17   18 1   
    35   17   19 1   
    36   18   38 1   
    37   19   39 1   
    38   20   40 1   
@<TRIPOS>SUBSTRUCTURE
     1 BPZ         1 TEMP              0 ****  ****    0 ROOT
