@<TRIPOS>MOLECULE
BPZ
   40    42     1     0     0
SMALL
bcc


@<TRIPOS>ATOM
      1 O2          0.0210    0.0840    0.3680 oh        1 BPZ     -0.498100
      2 C16         1.3880    0.0890    0.2050 ca        1 BPZ      0.121100
      3 C15         2.1610    0.0290    1.3780 ca        1 BPZ     -0.184750
      4 C14         3.5450    0.0280    1.2700 ca        1 BPZ     -0.091000
      5 C17         2.0040    0.1510   -1.0490 ca        1 BPZ     -0.184750
      6 C18         3.3960    0.1480   -1.1330 ca        1 BPZ     -0.091000
      7 C7          4.1830    0.0790    0.0190 ca        1 BPZ     -0.099800
      8 C5          5.6970    0.0560   -0.0160 c3        1 BPZ      0.057600
      9 C8          6.1480   -1.3050    0.5480 c3        1 BPZ     -0.068400
     10 C1          7.6440   -1.5280    0.4670 c3        1 BPZ     -0.078900
     11 C4          6.2300    0.1290   -1.4560 c3        1 BPZ     -0.068400
     12 C3          7.7360   -0.0260   -1.5160 c3        1 BPZ     -0.078900
     13 C2          8.1620   -1.3630   -0.9460 c3        1 BPZ     -0.075400
     14 C6          6.1870    1.2370    0.7910 ca        1 BPZ     -0.099800
     15 C13         6.0620    2.5320    0.2600 ca        1 BPZ     -0.091000
     16 C12         6.4840    3.6510    0.9660 ca        1 BPZ     -0.184750
     17 C11         7.0380    3.4820    2.2460 ca        1 BPZ      0.121100
     18 O1          7.4460    4.6230    2.8980 oh        1 BPZ     -0.498100
     19 C10         7.1500    2.2040    2.8050 ca        1 BPZ     -0.184750
     20 C9          6.7190    1.0970    2.0770 ca        1 BPZ     -0.091000
     21 HO2        -0.3830    0.1390   -0.5100 ho        1 BPZ      0.418000
     22 H15         1.6620   -0.0120    2.3560 ha        1 BPZ      0.141000
     23 H14         4.1570   -0.0030    2.1860 ha        1 BPZ      0.136000
     24 H17         1.3960    0.2040   -1.9640 ha        1 BPZ      0.141000
     25 H18         3.8540    0.2050   -2.1320 ha        1 BPZ      0.136000
     26 H8          5.8050   -1.4120    1.6090 hc        1 BPZ      0.043700
     27 H8A         5.6290   -2.1050   -0.0450 hc        1 BPZ      0.043700
     28 H1          7.8780   -2.5620    0.8340 hc        1 BPZ      0.043450
     29 H1A         8.1760   -0.8040    1.1390 hc        1 BPZ      0.043450
     30 H4          5.9340    1.0970   -1.9350 hc        1 BPZ      0.043700
     31 H4A         5.7620   -0.7020   -2.0500 hc        1 BPZ      0.043700
     32 H3          8.2220    0.8040   -0.9400 hc        1 BPZ      0.043450
     33 H3A         8.0740    0.0550   -2.5820 hc        1 BPZ      0.043450
     34 H2          9.2810   -1.4370   -0.9480 hc        1 BPZ      0.039200
     35 H2A         7.7680   -2.1910   -1.5920 hc        1 BPZ      0.039200
     36 H13         5.6070    2.6780   -0.7320 ha        1 BPZ      0.136000
     37 H12         6.3880    4.6620    0.5450 ha        1 BPZ      0.141000
     38 HO1         7.7920    4.3620    3.7640 ho        1 BPZ      0.418000
     39 H10         7.5710    2.0740    3.8120 ha        1 BPZ      0.141000
     40 H9          6.8060    0.1040    2.5460 ha        1 BPZ      0.136000
@<TRIPOS>BOND
     1    1    2 1   
     2    1   21 1   
     3    2    3 ar  
     4    2    5 ar  
     5    3    4 ar  
     6    3   22 1   
     7    4    7 ar  
     8    4   23 1   
     9    5    6 ar  
    10    5   24 1   
    11    6    7 ar  
    12    6   25 1   
    13    7    8 1   
    14    8    9 1   
    15    8   11 1   
    16    8   14 1   
    17    9   10 1   
    18    9   26 1   
    19    9   27 1   
    20   10   13 1   
    21   10   28 1   
    22   10   29 1   
    23   11   12 1   
    24   11   30 1   
    25   11   31 1   
    26   12   13 1   
    27   12   32 1   
    28   12   33 1   
    29   13   34 1   
    30   13   35 1   
    31   14   15 ar  
    32   14   20 ar  
    33   15   16 ar  
    34   15   36 1   
    35   16   17 ar  
    36   16   37 1   
    37   17   18 1   
    38   17   19 ar  
    39   18   38 1   
    40   19   20 ar  
    41   19   39 1   
    42   20   40 1   
@<TRIPOS>SUBSTRUCTURE
     1 BPZ         1 TEMP              0 ****  ****    0 ROOT
