@<TRIPOS>MOLECULE
BQ1
   69    69     1     0     0
SMALL
bcc


@<TRIPOS>ATOM
      1 BR          0.7220    2.5360   -0.5570 br        1 BQ1      0.096000
      2 O02         4.8670   -1.0870    4.7620 oh        1 BQ1     -0.303000
      3 N04         5.6370   -5.1220    3.5770 n3        1 BQ1     -0.162000
      4 N05         6.1540   -0.1900   -0.2300 n2        1 BQ1     -0.290000
      5 C06         6.1350   -1.5060    4.2730 c3        1 BQ1      0.131000
      6 C07         6.7540   -0.2970    3.5390 c3        1 BQ1      0.027000
      7 C09         6.9110   -2.1570    5.4700 c3        1 BQ1     -0.068000
      8 C10         6.0560   -0.0810    2.2280 c2        1 BQ1     -0.209000
      9 C12         6.7740    0.9940    4.3040 c2        1 BQ1     -0.146000
     10 C13         8.4060   -1.9940    5.7230 c2        1 BQ1      0.003000
     11 C14         6.6630   -3.6500    5.2780 c2        1 BQ1     -0.185000
     12 C15         4.8240    0.5520    2.1420 c2        1 BQ1      0.004000
     13 C16         9.1290   -2.9600    6.3820 c2        1 BQ1     -0.030000
     14 C17         6.6850   -0.4580    0.9960 c2        1 BQ1      0.203000
     15 C18         7.7290    1.9200    4.0430 c2        1 BQ1     -0.043000
     16 C19         5.7820    1.2760    5.3380 c2        1 BQ1     -0.117000
     17 C20         7.3700   -4.4130    6.1090 c1        1 BQ1     -0.068000
     18 C21         8.9960   -0.7010    5.4220 c2        1 BQ1     -0.167000
     19 C22         4.2440    0.8150    0.8860 c2        1 BQ1     -0.204000
     20 C23         8.3980   -4.1410    6.9160 c2        1 BQ1      0.063000
     21 C24         4.9600    0.4400   -0.2860 c2        1 BQ1      0.072000
     22 C25         8.8320   -4.8180    8.1400 c3        1 BQ1     -0.212000
     23 C26         5.8220   -6.3730    4.2700 c3        1 BQ1     -0.128000
     24 C27        10.5260   -2.8600    6.7250 c2        1 BQ1     -0.457000
     25 C28         7.7670    3.1790    4.7480 c2        1 BQ1     -0.461000
     26 C29         4.8970    2.2810    5.2820 c2        1 BQ1     -0.177000
     27 C30        10.0760   -0.5140    4.6590 c2        1 BQ1     -0.174000
     28 C31         6.7890    3.6560    5.5110 c1        1 BQ1      0.198000
     29 C32        11.2210   -3.6750    7.5000 c1        1 BQ1      0.251000
     30 C33         2.9620    1.4580    0.7830 c2        1 BQ1      0.032000
     31 C34         4.3560    0.7560   -1.6260 c3        1 BQ1     -0.188000
     32 C35         2.3970    1.7170   -0.4320 c2        1 BQ1     -0.273000
     33 C36         3.0480    1.3860   -1.6500 c1        1 BQ1     -0.032000
     34 C37         8.2240   -1.0930   -1.4830 c1        1 BQ1     -0.023000
     35 H02         4.4420   -1.8440    5.1880 ho        1 BQ1      0.203000
     36 H371        7.6780   -1.7760   -2.1440 ha        1 BQ1      0.067000
     37 H372        8.5040   -0.1400   -1.9470 ha        1 BQ1      0.067000
     38 H373        8.2540   -1.2600    0.0760 ho        1 BQ1      0.326000
     39 H111        4.8880   -2.5380    2.7760 hc        1 BQ1      0.169000
     40 H112        6.6820   -2.6220    2.4410 hc        1 BQ1      0.169000
     41 H251        9.7400   -5.4490    7.9240 hc        1 BQ1      0.131000
     42 H252        9.1120   -4.0680    8.9260 hc        1 BQ1      0.131000
     43 H253        8.0340   -5.4860    8.5490 hc        1 BQ1      0.131000
     44 H261        4.9300   -7.0290    4.0790 h1        1 BQ1      0.133000
     45 H262        5.9370   -6.2020    5.3770 h1        1 BQ1      0.133000
     46 H263        6.7490   -6.8800    3.8850 h1        1 BQ1      0.133000
     47 H07         7.8260   -0.5930    3.3160 hc        1 BQ1      0.136000
     48 H081        2.7090   -1.7090    3.4940 ha        1 BQ1      0.001500
     49 H082        2.9340   -1.1110    3.2670 ha        1 BQ1      0.001500
     50 H14         6.4260   -1.7560    6.4130 hc        1 BQ1      0.155000
     51 H15         4.3050    0.8520    3.0720 ha        1 BQ1      0.166000
     52 H18         8.5120    1.7440    3.2880 ha        1 BQ1      0.137000
     53 H19         5.8210    0.6020    6.2130 ha        1 BQ1      0.130000
     54 H21         8.4630    0.1550    5.8820 ha        1 BQ1      0.166000
     55 H20         6.6960   -0.0810    8.3660 ha        1 BQ1      0.001500
     56 H23         7.1540   -0.2470    7.8940 ha        1 BQ1      0.001500
     57 H27        11.0790   -1.9850    6.3080 ha        1 BQ1      0.216000
     58 H28         8.6840    3.7900    4.6240 ha        1 BQ1      0.192000
     59 H29         4.2080    2.4890    6.1120 ha        1 BQ1      0.136000
     60 H30        10.6150   -1.3320    4.1620 ha        1 BQ1      0.131500
     61 H33         2.4620    1.7260    1.7320 ha        1 BQ1      0.149000
     62 H34         5.0490    1.4460   -2.2000 hc        1 BQ1      0.174000
     63 H32        10.4720    0.4940    4.4670 ha        1 BQ1      0.131500
     64 H31         4.7710    2.9300    4.4020 ha        1 BQ1      0.136000
     65 H36         4.2770   -0.1870   -2.2470 hc        1 BQ1      0.174000
     66 H041        5.1910   -5.1710    2.6780 hn        1 BQ1      0.269000
     67 O03         7.8490   -1.1380    1.0580 oh        1 BQ1     -0.355000
     68 C08         5.8980   -2.6570    3.2510 c3        1 BQ1     -0.230000
     69 C11         6.0360   -3.9420    4.0210 c2        1 BQ1      0.225000
@<TRIPOS>BOND
     1    1   32 1   
     2    2    5 1   
     3    2   35 1   
     4    3   23 1   
     5    3   66 1   
     6    3   69 1   
     7    4   14 1   
     8    4   21 1   
     9    5    6 1   
    10    5    7 1   
    11    5   68 1   
    12    6    8 1   
    13    6    9 1   
    14    6   47 1   
    15    7   10 1   
    16    7   11 1   
    17    7   50 1   
    18    8   12 1   
    19    8   14 1   
    20    9   15 1   
    21    9   16 1   
    22   10   13 1   
    23   10   18 1   
    24   11   17 1   
    25   11   69 1   
    26   12   19 1   
    27   12   51 1   
    28   13   20 1   
    29   13   24 1   
    30   14   67 1   
    31   15   25 1   
    32   15   52 1   
    33   16   26 1   
    34   16   53 1   
    35   17   20 1   
    36   18   27 1   
    37   18   54 1   
    38   19   21 1   
    39   19   30 1   
    40   20   22 1   
    41   21   31 1   
    42   22   41 1   
    43   22   42 1   
    44   22   43 1   
    45   23   44 1   
    46   23   45 1   
    47   23   46 1   
    48   24   29 1   
    49   24   57 1   
    50   25   28 1   
    51   25   58 1   
    52   26   59 1   
    53   26   64 1   
    54   27   60 1   
    55   27   63 1   
    56   30   32 1   
    57   30   61 1   
    58   31   33 1   
    59   31   62 1   
    60   31   65 1   
    61   32   33 1   
    62   34   36 1   
    63   34   37 1   
    64   38   67 1   
    65   39   68 1   
    66   40   68 1   
    67   48   49 1   
    68   55   56 1   
    69   68   69 1   
@<TRIPOS>SUBSTRUCTURE
     1 BQ1         1 TEMP              0 ****  ****    0 ROOT
