@<TRIPOS>MOLECULE
BQ1
   69    67     1     0     0
SMALL
bcc


@<TRIPOS>ATOM
      1 Br          0.6070    3.0400   -0.5210 br        1 BQ1      0.136000
      2 O02         6.6510   -1.8050    4.1900 oh        1 BQ1     -0.325000
      3 N04         6.7440   -4.9070    3.4500 n7        1 BQ1     -0.295000
      4 N05         5.3590   -0.5670    0.6500 n2        1 BQ1     -0.161000
      5 C06         6.7500   -0.5800    4.8230 c2        1 BQ1      0.140000
      6 C07         6.2720    0.5220    4.1820 c2        1 BQ1     -0.088000
      7 C09         7.3410   -0.5720    6.1990 c3        1 BQ1     -0.191000
      8 C10         5.6150    0.4690    2.8860 c2        1 BQ1      0.015000
      9 C12         6.3340    1.8500    4.8110 c2        1 BQ1     -0.127000
     10 C13         8.8430   -0.8260    6.1950 c2        1 BQ1     -0.051000
     11 C14         6.3700   -1.3860    7.1030 c1        1 BQ1      0.118000
     12 C15         4.5120    1.2990    2.5940 c2        1 BQ1     -0.042000
     13 C16         9.4660   -1.6350    7.1390 c2        1 BQ1      0.099000
     14 C17         5.9760   -0.4020    1.8390 c2        1 BQ1      0.022000
     15 C18         7.3230    2.7290    4.5240 c2        1 BQ1     -0.020000
     16 C19         5.2950    2.1580    5.7900 c2        1 BQ1     -0.142000
     17 C20         7.2580   -2.0620    7.9270 c1        1 BQ1     -0.202000
     18 C21         9.5860   -0.0790    5.1970 c2        1 BQ1     -0.161000
     19 C22         3.8520    1.1960    1.3660 c2        1 BQ1     -0.092000
     20 C23         8.4870   -2.2230    7.9790 c1        1 BQ1     -0.042000
     21 C24         4.2990    0.2320    0.4050 c2        1 BQ1      0.023000
     22 C25         8.1530   -5.5070    5.5580 c2        1 BQ1     -0.147000
     23 C26         5.7110   -5.0770    4.4840 cx        1 BQ1     -0.122000
     24 C27        10.8770   -1.8370    7.2940 c2        1 BQ1     -0.480000
     25 C28         7.4220    4.0160    5.1630 c2        1 BQ1     -0.473000
     26 C29         4.5110    3.2420    5.7410 c2        1 BQ1     -0.185000
     27 C30        10.6630   -0.5200    4.5430 c2        1 BQ1     -0.178000
     28 C31         6.4600    4.6240    5.8470 c1        1 BQ1      0.234000
     29 C32        11.5110   -2.8200    7.9120 c1        1 BQ1      0.306000
     30 C33         2.7190    2.0460    1.0640 c2        1 BQ1     -0.017000
     31 C34         3.5680    0.1160   -0.9020 c3        1 BQ1     -0.191000
     32 C35         2.0600    1.9450   -0.1210 c2        1 BQ1     -0.235000
     33 C36         2.4390    0.9950   -1.1240 c1        1 BQ1      0.003000
     34 C37         7.1210   -2.4580    1.9140 c2        1 BQ1      0.294000
     35 H02         6.7070   -2.5080    4.8600 ho        1 BQ1      0.265000
     36 H371        7.6760   -2.7230   -0.9640 ha        1 BQ1      0.004000
     37 H372        7.6550   -2.6410   -0.2890 ha        1 BQ1      0.004000
     38 H373        8.1020   -2.9610    2.0730 h4        1 BQ1      0.210000
     39 H111        7.2560   -4.8130    0.4970 hc        1 BQ1      0.067750
     40 H112        8.1500   -6.3730    0.7710 hc        1 BQ1      0.067750
     41 H251        6.8180   -5.6410    2.7670 hn        1 BQ1      0.173000
     42 H252        9.1850   -5.5740    5.1850 ha        1 BQ1      0.143500
     43 H253        8.0160   -5.6880    6.6340 ha        1 BQ1      0.143500
     44 H261        4.8600   -7.6140    2.0750 ha        1 BQ1      0.004000
     45 H262        5.0430   -5.9670    4.4750 h1        1 BQ1      0.135500
     46 H263        5.0090   -7.0690    2.4490 ha        1 BQ1      0.004000
     47 H07         7.3790   -6.0380   -0.8380 hc        1 BQ1      0.067750
     48 H081        6.3380   -6.3810    0.6100 hc        1 BQ1      0.067750
     49 H082        5.1600   -4.1540    4.7670 h1        1 BQ1      0.135500
     50 H14         7.2230    0.4760    6.6420 hc        1 BQ1      0.202000
     51 H15         4.1740    2.0220    3.3590 ha        1 BQ1      0.183000
     52 H18         8.1030    2.4850    3.7830 ha        1 BQ1      0.135000
     53 H19         5.1930    1.4240    6.6130 ha        1 BQ1      0.149000
     54 H21         9.1780    0.9300    4.9900 ha        1 BQ1      0.143000
     55 H20         5.1760    0.0790    8.6230 ha        1 BQ1      0.004000
     56 H23         5.7660    0.4130    8.5900 ha        1 BQ1      0.004000
     57 H27        11.5300   -1.0400    6.8600 ha        1 BQ1      0.212000
     58 H28         8.3960    4.5410    5.0650 ha        1 BQ1      0.199000
     59 H29         3.7810    3.4620    6.5330 ha        1 BQ1      0.139500
     60 H30        11.0920   -1.5220    4.6910 ha        1 BQ1      0.130000
     61 H33         2.4240    2.7720    1.8440 ha        1 BQ1      0.164000
     62 H34         4.2870    0.2910   -1.7630 hc        1 BQ1      0.188500
     63 H32        11.1820    0.1040    3.8010 ha        1 BQ1      0.130000
     64 H31         4.4990    3.9530    4.8980 ha        1 BQ1      0.139500
     65 H36         3.1890   -0.9440   -1.0420 hc        1 BQ1      0.188500
     66 H041        6.1850   -3.0120    1.7080 h4        1 BQ1      0.210000
     67 O03         7.1800   -1.1680    2.0010 os        1 BQ1     -0.002000
     68 C08         7.2810   -5.9020    0.2620 c3        1 BQ1     -0.270000
     69 C11         7.1310   -5.2430    4.7760 cu        1 BQ1     -0.165000
@<TRIPOS>BOND
     1    1   32 1   
     2    2    5 1   
     3    2   35 1   
     4    3   23 1   
     5    3   41 1   
     6    3   69 1   
     7    4   14 1   
     8    4   21 1   
     9    5    6 1   
    10    5    7 1   
    11    6    8 1   
    12    6    9 1   
    13    7   10 1   
    14    7   11 1   
    15    7   50 1   
    16    8   12 1   
    17    8   14 1   
    18    9   15 1   
    19    9   16 1   
    20   10   13 1   
    21   10   18 1   
    22   11   17 1   
    23   12   19 1   
    24   12   51 1   
    25   13   20 1   
    26   13   24 1   
    27   14   67 1   
    28   15   25 1   
    29   15   52 1   
    30   16   26 1   
    31   16   53 1   
    32   17   20 1   
    33   18   27 1   
    34   18   54 1   
    35   19   21 1   
    36   19   30 1   
    37   21   31 1   
    38   22   42 1   
    39   22   43 1   
    40   22   69 1   
    41   23   45 1   
    42   23   49 1   
    43   23   69 1   
    44   24   29 1   
    45   24   57 1   
    46   25   28 1   
    47   25   58 1   
    48   26   59 1   
    49   26   64 1   
    50   27   60 1   
    51   27   63 1   
    52   30   32 1   
    53   30   61 1   
    54   31   33 1   
    55   31   62 1   
    56   31   65 1   
    57   32   33 1   
    58   34   38 1   
    59   34   66 1   
    60   34   67 1   
    61   36   37 1   
    62   39   68 1   
    63   40   68 1   
    64   44   46 1   
    65   47   68 1   
    66   48   68 1   
    67   55   56 1   
@<TRIPOS>SUBSTRUCTURE
     1 BQ1         1 TEMP              0 ****  ****    0 ROOT
