@<TRIPOS>MOLECULE
BQ7
   23    23     1     0     0
SMALL
bcc


@<TRIPOS>ATOM
      1 C           0.0440    0.0340    0.1480 c         1 BQ7      0.923600
      2 N          -2.9770    0.0340   -0.1470 n4        1 BQ7     -0.865600
      3 O           1.2540   -0.1970    0.0810 o         1 BQ7     -0.736800
      4 O1         -0.6890    0.0980    1.1820 o         1 BQ7     -0.736800
      5 CA         -0.7340    0.2660   -1.2450 c3        1 BQ7      0.250600
      6 CB         -2.0900   -0.5730   -1.1870 c3        1 BQ7      0.115800
      7 CG         -2.8120   -0.7120   -2.4900 ca        1 BQ7     -0.152300
      8 FR         -0.9960    1.6000   -1.4750 f         1 BQ7     -0.229300
      9 FS          0.0010   -0.0990   -2.3390 f         1 BQ7     -0.229300
     10 CZ         -4.1500   -1.0110   -4.9250 ca        1 BQ7     -0.102000
     11 CD1        -3.0670   -1.9900   -2.9980 ca        1 BQ7     -0.104000
     12 CD2        -3.2230    0.4170   -3.2100 ca        1 BQ7     -0.104000
     13 CE1        -3.7330   -2.1370   -4.2140 ca        1 BQ7     -0.126500
     14 CE2        -3.8930    0.2650   -4.4220 ca        1 BQ7     -0.126500
     15 HB         -1.7770   -1.5910   -0.8040 hx        1 BQ7      0.120700
     16 HZ         -4.6740   -1.1290   -5.8850 ha        1 BQ7      0.143000
     17 HD1        -2.7280   -2.8830   -2.4500 ha        1 BQ7      0.143500
     18 HD2        -2.9820    1.4260   -2.8370 ha        1 BQ7      0.143500
     19 HE1        -3.9240   -3.1440   -4.6150 ha        1 BQ7      0.144500
     20 HE2        -4.2070    1.1550   -4.9890 ha        1 BQ7      0.144500
     21 HNA        -3.2830    0.9550   -0.4610 hn        1 BQ7      0.460467
     22 H2         -2.3820    0.1440    0.7360 hn        1 BQ7      0.460467
     23 HN         -3.7850   -0.5570    0.0220 hn        1 BQ7      0.460467
@<TRIPOS>BOND
     1    1    3 1   
     2    1    4 1   
     3    1    5 1   
     4    2    6 1   
     5    2   21 1   
     6    2   22 1   
     7    2   23 1   
     8    5    6 1   
     9    5    8 1   
    10    5    9 1   
    11    6    7 1   
    12    6   15 1   
    13    7   11 ar  
    14    7   12 ar  
    15   10   13 ar  
    16   10   14 ar  
    17   10   16 1   
    18   11   13 ar  
    19   11   17 1   
    20   12   14 ar  
    21   12   18 1   
    22   13   19 1   
    23   14   20 1   
@<TRIPOS>SUBSTRUCTURE
     1 BQ7         1 TEMP              0 ****  ****    0 ROOT
