@<TRIPOS>MOLECULE
BQ7
   23    23     1     0     0
SMALL
bcc


@<TRIPOS>ATOM
      1 C           0.0530    0.0460    0.1360 c         1 BQ7      0.923600
      2 N          -2.9700    0.0340   -0.1450 nz        1 BQ7     -0.865600
      3 O           1.2640   -0.1790    0.0640 o         1 BQ7     -0.736800
      4 O1         -0.6760    0.1080    1.1730 o         1 BQ7     -0.736800
      5 CA         -0.7320    0.2740   -1.2540 c3        1 BQ7      0.250600
      6 CB         -2.0850   -0.5700   -1.1890 c3        1 BQ7      0.115800
      7 CG         -2.8120   -0.7130   -2.4880 ca        1 BQ7     -0.152300
      8 FR         -1.0010    1.6070   -1.4840 f         1 BQ7     -0.229300
      9 FS         -0.0020   -0.0890   -2.3510 f         1 BQ7     -0.229300
     10 CZ         -4.1610   -1.0210   -4.9160 ca        1 BQ7     -0.102000
     11 CD1        -3.0650   -1.9940   -2.9940 ca        1 BQ7     -0.104000
     12 CD2        -3.2310    0.4130   -3.2070 ca        1 BQ7     -0.104000
     13 CE1        -3.7360   -2.1440   -4.2070 ca        1 BQ7     -0.126500
     14 CE2        -3.9060    0.2570   -4.4170 ca        1 BQ7     -0.126500
     15 HB         -1.7670   -1.5870   -0.8060 hx        1 BQ7      0.120700
     16 HZ         -4.6890   -1.1420   -5.8750 ha        1 BQ7      0.143000
     17 HD1        -2.7200   -2.8840   -2.4460 ha        1 BQ7      0.143500
     18 HD2        -2.9930    1.4230   -2.8370 ha        1 BQ7      0.143500
     19 HE1        -3.9240   -3.1520   -4.6060 ha        1 BQ7      0.144500
     20 HE2        -4.2260    1.1450   -4.9820 ha        1 BQ7      0.144500
     21 HNA        -3.2810    0.9530   -0.4590 hn        1 BQ7      0.460467
     22 H2         -3.7750   -0.5600    0.0280 hn        1 BQ7      0.460467
     23 HN         -2.3710    0.1470    0.7350 hn        1 BQ7      0.460467
@<TRIPOS>BOND
     1    1    3 1   
     2    1    4 1   
     3    1    5 1   
     4    2    6 1   
     5    2   21 1   
     6    2   22 1   
     7    2   23 1   
     8    5    6 1   
     9    5    8 1   
    10    5    9 1   
    11    6    7 1   
    12    6   15 1   
    13    7   11 ar  
    14    7   12 ar  
    15   10   13 ar  
    16   10   14 ar  
    17   10   16 1   
    18   11   13 ar  
    19   11   17 1   
    20   12   14 ar  
    21   12   18 1   
    22   13   19 1   
    23   14   20 1   
@<TRIPOS>SUBSTRUCTURE
     1 BQ7         1 TEMP              0 ****  ****    0 ROOT
