@<TRIPOS>MOLECULE
BQ7
   23    23     1     0     0
SMALL
bcc


@<TRIPOS>ATOM
      1 C           0.0570    0.0150    0.1400 c         1 BQ7      0.923600
      2 N          -2.9660    0.0510   -0.1500 n4        1 BQ7     -0.865600
      3 O           1.2640   -0.2290    0.0720 o         1 BQ7     -0.736800
      4 O1         -0.6740    0.0920    1.1750 o         1 BQ7     -0.736800
      5 CA         -0.7210    0.2500   -1.2530 c3        1 BQ7      0.250600
      6 CB         -2.0870   -0.5720   -1.1890 c3        1 BQ7      0.115800
      7 CG         -2.8130   -0.7080   -2.4900 ca        1 BQ7     -0.152300
      8 FR         -0.9670    1.5860   -1.4890 f         1 BQ7     -0.229300
      9 FS          0.0070   -0.1290   -2.3460 f         1 BQ7     -0.229300
     10 CZ         -4.1590   -1.0040   -4.9210 ca        1 BQ7     -0.102000
     11 CD1        -3.0840   -1.9860   -2.9910 ca        1 BQ7     -0.104000
     12 CD2        -3.2110    0.4210   -3.2150 ca        1 BQ7     -0.104000
     13 CE1        -3.7540   -2.1310   -4.2050 ca        1 BQ7     -0.126500
     14 CE2        -3.8850    0.2720   -4.4250 ca        1 BQ7     -0.126500
     15 HB         -1.7860   -1.5920   -0.8010 hx        1 BQ7      0.120700
     16 HZ         -4.6860   -1.1200   -5.8800 ha        1 BQ7      0.143000
     17 HD1        -2.7550   -2.8810   -2.4390 ha        1 BQ7      0.143500
     18 HD2        -2.9580    1.4290   -2.8470 ha        1 BQ7      0.143500
     19 HE1        -3.9580   -3.1380   -4.6010 ha        1 BQ7      0.144500
     20 HE2        -4.1890    1.1630   -4.9950 ha        1 BQ7      0.144500
     21 HNA        -3.7800   -0.5300    0.0220 hn        1 BQ7      0.460467
     22 H2         -3.2610    0.9730   -0.4680 hn        1 BQ7      0.460467
     23 HN         -2.3670    0.1570    0.7310 hn        1 BQ7      0.460467
@<TRIPOS>BOND
     1    1    3 1   
     2    1    4 1   
     3    1    5 1   
     4    2    6 1   
     5    2   21 1   
     6    2   22 1   
     7    2   23 1   
     8    5    6 1   
     9    5    8 1   
    10    5    9 1   
    11    6    7 1   
    12    6   15 1   
    13    7   11 ar  
    14    7   12 ar  
    15   10   13 ar  
    16   10   14 ar  
    17   10   16 1   
    18   11   13 ar  
    19   11   17 1   
    20   12   14 ar  
    21   12   18 1   
    22   13   19 1   
    23   14   20 1   
@<TRIPOS>SUBSTRUCTURE
     1 BQ7         1 TEMP              0 ****  ****    0 ROOT
