@<TRIPOS>MOLECULE
BQM
   50    52     1     0     0
SMALL
bcc


@<TRIPOS>ATOM
      1 F6         -0.1650    1.5890    0.3000 f         1 BQM     -0.224633
      2 C12         1.1310    1.1380    0.2440 c3        1 BQM      0.685200
      3 F4          1.4610    0.8420    1.5460 f         1 BQM     -0.224633
      4 F5          1.0220   -0.1080   -0.3210 f         1 BQM     -0.224633
      5 C11         2.1040    2.1120   -0.4370 ca        1 BQM     -0.127300
      6 C9          2.6110    3.2030    0.2920 ca        1 BQM     -0.092300
      7 C10         2.1070    3.5620    1.7000 c3        1 BQM      0.683200
      8 F3          2.9330    3.1350    2.7110 f         1 BQM     -0.229633
      9 F2          1.9740    4.9130    1.9240 f         1 BQM     -0.229633
     10 F1          0.8670    3.0860    2.0370 f         1 BQM     -0.229633
     11 C13         2.5020    1.9140   -1.7740 ca        1 BQM      0.024900
     12 S           1.8280    0.6770   -2.7170 ss        1 BQM     -0.044800
     13 C14         2.4260    0.8770   -4.3040 ca        1 BQM     -0.053100
     14 C19         3.6760    0.3730   -4.6630 ca        1 BQM     -0.142000
     15 C18         4.1090    0.4110   -6.0080 ca        1 BQM      0.130600
     16 N2          5.3980   -0.0040   -6.3540 nv        1 BQM     -0.820200
     17 C17         3.2370    0.9580   -6.9800 ca        1 BQM     -0.154000
     18 C16         1.9960    1.4570   -6.6080 ca        1 BQM     -0.107000
     19 C15         1.5850    1.4260   -5.2750 ca        1 BQM     -0.110000
     20 C20         3.4690    2.7770   -2.3190 ca        1 BQM     -0.134000
     21 C21         4.0290    3.7990   -1.5760 ca        1 BQM     -0.074000
     22 C8          3.6080    4.0270   -0.2570 ca        1 BQM     -0.052800
     23 C7          4.2580    5.0650    0.5340 ce        1 BQM     -0.085200
     24 C6          4.5130    6.3220    0.1600 cf        1 BQM     -0.184200
     25 C1          4.1880    6.9280   -1.1610 c         1 BQM      0.663300
     26 O1          4.9280    6.7490   -2.1520 o         1 BQM     -0.613100
     27 N1          3.0880    7.7640   -1.2410 n         1 BQM     -0.466800
     28 C5          2.7450    8.4270   -2.4800 c3        1 BQM      0.056000
     29 C4          1.2760    8.2300   -2.8780 c3        1 BQM      0.108400
     30 O2          0.3950    8.5200   -1.7980 os        1 BQM     -0.409600
     31 C3          0.6760    7.7350   -0.6450 c3        1 BQM      0.108400
     32 C2          2.1280    7.9080   -0.1730 c3        1 BQM      0.056000
     33 H19         4.3260   -0.0600   -3.8850 ha        1 BQM      0.146000
     34 HN2         5.5100   -0.2530   -7.3120 hn        1 BQM      0.395300
     35 HN2A        5.8090   -0.6540   -5.7230 hn        1 BQM      0.395300
     36 H17         3.5440    0.9980   -8.0370 ha        1 BQM      0.138000
     37 H16         1.3290    1.8820   -7.3740 ha        1 BQM      0.140000
     38 H15         0.6000    1.8250   -4.9900 ha        1 BQM      0.149000
     39 H20         3.8010    2.6320   -3.3630 ha        1 BQM      0.164000
     40 H21         4.8050    4.4520   -2.0180 ha        1 BQM      0.182000
     41 H7          4.5580    4.7340    1.5490 ha        1 BQM      0.151000
     42 H6          5.0390    7.0160    0.8390 ha        1 BQM      0.158000
     43 H5          3.4060    8.0470   -3.3090 h1        1 BQM      0.066950
     44 H5A         2.9380    9.5310   -2.3460 h1        1 BQM      0.066950
     45 H4          1.0970    7.1830   -3.2390 h1        1 BQM      0.058450
     46 H4A         0.9930    8.9670   -3.6740 h1        1 BQM      0.058450
     47 H3         -0.0290    8.1230    0.1360 h1        1 BQM      0.058450
     48 H3A         0.4540    6.6560   -0.8620 h1        1 BQM      0.058450
     49 H2          2.3250    7.1560    0.6430 h1        1 BQM      0.066950
     50 H2A         2.2410    8.9440    0.2610 h1        1 BQM      0.066950
@<TRIPOS>BOND
     1    1    2 1   
     2    2    3 1   
     3    2    4 1   
     4    2    5 1   
     5    5    6 ar  
     6    5   11 ar  
     7    6    7 1   
     8    6   22 ar  
     9    7    8 1   
    10    7    9 1   
    11    7   10 1   
    12   11   12 1   
    13   11   20 ar  
    14   12   13 1   
    15   13   14 ar  
    16   13   19 ar  
    17   14   15 ar  
    18   14   33 1   
    19   15   16 1   
    20   15   17 ar  
    21   16   34 1   
    22   16   35 1   
    23   17   18 ar  
    24   17   36 1   
    25   18   19 ar  
    26   18   37 1   
    27   19   38 1   
    28   20   21 ar  
    29   20   39 1   
    30   21   22 ar  
    31   21   40 1   
    32   22   23 1   
    33   23   24 2   
    34   23   41 1   
    35   24   25 1   
    36   24   42 1   
    37   25   26 2   
    38   25   27 1   
    39   27   28 1   
    40   27   32 1   
    41   28   29 1   
    42   28   43 1   
    43   28   44 1   
    44   29   30 1   
    45   29   45 1   
    46   29   46 1   
    47   30   31 1   
    48   31   32 1   
    49   31   47 1   
    50   31   48 1   
    51   32   49 1   
    52   32   50 1   
@<TRIPOS>SUBSTRUCTURE
     1 BQM         1 TEMP              0 ****  ****    0 ROOT
