@<TRIPOS>MOLECULE
BQM
   51    53     1     0     0
SMALL
bcc


@<TRIPOS>ATOM
      1 F6          0.4910    1.1450   -0.7850 f         1 BQM     -0.221967
      2 C12         1.8410    1.1460   -1.0020 c3        1 BQM      0.682200
      3 F4          2.4030    0.7480    0.1860 f         1 BQM     -0.221967
      4 F5          2.0790    0.0500   -1.8000 f         1 BQM     -0.221967
      5 C11         2.4070    2.4650   -1.5640 ca        1 BQM     -0.058300
      6 C9          2.9880    3.4110   -0.7060 ca        1 BQM     -0.133300
      7 C10         2.8290    3.3330    0.8230 c3        1 BQM      0.688200
      8 F3          3.8700    2.6950    1.4510 f         1 BQM     -0.219967
      9 F2          2.7440    4.5520    1.4480 f         1 BQM     -0.219967
     10 F1          1.6960    2.6920    1.2510 f         1 BQM     -0.219967
     11 C13         2.3760    2.7060   -2.9490 ca        1 BQM     -0.080100
     12 S           1.3410    1.9460   -4.0800 ss        1 BQM      0.002200
     13 C14         2.2020    0.7320   -4.8650 ca        1 BQM     -0.002100
     14 C19         3.4260    0.1970   -4.4570 ca        1 BQM     -0.126000
     15 C18         3.9960   -0.8600   -5.1880 ca        1 BQM     -0.049400
     16 N2          5.2610   -1.4340   -4.7220 n4        1 BQM     -0.702000
     17 C17         3.3720   -1.3820   -6.3280 ca        1 BQM     -0.115000
     18 C16         2.1500   -0.8330   -6.7280 ca        1 BQM     -0.084000
     19 C15         1.5710    0.2050   -6.0110 ca        1 BQM     -0.072000
     20 C20         3.0670    3.8120   -3.4620 ca        1 BQM     -0.055000
     21 C21         3.7650    4.6740   -2.6260 ca        1 BQM     -0.111000
     22 C8          3.7210    4.4930   -1.2370 ca        1 BQM      0.028200
     23 C7          4.4900    5.3790   -0.3710 ce        1 BQM     -0.124200
     24 C6          4.5290    6.7140   -0.4070 cf        1 BQM     -0.143200
     25 C1          3.7850    7.5920   -1.3550 c         1 BQM      0.654300
     26 O1          4.1170    7.6580   -2.5600 o         1 BQM     -0.619100
     27 N1          2.7460    8.3480   -0.8580 n         1 BQM     -0.459800
     28 C5          2.0870    9.3390   -1.6830 c3        1 BQM      0.054000
     29 C4          0.5760    9.4110   -1.4250 c3        1 BQM      0.112900
     30 O2          0.2850    9.5110   -0.0360 os        1 BQM     -0.399600
     31 C3          0.8230    8.4280    0.7090 c3        1 BQM      0.112900
     32 C2          2.3450    8.3100    0.5300 c3        1 BQM      0.054000
     33 H19         3.9100    0.5930   -3.5490 ha        1 BQM      0.157000
     34 HN2         5.9790   -0.7030   -4.6830 hn        1 BQM      0.463467
     35 HN2A        5.1300   -1.8280   -3.7830 hn        1 BQM      0.463467
     36 H17         3.8130   -2.2070   -6.9110 ha        1 BQM      0.157000
     37 H16         1.6460   -1.2360   -7.6230 ha        1 BQM      0.175000
     38 H15         0.6020    0.6260   -6.3370 ha        1 BQM      0.178000
     39 H20         3.0450    4.0110   -4.5480 ha        1 BQM      0.168000
     40 H21         4.3290    5.5290   -3.0490 ha        1 BQM      0.204000
     41 H7          5.0890    4.8430    0.3930 ha        1 BQM      0.158000
     42 H6          5.1760    7.2720    0.2960 ha        1 BQM      0.167000
     43 H5          2.2670    9.1010   -2.7690 h1        1 BQM      0.066700
     44 H5A         2.5410   10.3480   -1.4600 h1        1 BQM      0.066700
     45 H4          0.1580   10.3530   -1.8670 h1        1 BQM      0.062200
     46 H4A         0.0540    8.5160   -1.8560 h1        1 BQM      0.062200
     47 H3          0.5850    8.6750    1.7780 h1        1 BQM      0.062200
     48 H3A         0.3150    7.4740    0.4100 h1        1 BQM      0.062200
     49 H2          2.6810    7.3450    1.0060 h1        1 BQM      0.066700
     50 H2A         2.8390    9.1680    1.0740 h1        1 BQM      0.066700
     51 H23         5.5670   -2.1760   -5.3600 hn        1 BQM      0.463467
@<TRIPOS>BOND
     1    1    2 1   
     2    2    3 1   
     3    2    4 1   
     4    2    5 1   
     5    5    6 ar  
     6    5   11 ar  
     7    6    7 1   
     8    6   22 ar  
     9    7    8 1   
    10    7    9 1   
    11    7   10 1   
    12   11   12 1   
    13   11   20 ar  
    14   12   13 1   
    15   13   14 ar  
    16   13   19 ar  
    17   14   15 ar  
    18   14   33 1   
    19   15   16 1   
    20   15   17 ar  
    21   16   34 1   
    22   16   35 1   
    23   16   51 1   
    24   17   18 ar  
    25   17   36 1   
    26   18   19 ar  
    27   18   37 1   
    28   19   38 1   
    29   20   21 ar  
    30   20   39 1   
    31   21   22 ar  
    32   21   40 1   
    33   22   23 1   
    34   23   24 2   
    35   23   41 1   
    36   24   25 1   
    37   24   42 1   
    38   25   26 2   
    39   25   27 1   
    40   27   28 1   
    41   27   32 1   
    42   28   29 1   
    43   28   43 1   
    44   28   44 1   
    45   29   30 1   
    46   29   45 1   
    47   29   46 1   
    48   30   31 1   
    49   31   32 1   
    50   31   47 1   
    51   31   48 1   
    52   32   49 1   
    53   32   50 1   
@<TRIPOS>SUBSTRUCTURE
     1 BQM         1 TEMP              0 ****  ****    0 ROOT
