@<TRIPOS>MOLECULE
BQM
   50    52     1     0     0
SMALL
bcc


@<TRIPOS>ATOM
      1 F6          0.8640   -0.5730    0.1180 f         1 BQM     -0.223967
      2 C12         2.1390   -0.0850    0.2450 c3        1 BQM      0.685200
      3 F4          2.4270   -0.1790    1.5860 f         1 BQM     -0.223967
      4 F5          2.9310   -1.0710   -0.2900 f         1 BQM     -0.223967
      5 C11         2.3380    1.3240   -0.3370 ca        1 BQM     -0.117300
      6 C9          1.9980    2.4500    0.4340 ca        1 BQM     -0.087300
      7 C10         1.2370    2.3250    1.7650 c3        1 BQM      0.682200
      8 F3          2.0460    2.4050    2.8730 f         1 BQM     -0.226967
      9 F2          0.2870    3.2970    1.9740 f         1 BQM     -0.226967
     10 F1          0.5200    1.1690    1.9380 f         1 BQM     -0.226967
     11 C13         2.8790    1.4890   -1.6270 ca        1 BQM      0.019900
     12 S           3.1940    0.1600   -2.6330 ss        1 BQM     -0.034800
     13 C14         3.3810    0.7570   -4.2190 ca        1 BQM     -0.038100
     14 C19         4.4820    0.2700   -4.9230 ca        1 BQM     -0.150000
     15 C18         4.6530    0.5760   -6.2930 ca        1 BQM      0.139600
     16 N2          5.7950    0.1540   -6.9800 nh        1 BQM     -0.820200
     17 C17         3.6890    1.3960   -6.9260 ca        1 BQM     -0.169000
     18 C16         2.6060    1.8860   -6.2060 ca        1 BQM     -0.096000
     19 C15         2.4410    1.5690   -4.8600 ca        1 BQM     -0.140000
     20 C20         3.1760    2.7910   -2.0630 ca        1 BQM     -0.127000
     21 C21         2.9370    3.8930   -1.2630 ca        1 BQM     -0.075000
     22 C8          2.3350    3.7440   -0.0040 ca        1 BQM     -0.034800
     23 C7          2.1220    4.9120    0.8390 ce        1 BQM     -0.068200
     24 C6          1.7690    6.1440    0.4600 cf        1 BQM     -0.194200
     25 C1          1.4280    6.5880   -0.9180 c         1 BQM      0.650300
     26 O1          0.4070    6.1740   -1.5020 o         1 BQM     -0.580100
     27 N1          2.2910    7.4760   -1.5600 n         1 BQM     -0.467800
     28 C5          1.8890    8.1110   -2.7990 c3        1 BQM      0.048500
     29 C4          1.7270    9.6320   -2.6740 c3        1 BQM      0.101900
     30 O2          2.8620   10.2370   -2.0610 os        1 BQM     -0.409600
     31 C3          3.1570    9.6790   -0.7870 c3        1 BQM      0.101900
     32 C2          3.3620    8.1580   -0.8710 c3        1 BQM      0.048500
     33 H19         5.2230   -0.3560   -4.3990 ha        1 BQM      0.148000
     34 HN2         6.2400   -0.6480   -6.5930 hn        1 BQM      0.394800
     35 HN2A        5.6920    0.1140   -7.9690 hn        1 BQM      0.394800
     36 H17         3.7960    1.6550   -7.9900 ha        1 BQM      0.137000
     37 H16         1.8640    2.5250   -6.7090 ha        1 BQM      0.139000
     38 H15         1.5700    1.9500   -4.3060 ha        1 BQM      0.147000
     39 H20         3.6220    2.9400   -3.0630 ha        1 BQM      0.162000
     40 H21         3.2130    4.8980   -1.6190 ha        1 BQM      0.157000
     41 H7          2.2790    4.7220    1.9220 ha        1 BQM      0.148000
     42 H6          1.6350    6.9350    1.2200 ha        1 BQM      0.151000
     43 H5          0.9190    7.6670   -3.1600 h1        1 BQM      0.068450
     44 H5A         2.6910    7.8950   -3.5620 h1        1 BQM      0.068450
     45 H4          0.8050    9.8890   -2.0890 h1        1 BQM      0.058200
     46 H4A         1.6790   10.1000   -3.6920 h1        1 BQM      0.058200
     47 H3          4.1110   10.1790   -0.4770 h1        1 BQM      0.058200
     48 H3A         2.3360    9.9320   -0.0660 h1        1 BQM      0.058200
     49 H2          4.3110    7.9600   -1.4500 h1        1 BQM      0.068450
     50 H2A         3.4970    7.7520    0.1680 h1        1 BQM      0.068450
@<TRIPOS>BOND
     1    1    2 1   
     2    2    3 1   
     3    2    4 1   
     4    2    5 1   
     5    5    6 ar  
     6    5   11 ar  
     7    6    7 1   
     8    6   22 ar  
     9    7    8 1   
    10    7    9 1   
    11    7   10 1   
    12   11   12 1   
    13   11   20 ar  
    14   12   13 1   
    15   13   14 ar  
    16   13   19 ar  
    17   14   15 ar  
    18   14   33 1   
    19   15   16 1   
    20   15   17 ar  
    21   16   34 1   
    22   16   35 1   
    23   17   18 ar  
    24   17   36 1   
    25   18   19 ar  
    26   18   37 1   
    27   19   38 1   
    28   20   21 ar  
    29   20   39 1   
    30   21   22 ar  
    31   21   40 1   
    32   22   23 1   
    33   23   24 2   
    34   23   41 1   
    35   24   25 1   
    36   24   42 1   
    37   25   26 2   
    38   25   27 1   
    39   27   28 1   
    40   27   32 1   
    41   28   29 1   
    42   28   43 1   
    43   28   44 1   
    44   29   30 1   
    45   29   45 1   
    46   29   46 1   
    47   30   31 1   
    48   31   32 1   
    49   31   47 1   
    50   31   48 1   
    51   32   49 1   
    52   32   50 1   
@<TRIPOS>SUBSTRUCTURE
     1 BQM         1 TEMP              0 ****  ****    0 ROOT
