@<TRIPOS>MOLECULE
BQM
   50    52     1     0     0
SMALL
bcc


@<TRIPOS>ATOM
      1 F6         -1.6600    2.0610   -2.6550 f         1 BQM     -0.223967
      2 C12        -1.7640    2.0220   -1.2860 c3        1 BQM      0.685200
      3 F4         -1.1860    3.1910   -0.8500 f         1 BQM     -0.223967
      4 F5         -3.0970    2.2480   -1.0500 f         1 BQM     -0.223967
      5 C11        -1.1660    0.7580   -0.6480 ca        1 BQM     -0.123300
      6 C9          0.2240    0.6790   -0.4420 ca        1 BQM     -0.090300
      7 C10         1.1980    1.7320   -0.9960 c3        1 BQM      0.684200
      8 F3          1.6220    2.6450   -0.0620 f         1 BQM     -0.228967
      9 F2          2.3640    1.2070   -1.5060 f         1 BQM     -0.228967
     10 F1          0.7380    2.4900   -2.0410 f         1 BQM     -0.228967
     11 C13        -1.9980   -0.3080   -0.2550 ca        1 BQM      0.023900
     12 S          -3.6590   -0.3010   -0.5960 ss        1 BQM     -0.039800
     13 C14        -4.2690   -1.8260   -0.1320 ca        1 BQM     -0.054100
     14 C19        -4.6050   -2.0850    1.1970 ca        1 BQM     -0.143000
     15 C18        -5.2420   -3.2950    1.5560 ca        1 BQM      0.129600
     16 N2         -5.4890   -3.6010    2.8970 nh        1 BQM     -0.820200
     17 C17        -5.5440   -4.2260    0.5320 ca        1 BQM     -0.154000
     18 C16        -5.2040   -3.9540   -0.7860 ca        1 BQM     -0.107000
     19 C15        -4.5620   -2.7630   -1.1260 ca        1 BQM     -0.110000
     20 C20        -1.4170   -1.3940    0.4240 ca        1 BQM     -0.133000
     21 C21        -0.0660   -1.4290    0.7070 ca        1 BQM     -0.079000
     22 C8          0.7790   -0.3920    0.2760 ca        1 BQM     -0.041800
     23 C7          2.1930   -0.4420    0.6300 ce        1 BQM     -0.093200
     24 C6          2.9040   -1.5750    0.6640 cf        1 BQM     -0.179200
     25 C1          4.3110   -1.6410    1.1490 c         1 BQM      0.662300
     26 O1          4.5540   -2.0320    2.3100 o         1 BQM     -0.599100
     27 N1          5.3380   -1.3100    0.2860 n         1 BQM     -0.471800
     28 C5          5.1320   -0.8620   -1.0700 c3        1 BQM      0.057500
     29 C4          6.0370    0.3210   -1.4490 c3        1 BQM      0.110900
     30 O2          7.3970    0.0810   -1.1100 os        1 BQM     -0.410600
     31 C3          7.5650   -0.2120    0.2730 c3        1 BQM      0.110900
     32 C2          6.7190   -1.4170    0.7060 c3        1 BQM      0.057500
     33 H19        -4.3720   -1.3330    1.9680 ha        1 BQM      0.146000
     34 HN2        -5.5630   -2.8090    3.4970 hn        1 BQM      0.395800
     35 HN2A       -6.2040   -4.2780    3.0430 hn        1 BQM      0.395800
     36 H17        -6.0450   -5.1750    0.7800 ha        1 BQM      0.139000
     37 H16        -5.4440   -4.6870   -1.5720 ha        1 BQM      0.140000
     38 H15        -4.2950   -2.5570   -2.1740 ha        1 BQM      0.150000
     39 H20        -2.0550   -2.2340    0.7520 ha        1 BQM      0.162000
     40 H21         0.3590   -2.2710    1.2780 ha        1 BQM      0.156000
     41 H7          2.6510    0.5310    0.8890 ha        1 BQM      0.153000
     42 H6          2.4840   -2.5580    0.3980 ha        1 BQM      0.154000
     43 H5          5.3550   -1.7210   -1.7680 h1        1 BQM      0.064700
     44 H5A         4.0610   -0.5490   -1.2200 h1        1 BQM      0.064700
     45 H4          6.0450    0.4520   -2.5630 h1        1 BQM      0.058950
     46 H4A         5.6850    1.2640   -0.9530 h1        1 BQM      0.058950
     47 H3          8.6550   -0.4520    0.3780 h1        1 BQM      0.058950
     48 H3A         7.3090    0.6950    0.8830 h1        1 BQM      0.058950
     49 H2          6.7660   -1.5170    1.8270 h1        1 BQM      0.064700
     50 H2A         7.1580   -2.3490    0.2460 h1        1 BQM      0.064700
@<TRIPOS>BOND
     1    1    2 1   
     2    2    3 1   
     3    2    4 1   
     4    2    5 1   
     5    5    6 ar  
     6    5   11 ar  
     7    6    7 1   
     8    6   22 ar  
     9    7    8 1   
    10    7    9 1   
    11    7   10 1   
    12   11   12 1   
    13   11   20 ar  
    14   12   13 1   
    15   13   14 ar  
    16   13   19 ar  
    17   14   15 ar  
    18   14   33 1   
    19   15   16 1   
    20   15   17 ar  
    21   16   34 1   
    22   16   35 1   
    23   17   18 ar  
    24   17   36 1   
    25   18   19 ar  
    26   18   37 1   
    27   19   38 1   
    28   20   21 ar  
    29   20   39 1   
    30   21   22 ar  
    31   21   40 1   
    32   22   23 1   
    33   23   24 2   
    34   23   41 1   
    35   24   25 1   
    36   24   42 1   
    37   25   26 2   
    38   25   27 1   
    39   27   28 1   
    40   27   32 1   
    41   28   29 1   
    42   28   43 1   
    43   28   44 1   
    44   29   30 1   
    45   29   45 1   
    46   29   46 1   
    47   30   31 1   
    48   31   32 1   
    49   31   47 1   
    50   31   48 1   
    51   32   49 1   
    52   32   50 1   
@<TRIPOS>SUBSTRUCTURE
     1 BQM         1 TEMP              0 ****  ****    0 ROOT
