@<TRIPOS>MOLECULE
BQM
   50    47     1     0     0
SMALL
bcc


@<TRIPOS>ATOM
      1 F6         -3.7500    3.3410   -0.3280 f         1 BQM     -0.155667
      2 C12        -2.4010    3.2330   -0.0860 c3        1 BQM      0.463000
      3 F4         -2.1980    3.1310    1.2020 f         1 BQM     -0.155667
      4 F5         -1.7830    4.3080   -0.5470 f         1 BQM     -0.155667
      5 C11        -1.8520    1.9780   -0.7910 c2        1 BQM     -0.101500
      6 C9         -2.4390    0.7470   -0.5550 c2        1 BQM     -0.101500
      7 C10        -3.6140    0.6430    0.4150 c3        1 BQM      0.463000
      8 F3         -3.7030   -0.5710    0.8630 f         1 BQM     -0.155667
      9 F2         -3.4180    1.4710    1.4270 f         1 BQM     -0.155667
     10 F1         -4.7830    0.9800   -0.2370 f         1 BQM     -0.155667
     11 C13        -0.8270    2.0960   -1.7300 c1        1 BQM     -0.121000
     12 S          -0.1210    3.6590   -2.0610 s         1 BQM      0.415000
     13 C14         1.6790    3.5880   -1.7780 c2        1 BQM     -0.279000
     14 C19         2.2160    4.0920   -0.6030 c2        1 BQM     -0.133000
     15 C18         3.6240    4.0890   -0.4070 c1        1 BQM      0.051000
     16 N2          4.1770    4.6010    0.7990 n2        1 BQM     -0.330000
     17 C17         4.4640    3.5820   -1.3940 c2        1 BQM     -0.156000
     18 C16         3.9300    3.0790   -2.5660 c1        1 BQM     -0.106000
     19 C15         2.5210    3.0800   -2.7650 c1        1 BQM     -0.121000
     20 C20        -0.3990    0.9860   -2.4230 c2        1 BQM     -0.114000
     21 C21        -0.9870   -0.2490   -2.1880 c1        1 BQM     -0.122000
     22 C8         -2.0090   -0.3670   -1.2510 c1        1 BQM     -0.121000
     23 C7         -2.7280   -1.6790   -1.0940 c2        1 BQM     -0.114000
     24 C6         -2.1000   -2.7620   -0.3990 c1        1 BQM     -0.122000
     25 C1         -0.7020   -2.5880    0.1850 c1        1 BQM      0.334000
     26 O1          0.1040   -2.0050   -0.4100 o         1 BQM     -0.372000
     27 N1         -0.3500   -3.2460    1.4230 n3        1 BQM     -0.318000
     28 C5          0.9520   -3.2150    1.9700 c3        1 BQM     -0.064000
     29 C4          1.4630   -4.6070    2.3220 c3        1 BQM     -0.045500
     30 O2          0.5310   -5.3400    3.1370 os        1 BQM     -0.266000
     31 C3         -0.7960   -5.3620    2.5700 c3        1 BQM     -0.045500
     32 C2         -1.2950   -3.9780    2.2200 c3        1 BQM     -0.064000
     33 H19         1.6030    4.4620    0.1180 ha        1 BQM      0.149000
     34 HN2         5.0940    4.6670    0.8940 hn        1 BQM      0.191500
     35 HN2A        3.6080    4.8040    1.5340 hn        1 BQM      0.191500
     36 H17         5.4620    3.5810   -1.2530 ha        1 BQM      0.138000
     37 H16         4.5150    2.7270   -3.2490 ha        1 BQM      0.140000
     38 H15         2.1420    2.7220   -3.6000 ha        1 BQM      0.146000
     39 H20         0.3130    1.0670   -3.0750 ha        1 BQM      0.155500
     40 H21        -0.6840   -1.0350   -2.6800 ha        1 BQM      0.167000
     41 H7         -3.5750   -1.7870   -1.4480 ha        1 BQM      0.155500
     42 H6         -2.5470   -3.5770   -0.3030 ha        1 BQM      0.167000
     43 H5          1.5770   -2.7970    1.3070 h1        1 BQM      0.109500
     44 H5A         0.9390   -2.6790    2.7720 h1        1 BQM      0.109500
     45 H4          1.6140   -5.0980    1.5110 h1        1 BQM      0.096750
     46 H4A         2.3260   -4.5210    2.8110 h1        1 BQM      0.096750
     47 H3         -0.7880   -5.9300    1.7350 h1        1 BQM      0.096750
     48 H3A        -1.4230   -5.7710    3.2340 h1        1 BQM      0.096750
     49 H2         -2.1160   -4.0600    1.7320 h1        1 BQM      0.109500
     50 H2A        -1.4650   -3.4890    3.0380 h1        1 BQM      0.109500
@<TRIPOS>BOND
     1    1    2 1   
     2    2    3 1   
     3    2    4 1   
     4    2    5 1   
     5    5    6 1   
     6    5   11 1   
     7    6    7 1   
     8    6   22 1   
     9    7    8 1   
    10    7    9 1   
    11    7   10 1   
    12   11   20 1   
    13   12   13 1   
    14   13   14 1   
    15   13   19 1   
    16   14   15 1   
    17   14   33 1   
    18   15   17 1   
    19   16   34 1   
    20   16   35 1   
    21   17   18 1   
    22   17   36 1   
    23   18   37 1   
    24   19   38 1   
    25   20   21 1   
    26   20   39 1   
    27   21   40 1   
    28   22   23 1   
    29   23   24 1   
    30   23   41 1   
    31   24   42 1   
    32   25   26 1   
    33   25   27 1   
    34   27   28 1   
    35   27   32 1   
    36   28   29 1   
    37   28   43 1   
    38   28   44 1   
    39   29   30 1   
    40   29   45 1   
    41   29   46 1   
    42   30   31 1   
    43   31   32 1   
    44   31   47 1   
    45   31   48 1   
    46   32   49 1   
    47   32   50 1   
@<TRIPOS>SUBSTRUCTURE
     1 BQM         1 TEMP              0 ****  ****    0 ROOT
