@<TRIPOS>MOLECULE
BQN
   61    64     1     0     0
SMALL
bcc


@<TRIPOS>ATOM
      1 F6          0.0830   -0.5010    0.3160 f         1 BQN     -0.225300
      2 C12         1.4260   -0.2280    0.3790 c3        1 BQN      0.684200
      3 F4          1.7550   -0.3560    1.7080 f         1 BQN     -0.225300
      4 F5          2.0150   -1.3400   -0.1730 f         1 BQN     -0.225300
      5 C11         1.8280    1.1220   -0.2340 ca        1 BQN     -0.126300
      6 C9          1.6790    2.2990    0.5210 ca        1 BQN     -0.085300
      7 C10         0.9470    2.3120    1.8750 c3        1 BQN      0.682200
      8 F3          1.7920    2.2990    2.9590 f         1 BQN     -0.227967
      9 F2          0.1500    3.4120    2.0840 f         1 BQN     -0.227967
     10 F1          0.0810    1.2730    2.0990 f         1 BQN     -0.227967
     11 C13         2.3620    1.1820   -1.5360 ca        1 BQN      0.024900
     12 S           2.4160   -0.1920   -2.5270 ss        1 BQN     -0.016800
     13 C14         2.8250    0.3070   -4.1020 ca        1 BQN     -0.123100
     14 C19         4.1320    0.6010   -4.5500 ca        1 BQN      0.179100
     15 O3          5.0920    0.7040   -3.5670 os        1 BQN     -0.324900
     16 C20         6.4580    0.7180   -4.0180 c3        1 BQN      0.182700
     17 C21         7.3230    0.5940   -2.8130 ca        1 BQN     -0.219600
     18 C25         6.9440   -0.1640   -1.6980 ca        1 BQN     -0.063000
     19 C24         7.8230   -0.2580   -0.6180 ca        1 BQN     -0.244300
     20 C23         9.0570    0.4130   -0.6950 ca        1 BQN      0.399200
     21 N2          9.4380    1.1490   -1.7580 nb        1 BQN     -0.663000
     22 C22         8.5800    1.2360   -2.7900 ca        1 BQN      0.402200
     23 C18         4.3950    0.8090   -5.9130 ca        1 BQN     -0.220000
     24 C17         3.3530    0.7330   -6.8330 ca        1 BQN     -0.056000
     25 C16         2.0530    0.4600   -6.4060 ca        1 BQN     -0.177000
     26 C15         1.7970    0.2600   -5.0530 ca        1 BQN     -0.036000
     27 C26         2.8380    2.4180   -2.0040 ca        1 BQN     -0.120000
     28 C27         2.7790    3.5570   -1.2240 ca        1 BQN     -0.074000
     29 C8          2.1910    3.5210    0.0500 ca        1 BQN     -0.040800
     30 C7          2.1720    4.7230    0.8730 ce        1 BQN     -0.066200
     31 C6          1.9910    5.9860    0.4770 cf        1 BQN     -0.196200
     32 C1          1.6730    6.4530   -0.8990 c         1 BQN      0.652300
     33 O1          0.5780    6.2010   -1.4370 o         1 BQN     -0.580100
     34 N1          2.6430    7.1770   -1.5910 n         1 BQN     -0.469800
     35 C5          2.3050    7.8420   -2.8330 c3        1 BQN      0.049500
     36 C4          2.4030    9.3720   -2.7460 c3        1 BQN      0.101900
     37 O2          3.6460    9.7920   -2.1910 os        1 BQN     -0.409600
     38 C3          3.8930    9.2210   -0.9120 c3        1 BQN      0.101900
     39 C2          3.8380    7.6860   -0.9580 c3        1 BQN      0.049500
     40 H20         6.6510    1.6850   -4.5550 h1        1 BQN      0.054200
     41 H20A        6.6320   -0.1470   -4.7150 h1        1 BQN      0.054200
     42 H25         5.9640   -0.6660   -1.6790 ha        1 BQN      0.160000
     43 H24         7.5600   -0.8410    0.2740 ha        1 BQN      0.150000
     44 H23         9.7820    0.3630    0.1370 h4        1 BQN      0.025100
     45 H22         8.9170    1.8490   -3.6450 h4        1 BQN      0.020100
     46 H18         5.4120    1.0310   -6.2630 ha        1 BQN      0.144000
     47 H17         3.5590    0.8930   -7.9020 ha        1 BQN      0.140000
     48 H16         1.2320    0.4070   -7.1350 ha        1 BQN      0.145000
     49 H15         0.7680    0.0480   -4.7140 ha        1 BQN      0.154000
     50 H26         3.2900    2.4770   -3.0100 ha        1 BQN      0.157000
     51 H27         3.1920    4.5050   -1.6060 ha        1 BQN      0.156000
     52 H7          2.3330    4.5310    1.9540 ha        1 BQN      0.147000
     53 H6          1.9960    6.8020    1.2230 ha        1 BQN      0.150000
     54 H5          1.2620    7.5590   -3.1470 h1        1 BQN      0.067700
     55 H5A         3.0290    7.4790   -3.6180 h1        1 BQN      0.067700
     56 H4          1.5600    9.7930   -2.1370 h1        1 BQN      0.057950
     57 H4A         2.3950    9.8180   -3.7750 h1        1 BQN      0.057950
     58 H3          3.1540    9.6250   -0.1710 h1        1 BQN      0.057950
     59 H3A         4.9280    9.5620   -0.6490 h1        1 BQN      0.057950
     60 H2          4.7200    7.3180   -1.5610 h1        1 BQN      0.067700
     61 H2A         3.9410    7.2880    0.0880 h1        1 BQN      0.067700
@<TRIPOS>BOND
     1    1    2 1   
     2    2    3 1   
     3    2    4 1   
     4    2    5 1   
     5    5    6 ar  
     6    5   11 ar  
     7    6    7 1   
     8    6   29 ar  
     9    7    8 1   
    10    7    9 1   
    11    7   10 1   
    12   11   12 1   
    13   11   27 ar  
    14   12   13 1   
    15   13   14 ar  
    16   13   26 ar  
    17   14   15 1   
    18   14   23 ar  
    19   15   16 1   
    20   16   17 1   
    21   16   40 1   
    22   16   41 1   
    23   17   18 ar  
    24   17   22 ar  
    25   18   19 ar  
    26   18   42 1   
    27   19   20 ar  
    28   19   43 1   
    29   20   21 ar  
    30   20   44 1   
    31   21   22 ar  
    32   22   45 1   
    33   23   24 ar  
    34   23   46 1   
    35   24   25 ar  
    36   24   47 1   
    37   25   26 ar  
    38   25   48 1   
    39   26   49 1   
    40   27   28 ar  
    41   27   50 1   
    42   28   29 ar  
    43   28   51 1   
    44   29   30 1   
    45   30   31 2   
    46   30   52 1   
    47   31   32 1   
    48   31   53 1   
    49   32   33 2   
    50   32   34 1   
    51   34   35 1   
    52   34   39 1   
    53   35   36 1   
    54   35   54 1   
    55   35   55 1   
    56   36   37 1   
    57   36   56 1   
    58   36   57 1   
    59   37   38 1   
    60   38   39 1   
    61   38   58 1   
    62   38   59 1   
    63   39   60 1   
    64   39   61 1   
@<TRIPOS>SUBSTRUCTURE
     1 BQN         1 TEMP              0 ****  ****    0 ROOT
