@<TRIPOS>MOLECULE
BQN
   61    64     1     0     0
SMALL
bcc


@<TRIPOS>ATOM
      1 F6         -0.4350    2.3940   -3.1710 f         1 BQN     -0.224633
      2 C12        -0.8160    2.1700   -1.8720 c3        1 BQN      0.684200
      3 F4         -0.3880    3.2760   -1.1770 f         1 BQN     -0.224633
      4 F5         -2.1780    2.3480   -1.8930 f         1 BQN     -0.224633
      5 C11        -0.3170    0.8380   -1.2910 ca        1 BQN     -0.125300
      6 C9          1.0020    0.7450   -0.8080 ca        1 BQN     -0.091300
      7 C10         2.0300    1.8710   -1.0050 c3        1 BQN      0.684200
      8 F3          2.2200    2.6530    0.1070 f         1 BQN     -0.229300
      9 F2          3.2940    1.4290   -1.3250 f         1 BQN     -0.229300
     10 F1          1.7670    2.7590   -2.0160 f         1 BQN     -0.229300
     11 C13        -1.1740   -0.2780   -1.2230 ca        1 BQN      0.022900
     12 S          -2.7180   -0.2430   -1.9180 ss        1 BQN     -0.011800
     13 C14        -3.3480   -1.8220   -1.8920 ca        1 BQN     -0.127100
     14 C19        -3.9310   -2.4490   -0.7680 ca        1 BQN      0.181100
     15 O3         -3.7570   -1.8020    0.4340 os        1 BQN     -0.323900
     16 C20        -4.5720   -2.2660    1.5260 c3        1 BQN      0.183700
     17 C21        -4.4130   -1.2960    2.6430 ca        1 BQN     -0.221600
     18 C25        -4.2110    0.0710    2.4230 ca        1 BQN     -0.063000
     19 C24        -4.1020    0.9220    3.5240 ca        1 BQN     -0.244300
     20 C23        -4.2040    0.3700    4.8130 ca        1 BQN      0.401200
     21 N2         -4.3980   -0.9440    5.0450 nb        1 BQN     -0.662000
     22 C22        -4.4950   -1.7540    3.9760 ca        1 BQN      0.403200
     23 C18        -4.6020   -3.6750   -0.8970 ca        1 BQN     -0.219000
     24 C17        -4.6900   -4.2820   -2.1460 ca        1 BQN     -0.054000
     25 C16        -4.1080   -3.6850   -3.2640 ca        1 BQN     -0.178000
     26 C15        -3.4380   -2.4720   -3.1300 ca        1 BQN     -0.038000
     27 C26        -0.7110   -1.4350   -0.5720 ca        1 BQN     -0.122000
     28 C27         0.5530   -1.4960   -0.0180 ca        1 BQN     -0.080000
     29 C8          1.4330   -0.4070   -0.1320 ca        1 BQN     -0.042800
     30 C7          2.7470   -0.4950    0.4970 ce        1 BQN     -0.092200
     31 C6          3.4720   -1.6170    0.5320 cf        1 BQN     -0.180200
     32 C1          4.7500   -1.7420    1.2860 c         1 BQN      0.663300
     33 O1          4.7650   -2.2980    2.4040 o         1 BQN     -0.599100
     34 N1          5.9210   -1.2790    0.7130 n         1 BQN     -0.471800
     35 C5          5.9830   -0.6460   -0.5810 c3        1 BQN      0.057500
     36 C4          6.9020    0.5860   -0.5970 c3        1 BQN      0.110900
     37 O2          8.1710    0.3100   -0.0160 os        1 BQN     -0.410600
     38 C3          8.0590   -0.1740    1.3180 c3        1 BQN      0.110900
     39 C2          7.1880   -1.4350    1.3940 c3        1 BQN      0.057500
     40 H20        -5.6460   -2.3120    1.1980 h1        1 BQN      0.054700
     41 H20A       -4.2210   -3.2900    1.8270 h1        1 BQN      0.054700
     42 H25        -4.1300    0.4590    1.3950 ha        1 BQN      0.158000
     43 H24        -3.9390    1.9990    3.3900 ha        1 BQN      0.150000
     44 H23        -4.1250    1.0080    5.7120 h4        1 BQN      0.026100
     45 H22        -4.6460   -2.8260    4.1980 h4        1 BQN      0.021100
     46 H18        -5.0600   -4.1610   -0.0240 ha        1 BQN      0.145000
     47 H17        -5.2200   -5.2430   -2.2480 ha        1 BQN      0.141000
     48 H16        -4.1760   -4.1700   -4.2490 ha        1 BQN      0.145000
     49 H15        -2.9760   -2.0000   -4.0140 ha        1 BQN      0.153000
     50 H26        -1.3830   -2.3060   -0.4770 ha        1 BQN      0.158000
     51 H27         0.8780   -2.3990    0.5240 ha        1 BQN      0.155000
     52 H7          3.1090    0.4380    0.9680 ha        1 BQN      0.153000
     53 H6          3.1470   -2.5600    0.0610 ha        1 BQN      0.153000
     54 H5          6.3780   -1.3960   -1.3270 h1        1 BQN      0.064450
     55 H5A         4.9550   -0.3230   -0.9100 h1        1 BQN      0.064450
     56 H4          7.1350    0.8730   -1.6560 h1        1 BQN      0.058700
     57 H4A         6.4210    1.4460   -0.0610 h1        1 BQN      0.058700
     58 H3          9.1130   -0.4190    1.6150 h1        1 BQN      0.058700
     59 H3A         7.6510    0.6350    1.9780 h1        1 BQN      0.058700
     60 H2          7.0050   -1.6910    2.4760 h1        1 BQN      0.064450
     61 H2A         7.7460   -2.2890    0.9140 h1        1 BQN      0.064450
@<TRIPOS>BOND
     1    1    2 1   
     2    2    3 1   
     3    2    4 1   
     4    2    5 1   
     5    5    6 ar  
     6    5   11 ar  
     7    6    7 1   
     8    6   29 ar  
     9    7    8 1   
    10    7    9 1   
    11    7   10 1   
    12   11   12 1   
    13   11   27 ar  
    14   12   13 1   
    15   13   14 ar  
    16   13   26 ar  
    17   14   15 1   
    18   14   23 ar  
    19   15   16 1   
    20   16   17 1   
    21   16   40 1   
    22   16   41 1   
    23   17   18 ar  
    24   17   22 ar  
    25   18   19 ar  
    26   18   42 1   
    27   19   20 ar  
    28   19   43 1   
    29   20   21 ar  
    30   20   44 1   
    31   21   22 ar  
    32   22   45 1   
    33   23   24 ar  
    34   23   46 1   
    35   24   25 ar  
    36   24   47 1   
    37   25   26 ar  
    38   25   48 1   
    39   26   49 1   
    40   27   28 ar  
    41   27   50 1   
    42   28   29 ar  
    43   28   51 1   
    44   29   30 1   
    45   30   31 2   
    46   30   52 1   
    47   31   32 1   
    48   31   53 1   
    49   32   33 2   
    50   32   34 1   
    51   34   35 1   
    52   34   39 1   
    53   35   36 1   
    54   35   54 1   
    55   35   55 1   
    56   36   37 1   
    57   36   56 1   
    58   36   57 1   
    59   37   38 1   
    60   38   39 1   
    61   38   58 1   
    62   38   59 1   
    63   39   60 1   
    64   39   61 1   
@<TRIPOS>SUBSTRUCTURE
     1 BQN         1 TEMP              0 ****  ****    0 ROOT
