@<TRIPOS>MOLECULE
BQN
   61    64     1     0     0
SMALL
bcc


@<TRIPOS>ATOM
      1 F6          0.0310    1.4610    0.3080 f         1 BQN     -0.225633
      2 C12         1.3600    1.1160    0.3280 c3        1 BQN      0.685200
      3 F4          1.6440    0.8690    1.6500 f         1 BQN     -0.225633
      4 F5          1.3800   -0.1450   -0.2160 f         1 BQN     -0.225633
      5 C11         2.2870    2.1530   -0.3250 ca        1 BQN     -0.130300
      6 C9          2.6670    3.2940    0.4040 ca        1 BQN     -0.093300
      7 C10         2.0630    3.6380    1.7750 c3        1 BQN      0.683200
      8 F3          2.8650    3.2990    2.8370 f         1 BQN     -0.230300
      9 F2          1.8100    4.9780    1.9600 f         1 BQN     -0.230300
     10 F1          0.8490    3.0690    2.0600 f         1 BQN     -0.230300
     11 C13         2.7690    1.9600   -1.6350 ca        1 BQN      0.023900
     12 S           2.2340    0.6630   -2.5850 ss        1 BQN     -0.015800
     13 C14         2.8170    0.8890   -4.1670 ca        1 BQN     -0.125100
     14 C19         4.1300    0.6030   -4.6010 ca        1 BQN      0.182100
     15 O3          5.0410    0.3300   -3.6050 os        1 BQN     -0.322900
     16 C20         6.3110   -0.1920   -4.0340 c3        1 BQN      0.182700
     17 C21         7.0510   -0.6160   -2.8140 ca        1 BQN     -0.219600
     18 C25         6.4000   -1.1290   -1.6860 ca        1 BQN     -0.063000
     19 C24         7.1660   -1.5340   -0.5920 ca        1 BQN     -0.245300
     20 C23         8.5650   -1.4130   -0.6690 ca        1 BQN      0.400200
     21 N2          9.2100   -0.9200   -1.7460 nb        1 BQN     -0.663000
     22 C22         8.4600   -0.5280   -2.7910 ca        1 BQN      0.403200
     23 C18         4.4600    0.6390   -5.9650 ca        1 BQN     -0.219000
     24 C17         3.4820    0.9640   -6.9000 ca        1 BQN     -0.054000
     25 C16         2.1820    1.2610   -6.4880 ca        1 BQN     -0.178000
     26 C15         1.8620    1.2310   -5.1340 ca        1 BQN     -0.038000
     27 C26         3.6990    2.8830   -2.1460 ca        1 BQN     -0.123000
     28 C27         4.1360    3.9610   -1.4000 ca        1 BQN     -0.075000
     29 C8          3.6230    4.1840   -0.1120 ca        1 BQN     -0.053800
     30 C7          4.1450    5.2890    0.6830 ce        1 BQN     -0.083200
     31 C6          4.3150    6.5540    0.2900 cf        1 BQN     -0.185200
     32 C1          4.0080    7.1020   -1.0600 c         1 BQN      0.664300
     33 O1          4.8060    6.9600   -2.0110 o         1 BQN     -0.614100
     34 N1          2.8520    7.8460   -1.2120 n         1 BQN     -0.466800
     35 C5          2.5180    8.4520   -2.4830 c3        1 BQN      0.056000
     36 C4          1.0910    8.1260   -2.9450 c3        1 BQN      0.107900
     37 O2          0.1360    8.3660   -1.9160 os        1 BQN     -0.409600
     38 C3          0.4220    7.6320   -0.7310 c3        1 BQN      0.107900
     39 C2          1.8310    7.9350   -0.1950 c3        1 BQN      0.056000
     40 H20         6.8660    0.6150   -4.5830 h1        1 BQN      0.054700
     41 H20A        6.1430   -1.0720   -4.7130 h1        1 BQN      0.054700
     42 H25         5.3010   -1.1980   -1.6670 ha        1 BQN      0.159000
     43 H24         6.6910   -1.9370    0.3110 ha        1 BQN      0.150000
     44 H23         9.2090   -1.7240    0.1730 h4        1 BQN      0.025100
     45 H22         9.0150   -0.1220   -3.6560 h4        1 BQN      0.021100
     46 H18         5.4810    0.4150   -6.3040 ha        1 BQN      0.145000
     47 H17         3.7400    0.9900   -7.9700 ha        1 BQN      0.141000
     48 H16         1.4130    1.5200   -7.2300 ha        1 BQN      0.144000
     49 H15         0.8360    1.4690   -4.8080 ha        1 BQN      0.152000
     50 H26         4.1100    2.7300   -3.1590 ha        1 BQN      0.159000
     51 H27         4.8840    4.6630   -1.8140 ha        1 BQN      0.181000
     52 H7          4.4180    5.0060    1.7200 ha        1 BQN      0.151000
     53 H6          4.7480    7.3040    0.9760 ha        1 BQN      0.158000
     54 H5          3.2470    8.1100   -3.2700 h1        1 BQN      0.067200
     55 H5A         2.6120    9.5700   -2.3680 h1        1 BQN      0.067200
     56 H4          0.7880    8.8190   -3.7730 h1        1 BQN      0.058450
     57 H4A         1.0150    7.0600   -3.2870 h1        1 BQN      0.058450
     58 H3          0.3000    6.5350   -0.9300 h1        1 BQN      0.058450
     59 H3A        -0.3480    7.9790    0.0060 h1        1 BQN      0.058450
     60 H2          2.0480    7.2200    0.6480 h1        1 BQN      0.067200
     61 H2A         1.8390    8.9860    0.2160 h1        1 BQN      0.067200
@<TRIPOS>BOND
     1    1    2 1   
     2    2    3 1   
     3    2    4 1   
     4    2    5 1   
     5    5    6 ar  
     6    5   11 ar  
     7    6    7 1   
     8    6   29 ar  
     9    7    8 1   
    10    7    9 1   
    11    7   10 1   
    12   11   12 1   
    13   11   27 ar  
    14   12   13 1   
    15   13   14 ar  
    16   13   26 ar  
    17   14   15 1   
    18   14   23 ar  
    19   15   16 1   
    20   16   17 1   
    21   16   40 1   
    22   16   41 1   
    23   17   18 ar  
    24   17   22 ar  
    25   18   19 ar  
    26   18   42 1   
    27   19   20 ar  
    28   19   43 1   
    29   20   21 ar  
    30   20   44 1   
    31   21   22 ar  
    32   22   45 1   
    33   23   24 ar  
    34   23   46 1   
    35   24   25 ar  
    36   24   47 1   
    37   25   26 ar  
    38   25   48 1   
    39   26   49 1   
    40   27   28 ar  
    41   27   50 1   
    42   28   29 ar  
    43   28   51 1   
    44   29   30 1   
    45   30   31 2   
    46   30   52 1   
    47   31   32 1   
    48   31   53 1   
    49   32   33 2   
    50   32   34 1   
    51   34   35 1   
    52   34   39 1   
    53   35   36 1   
    54   35   54 1   
    55   35   55 1   
    56   36   37 1   
    57   36   56 1   
    58   36   57 1   
    59   37   38 1   
    60   38   39 1   
    61   38   58 1   
    62   38   59 1   
    63   39   60 1   
    64   39   61 1   
@<TRIPOS>SUBSTRUCTURE
     1 BQN         1 TEMP              0 ****  ****    0 ROOT
