@<TRIPOS>MOLECULE
BQN
   61    57     1     0     0
SMALL
bcc


@<TRIPOS>ATOM
      1 F6         -1.2300   -1.4890    1.5430 f         1 BQN     -0.156833
      2 C12        -0.3880   -1.8320    0.5600 c3        1 BQN      0.463000
      3 F4          0.6700   -2.4680    1.0800 f         1 BQN     -0.156833
      4 F5         -1.0150   -2.6410   -0.3040 f         1 BQN     -0.156833
      5 C11         0.0780   -0.5860   -0.1640 c2        1 BQN     -0.103500
      6 C9          1.0430   -0.6810   -1.1540 c2        1 BQN     -0.103500
      7 C10         1.4970   -2.0320   -1.6300 c3        1 BQN      0.463000
      8 F3          0.5350   -2.5880   -2.3770 f         1 BQN     -0.156833
      9 F2          1.7520   -2.8150   -0.5750 f         1 BQN     -0.156833
     10 F1          2.6080   -1.8960   -2.3630 f         1 BQN     -0.156833
     11 C13        -0.3950    0.6560    0.2250 c1        1 BQN     -0.122000
     12 S          -1.7780    0.7650    1.3300 s         1 BQN      0.442000
     13 C14        -3.1840    1.4020    0.4550 c2        1 BQN     -0.352000
     14 C19        -4.4660    1.1080    0.8940 c2        1 BQN      0.137000
     15 O3         -4.6520    0.2460    1.9870 os        1 BQN     -0.205000
     16 C20        -5.9890   -0.1700    2.1650 c3        1 BQN      0.025000
     17 C21        -6.0210   -1.4060    3.0290 c2        1 BQN     -0.146000
     18 C25        -6.9480   -2.3790    2.7930 c2        1 BQN     -0.062000
     19 C24        -6.9410   -3.5210    3.5390 c1        1 BQN     -0.177000
     20 C23        -5.9930   -3.6920    4.5340 c1        1 BQN     -0.069000
     21 N2         -5.0680   -2.7200    4.7680 n1        1 BQN     -0.143000
     22 C22        -5.0740   -1.5790    4.0240 c1        1 BQN     -0.063000
     23 C18        -5.5640    1.6070    0.2120 c1        1 BQN     -0.220000
     24 C17        -5.3810    2.3990   -0.9090 c1        1 BQN     -0.117000
     25 C16        -4.0990    2.6930   -1.3490 c1        1 BQN     -0.117000
     26 C15        -3.0010    2.1940   -0.6670 c1        1 BQN     -0.040000
     27 C26         0.0970    1.8030   -0.3770 c2        1 BQN     -0.106500
     28 C27         1.0620    1.7070   -1.3670 c1        1 BQN     -0.120000
     29 C8          1.5350    0.4670   -1.7560 c1        1 BQN     -0.122000
     30 C7          2.4370    0.3520   -2.9710 c2        1 BQN     -0.106500
     31 C6          3.7790    0.3390   -2.8180 c1        1 BQN     -0.120000
     32 C1          4.3850    0.4380   -1.4340 c1        1 BQN      0.342000
     33 O1          3.6630    0.5240   -0.4600 o         1 BQN     -0.373000
     34 N1          5.7950    0.3520   -1.2690 n3        1 BQN     -0.324000
     35 C5          6.6310    0.3470   -0.0080 c3        1 BQN     -0.056000
     36 C4          7.5860    1.5200    0.0520 c3        1 BQN     -0.034500
     37 O2          7.7520    2.0420   -1.1240 os        1 BQN     -0.272000
     38 C3          7.8500    1.4100   -2.2540 c3        1 BQN     -0.034500
     39 C2          6.8940    0.2380   -2.3010 c3        1 BQN     -0.056000
     40 H20        -6.4990    0.5450    2.6000 h1        1 BQN      0.094000
     41 H20A       -6.3880   -0.3710    1.2930 h1        1 BQN      0.094000
     42 H25        -7.6160   -2.2580    2.0920 ha        1 BQN      0.159000
     43 H24        -7.6040   -4.2170    3.3710 ha        1 BQN      0.153000
     44 H23        -5.9870   -4.5080    5.0680 ha        1 BQN      0.165000
     45 H22        -4.4100   -0.8830    4.1930 ha        1 BQN      0.158000
     46 H18        -6.4650    1.4000    0.5210 ha        1 BQN      0.144000
     47 H17        -6.1540    2.7510   -1.3900 ha        1 BQN      0.142000
     48 H16        -3.9700    3.2510   -2.1390 ha        1 BQN      0.142000
     49 H15        -2.0990    2.4010   -0.9760 ha        1 BQN      0.152000
     50 H26        -0.2350    2.6770   -0.1040 ha        1 BQN      0.153000
     51 H27         1.4080    2.5150   -1.7900 ha        1 BQN      0.167500
     52 H7          2.0460    0.2880   -3.8640 ha        1 BQN      0.153000
     53 H6          4.3590    0.2650   -3.6000 ha        1 BQN      0.167500
     54 H5          6.0360    0.3830    0.7670 h1        1 BQN      0.100750
     55 H5A         7.1470   -0.4830    0.0270 h1        1 BQN      0.100750
     56 H4          8.4520    1.2140    0.3940 h1        1 BQN      0.097000
     57 H4A         7.2230    2.1990    0.6570 h1        1 BQN      0.097000
     58 H3          7.6400    2.0260   -2.9870 h1        1 BQN      0.097000
     59 H3A         8.7670    1.0820   -2.3610 h1        1 BQN      0.097000
     60 H2          7.3950   -0.5860   -2.1410 h1        1 BQN      0.100750
     61 H2A         6.4890    0.1950   -3.1900 h1        1 BQN      0.100750
@<TRIPOS>BOND
     1    1    2 1   
     2    2    3 1   
     3    2    4 1   
     4    2    5 1   
     5    5    6 1   
     6    5   11 1   
     7    6    7 1   
     8    6   29 1   
     9    7    8 1   
    10    7    9 1   
    11    7   10 1   
    12   11   27 1   
    13   12   13 1   
    14   13   14 1   
    15   13   26 1   
    16   14   15 1   
    17   14   23 1   
    18   15   16 1   
    19   16   17 1   
    20   16   40 1   
    21   16   41 1   
    22   17   18 1   
    23   17   22 1   
    24   18   19 1   
    25   18   42 1   
    26   19   43 1   
    27   20   21 1   
    28   20   44 1   
    29   22   45 1   
    30   23   46 1   
    31   24   25 1   
    32   24   47 1   
    33   25   48 1   
    34   26   49 1   
    35   27   28 1   
    36   27   50 1   
    37   28   51 1   
    38   29   30 1   
    39   30   31 1   
    40   30   52 1   
    41   31   53 1   
    42   32   33 1   
    43   32   34 1   
    44   34   35 1   
    45   34   39 1   
    46   35   36 1   
    47   35   54 1   
    48   35   55 1   
    49   36   37 1   
    50   36   56 1   
    51   36   57 1   
    52   37   38 1   
    53   38   39 1   
    54   38   58 1   
    55   38   59 1   
    56   39   60 1   
    57   39   61 1   
@<TRIPOS>SUBSTRUCTURE
     1 BQN         1 TEMP              0 ****  ****    0 ROOT
