@<TRIPOS>MOLECULE
BQN
   61    64     1     0     0
SMALL
bcc


@<TRIPOS>ATOM
      1 F6          0.0250   -0.5410    0.1380 f         1 BQN     -0.225300
      2 C12         1.3650   -0.2690    0.2480 c3        1 BQN      0.684200
      3 F4          1.6530   -0.4210    1.5830 f         1 BQN     -0.225300
      4 F5          1.9720   -1.3690   -0.3070 f         1 BQN     -0.225300
      5 C11         1.7830    1.0930   -0.3280 ca        1 BQN     -0.126300
      6 C9          1.6080    2.2560    0.4440 ca        1 BQN     -0.085300
      7 C10         0.8350    2.2430    1.7740 c3        1 BQN      0.682200
      8 F3          1.6470    2.2120    2.8830 f         1 BQN     -0.227967
      9 F2          0.0300    3.3380    1.9780 f         1 BQN     -0.227967
     10 F1         -0.0350    1.1990    1.9520 f         1 BQN     -0.227967
     11 C13         2.3570    1.1770   -1.6120 ca        1 BQN      0.024900
     12 S           2.4450   -0.1780   -2.6260 ss        1 BQN     -0.016800
     13 C14         2.9020    0.3520   -4.1770 ca        1 BQN     -0.123100
     14 C19         4.2230    0.6530   -4.5780 ca        1 BQN      0.179100
     15 O3          5.1510    0.7370   -3.5640 os        1 BQN     -0.324900
     16 C20         6.5310    0.7560   -3.9710 c3        1 BQN      0.182700
     17 C21         7.3570    0.6040   -2.7430 ca        1 BQN     -0.219600
     18 C25         6.9430   -0.1740   -1.6560 ca        1 BQN     -0.063000
     19 C24         7.7870   -0.2930   -0.5520 ca        1 BQN     -0.244300
     20 C23         9.0240    0.3740   -0.5760 ca        1 BQN      0.399200
     21 N2          9.4400    1.1300   -1.6120 nb        1 BQN     -0.663000
     22 C22         8.6150    1.2410   -2.6680 ca        1 BQN      0.402200
     23 C18         4.5280    0.8870   -5.9280 ca        1 BQN     -0.220000
     24 C17         3.5160    0.8300   -6.8810 ca        1 BQN     -0.056000
     25 C16         2.2030    0.5500   -6.5010 ca        1 BQN     -0.177000
     26 C15         1.9050    0.3230   -5.1600 ca        1 BQN     -0.036000
     27 C26         2.8460    2.4230   -2.0420 ca        1 BQN     -0.120000
     28 C27         2.7600    3.5470   -1.2440 ca        1 BQN     -0.074000
     29 C8          2.1320    3.4870    0.0110 ca        1 BQN     -0.040800
     30 C7          2.0850    4.6740    0.8540 ce        1 BQN     -0.066200
     31 C6          1.9110    5.9440    0.4750 cf        1 BQN     -0.196200
     32 C1          1.6350    6.4340   -0.9010 c         1 BQN      0.652300
     33 O1          0.5570    6.1890   -1.4760 o         1 BQN     -0.580100
     34 N1          2.6230    7.1730   -1.5510 n         1 BQN     -0.469800
     35 C5          2.3200    7.8590   -2.7910 c3        1 BQN      0.049500
     36 C4          2.4090    9.3870   -2.6730 c3        1 BQN      0.101900
     37 O2          3.6330    9.8010   -2.0730 os        1 BQN     -0.409600
     38 C3          3.8430    9.2080   -0.7970 c3        1 BQN      0.101900
     39 C2          3.7960    7.6740   -0.8730 c3        1 BQN      0.049500
     40 H20         6.7250   -0.0950   -4.6800 h1        1 BQN      0.054200
     41 H20A        6.7430    1.7330   -4.4820 h1        1 BQN      0.054200
     42 H25         5.9610   -0.6730   -1.6780 ha        1 BQN      0.160000
     43 H24         7.4940   -0.8930    0.3200 ha        1 BQN      0.150000
     44 H23         9.7240    0.3050    0.2770 h4        1 BQN      0.025100
     45 H22         8.9810    1.8710   -3.4990 h4        1 BQN      0.020100
     46 H18         5.5560    1.1160   -6.2410 ha        1 BQN      0.144000
     47 H17         3.7550    1.0120   -7.9400 ha        1 BQN      0.140000
     48 H16         1.4050    0.5110   -7.2560 ha        1 BQN      0.145000
     49 H15         0.8660    0.1060   -4.8580 ha        1 BQN      0.154000
     50 H26         3.3290    2.5000   -3.0310 ha        1 BQN      0.157000
     51 H27         3.1820    4.5030   -1.5950 ha        1 BQN      0.156000
     52 H7          2.2130    4.4630    1.9360 ha        1 BQN      0.147000
     53 H6          1.8910    6.7460    1.2360 ha        1 BQN      0.150000
     54 H5          3.0690    7.5120   -3.5590 h1        1 BQN      0.067700
     55 H5A         1.2880    7.5780   -3.1420 h1        1 BQN      0.067700
     56 H4          2.4310    9.8510   -3.6940 h1        1 BQN      0.057950
     57 H4A         1.5470    9.7940   -2.0830 h1        1 BQN      0.057950
     58 H3          3.0800    9.5970   -0.0720 h1        1 BQN      0.057950
     59 H3A         4.8690    9.5470   -0.4970 h1        1 BQN      0.057950
     60 H2          3.8680    7.2580    0.1690 h1        1 BQN      0.067700
     61 H2A         4.6960    7.3200   -1.4540 h1        1 BQN      0.067700
@<TRIPOS>BOND
     1    1    2 1   
     2    2    3 1   
     3    2    4 1   
     4    2    5 1   
     5    5    6 ar  
     6    5   11 ar  
     7    6    7 1   
     8    6   29 ar  
     9    7    8 1   
    10    7    9 1   
    11    7   10 1   
    12   11   12 1   
    13   11   27 ar  
    14   12   13 1   
    15   13   14 ar  
    16   13   26 ar  
    17   14   15 1   
    18   14   23 ar  
    19   15   16 1   
    20   16   17 1   
    21   16   40 1   
    22   16   41 1   
    23   17   18 ar  
    24   17   22 ar  
    25   18   19 ar  
    26   18   42 1   
    27   19   20 ar  
    28   19   43 1   
    29   20   21 ar  
    30   20   44 1   
    31   21   22 ar  
    32   22   45 1   
    33   23   24 ar  
    34   23   46 1   
    35   24   25 ar  
    36   24   47 1   
    37   25   26 ar  
    38   25   48 1   
    39   26   49 1   
    40   27   28 ar  
    41   27   50 1   
    42   28   29 ar  
    43   28   51 1   
    44   29   30 1   
    45   30   31 2   
    46   30   52 1   
    47   31   32 1   
    48   31   53 1   
    49   32   33 2   
    50   32   34 1   
    51   34   35 1   
    52   34   39 1   
    53   35   36 1   
    54   35   54 1   
    55   35   55 1   
    56   36   37 1   
    57   36   56 1   
    58   36   57 1   
    59   37   38 1   
    60   38   39 1   
    61   38   58 1   
    62   38   59 1   
    63   39   60 1   
    64   39   61 1   
@<TRIPOS>SUBSTRUCTURE
     1 BQN         1 TEMP              0 ****  ****    0 ROOT
