@<TRIPOS>MOLECULE
BR0
   32    34     1     0     0
SMALL
bcc


@<TRIPOS>ATOM
      1 C          -0.1180   -0.0520    0.1110 c         1 BR0      0.917600
      2 N           2.0570   -0.8510   -0.9070 nu        1 BR0     -0.714600
      3 OXT        -0.6620   -1.1860    0.0460 o         1 BR0     -0.836800
      4 CA          1.4420    0.0670    0.0160 c3        1 BR0      0.094500
      5 CB          2.0170    0.0100    1.4310 c3        1 BR0     -0.056700
      6 CG          3.5620   -0.0970    1.4620 c3        1 BR0      0.009800
      7 OAA         3.9560   -2.6220   -4.1720 o         1 BR0     -0.835300
      8 OAC         6.2210    1.1730    1.5500 o         1 BR0     -0.258500
      9 OAD         2.1690   -2.9010   -2.8760 o         1 BR0     -0.835300
     10 OAF         7.5230   -0.4490    1.3640 o         1 BR0     -0.258500
     11 CAG         5.4550   -1.7460   -2.0160 ca        1 BR0     -0.084000
     12 CAH         6.2430   -1.1320   -1.0430 ca        1 BR0     -0.202000
     13 CAI         2.6960   -1.7170    2.9610 c2        1 BR0     -0.180200
     14 CAK         1.4890   -1.1670    2.2710 c3        1 BR0     -0.058200
     15 CAM         3.3340   -2.4600   -3.0790 c         1 BR0      0.913200
     16 CAO         4.0700   -1.7310   -1.9640 ca        1 BR0     -0.173600
     17 CAP         5.6040   -0.5240    0.0440 ca        1 BR0     -0.115200
     18 CAQ         3.4090   -1.0480   -0.8890 ca        1 BR0      0.250600
     19 NAT         6.4910    0.1050    1.0610 no        1 BR0      0.306200
     20 CD1         3.8280   -1.1360    2.5320 c2        1 BR0     -0.183200
     21 CD2         4.2050   -0.5200    0.1820 ca        1 BR0     -0.154300
     22 O          -0.7400    1.0340    0.2870 o         1 BR0     -0.836800
     23 HN          1.4760   -1.4940   -1.4160 hn        1 BR0      0.498800
     24 HA          1.6590    1.1090   -0.3790 h1        1 BR0      0.037700
     25 HB          1.7160    0.9680    1.9350 hc        1 BR0      0.049700
     26 HG          3.9790    0.8980    1.7820 hc        1 BR0      0.063700
     27 HAG         5.9330   -2.2450   -2.8760 ha        1 BR0      0.150000
     28 HAH         7.3370   -1.1340   -1.1290 ha        1 BR0      0.123000
     29 HAI         2.6060   -2.5070    3.7080 ha        1 BR0      0.107000
     30 HAK         0.7220   -0.8180    3.0040 hc        1 BR0      0.071200
     31 HAKA        1.0020   -1.9350    1.6120 hc        1 BR0      0.071200
     32 HD1         4.8480   -1.3530    2.8490 ha        1 BR0      0.118000
@<TRIPOS>BOND
     1    1    3 1   
     2    1    4 1   
     3    1   22 1   
     4    2    4 1   
     5    2   18 1   
     6    2   23 1   
     7    4    5 1   
     8    4   24 1   
     9    5    6 1   
    10    5   14 1   
    11    5   25 1   
    12    6   20 1   
    13    6   21 1   
    14    6   26 1   
    15    7   15 1   
    16    8   19 1   
    17    9   15 1   
    18   10   19 1   
    19   11   12 ar  
    20   11   16 ar  
    21   11   27 1   
    22   12   17 ar  
    23   12   28 1   
    24   13   14 1   
    25   13   20 2   
    26   13   29 1   
    27   14   30 1   
    28   14   31 1   
    29   15   16 1   
    30   16   18 ar  
    31   17   19 1   
    32   17   21 ar  
    33   18   21 ar  
    34   20   32 1   
@<TRIPOS>SUBSTRUCTURE
     1 BR0         1 TEMP              0 ****  ****    0 ROOT
