@<TRIPOS>MOLECULE
BR0
   32    34     1     0     0
SMALL
bcc


@<TRIPOS>ATOM
      1 C          -0.1220   -0.0560    0.1170 c         1 BR0      0.917600
      2 N           2.0560   -0.8380   -0.9100 nh        1 BR0     -0.714600
      3 OXT        -0.6610   -1.1910    0.0410 o         1 BR0     -0.836800
      4 CA          1.4380    0.0690    0.0220 c3        1 BR0      0.094500
      5 CB          2.0140    0.0000    1.4360 c3        1 BR0     -0.056700
      6 CG          3.5600   -0.1010    1.4660 c3        1 BR0      0.009800
      7 OAA         3.9600   -2.5690   -4.1930 o         1 BR0     -0.835300
      8 OAC         6.2140    1.1770    1.5640 o         1 BR0     -0.258500
      9 OAD         2.1740   -2.8670   -2.8990 o         1 BR0     -0.835300
     10 OAF         7.5210   -0.4380    1.3620 o         1 BR0     -0.258500
     11 CAG         5.4560   -1.7090   -2.0290 ca        1 BR0     -0.084000
     12 CAH         6.2430   -1.1020   -1.0510 ca        1 BR0     -0.202000
     13 CAI         2.7010   -1.7390    2.9490 c2        1 BR0     -0.180200
     14 CAK         1.4910   -1.1870    2.2650 c3        1 BR0     -0.058200
     15 CAM         3.3370   -2.4200   -3.0990 c         1 BR0      0.913200
     16 CAO         4.0720   -1.6990   -1.9760 ca        1 BR0     -0.173600
     17 CAP         5.6020   -0.5070    0.0420 ca        1 BR0     -0.115200
     18 CAQ         3.4090   -1.0300   -0.8940 ca        1 BR0      0.250600
     19 NAT         6.4880    0.1150    1.0650 no        1 BR0      0.306200
     20 CD1         3.8300   -1.1490    2.5250 c2        1 BR0     -0.183200
     21 CD2         4.2030   -0.5090    0.1810 ca        1 BR0     -0.154300
     22 O          -0.7470    1.0260    0.3040 o         1 BR0     -0.836800
     23 HN          1.4770   -1.4770   -1.4250 hn        1 BR0      0.498800
     24 HA          1.6510    1.1160   -0.3620 h1        1 BR0      0.037700
     25 HB          1.7100    0.9520    1.9500 hc        1 BR0      0.049700
     26 HG          3.9730    0.8920    1.7950 hc        1 BR0      0.063700
     27 HAG         5.9360   -2.1980   -2.8940 ha        1 BR0      0.150000
     28 HAH         7.3370   -1.0990   -1.1380 ha        1 BR0      0.123000
     29 HAI         2.6140   -2.5360    3.6880 ha        1 BR0      0.107000
     30 HAK         1.0060   -1.9500    1.5990 hc        1 BR0      0.071200
     31 HAKA        0.7220   -0.8470    3.0020 hc        1 BR0      0.071200
     32 HD1         4.8510   -1.3660    2.8400 ha        1 BR0      0.118000
@<TRIPOS>BOND
     1    1    3 1   
     2    1    4 1   
     3    1   22 1   
     4    2    4 1   
     5    2   18 1   
     6    2   23 1   
     7    4    5 1   
     8    4   24 1   
     9    5    6 1   
    10    5   14 1   
    11    5   25 1   
    12    6   20 1   
    13    6   21 1   
    14    6   26 1   
    15    7   15 1   
    16    8   19 1   
    17    9   15 1   
    18   10   19 1   
    19   11   12 ar  
    20   11   16 ar  
    21   11   27 1   
    22   12   17 ar  
    23   12   28 1   
    24   13   14 1   
    25   13   20 2   
    26   13   29 1   
    27   14   30 1   
    28   14   31 1   
    29   15   16 1   
    30   16   18 ar  
    31   17   19 1   
    32   17   21 ar  
    33   18   21 ar  
    34   20   32 1   
@<TRIPOS>SUBSTRUCTURE
     1 BR0         1 TEMP              0 ****  ****    0 ROOT
