@<TRIPOS>MOLECULE
BR0
   32    34     1     0     0
SMALL
bcc


@<TRIPOS>ATOM
      1 C          -0.1360   -0.0930    0.1030 c         1 BR0      0.917600
      2 N           2.0540   -0.8520   -0.9140 nh        1 BR0     -0.714600
      3 OXT        -0.6660   -1.2320    0.0200 o         1 BR0     -0.836800
      4 CA          1.4230    0.0460    0.0180 c3        1 BR0      0.094500
      5 CB          1.9920   -0.0240    1.4350 c3        1 BR0     -0.056700
      6 CG          3.5380   -0.1120    1.4740 c3        1 BR0      0.009800
      7 OAA         3.9910   -2.5550   -4.1920 o         1 BR0     -0.835300
      8 OAC         6.1810    1.1880    1.5920 o         1 BR0     -0.258500
      9 OAD         2.2010   -2.8730   -2.9090 o         1 BR0     -0.835300
     10 OAF         7.5030   -0.4150    1.3920 o         1 BR0     -0.258500
     11 CAG         5.4680   -1.6900   -2.0160 ca        1 BR0     -0.084000
     12 CAH         6.2440   -1.0800   -1.0320 ca        1 BR0     -0.202000
     13 CAI         2.6840   -1.7630    2.9460 c2        1 BR0     -0.180200
     14 CAK         1.4740   -1.2180    2.2560 c3        1 BR0     -0.058200
     15 CAM         3.3620   -2.4150   -3.1010 c         1 BR0      0.913200
     16 CAO         4.0830   -1.6920   -1.9720 ca        1 BR0     -0.173600
     17 CAP         5.5920   -0.4950    0.0600 ca        1 BR0     -0.115200
     18 CAQ         3.4080   -1.0330   -0.8910 ca        1 BR0      0.250600
     19 NAT         6.4660    0.1310    1.0910 no        1 BR0      0.306200
     20 CD1         3.8110   -1.1620    2.5300 c2        1 BR0     -0.183200
     21 CD2         4.1920   -0.5090    0.1910 ca        1 BR0     -0.154300
     22 O          -0.7710    0.9840    0.2900 o         1 BR0     -0.836800
     23 HN          1.4840   -1.4950   -1.4350 hn        1 BR0      0.498800
     24 HA          1.6300    1.0960   -0.3610 h1        1 BR0      0.037700
     25 HB          1.6770    0.9240    1.9500 hc        1 BR0      0.049700
     26 HG          3.9410    0.8840    1.8080 hc        1 BR0      0.063700
     27 HAG         5.9570   -2.1720   -2.8810 ha        1 BR0      0.150000
     28 HAH         7.3380   -1.0680   -1.1120 ha        1 BR0      0.123000
     29 HAI         2.5990   -2.5630    3.6810 ha        1 BR0      0.107000
     30 HAK         0.9990   -1.9820    1.5840 hc        1 BR0      0.071200
     31 HAKA        0.6980   -0.8880    2.9900 hc        1 BR0      0.071200
     32 HD1         4.8320   -1.3710    2.8500 ha        1 BR0      0.118000
@<TRIPOS>BOND
     1    1    3 1   
     2    1    4 1   
     3    1   22 1   
     4    2    4 1   
     5    2   18 1   
     6    2   23 1   
     7    4    5 1   
     8    4   24 1   
     9    5    6 1   
    10    5   14 1   
    11    5   25 1   
    12    6   20 1   
    13    6   21 1   
    14    6   26 1   
    15    7   15 1   
    16    8   19 1   
    17    9   15 1   
    18   10   19 1   
    19   11   12 ar  
    20   11   16 ar  
    21   11   27 1   
    22   12   17 ar  
    23   12   28 1   
    24   13   14 1   
    25   13   20 2   
    26   13   29 1   
    27   14   30 1   
    28   14   31 1   
    29   15   16 1   
    30   16   18 ar  
    31   17   19 1   
    32   17   21 ar  
    33   18   21 ar  
    34   20   32 1   
@<TRIPOS>SUBSTRUCTURE
     1 BR0         1 TEMP              0 ****  ****    0 ROOT
