@<TRIPOS>MOLECULE
BR0
   32    30     1     0     0
SMALL
bcc


@<TRIPOS>ATOM
      1 C          -1.6660    1.6680   -0.9140 c1        1 BR0      0.322000
      2 N           0.4750    0.7260   -1.7220 n3        1 BR0     -0.260000
      3 OXT        -2.3610    2.6520   -1.2730 os        1 BR0     -0.605000
      4 CA         -0.0410    1.7590   -0.9610 c3        1 BR0     -0.057000
      5 CB          0.5020    1.8130    0.3940 c3        1 BR0     -0.069000
      6 CG          0.4350    0.5150    1.2810 c3        1 BR0     -0.034000
      7 OAA         2.0310   -1.4850   -3.8890 o         1 BR0     -0.575000
      8 OAC        -1.1820   -2.4310    2.6340 o         1 BR0     -0.352700
      9 OAD        -0.1210   -1.5530   -4.2310 o         1 BR0     -0.575000
     10 OAF         0.9940   -2.1590    3.1040 o         1 BR0     -0.352700
     11 CAG         0.5150   -3.0320   -1.4030 c1        1 BR0     -0.080000
     12 CAH         0.2930   -3.1930    0.0010 c1        1 BR0     -0.206000
     13 CAI        -1.0090    2.0070    2.1980 c1        1 BR0     -0.174000
     14 CAK        -0.3760    2.9000    1.2410 c2        1 BR0     -0.143000
     15 CAM         0.8580   -1.5760   -3.4410 c2        1 BR0      0.365000
     16 CAO         0.6270   -1.7440   -1.9560 c2        1 BR0     -0.155000
     17 CAP         0.1860   -2.0610    0.8340 c1        1 BR0     -0.067000
     18 CAQ         0.5220   -0.6290   -1.1410 c2        1 BR0      0.173000
     19 NAT        -0.0480   -2.2230    2.2250 n2        1 BR0      0.453400
     20 CD1        -0.6420    0.6790    2.0430 c2        1 BR0     -0.155000
     21 CD2         0.2950   -0.7940    0.2950 c2        1 BR0     -0.125000
     22 O          -2.2260    0.6110   -0.5240 o         1 BR0     -0.536000
     23 HN          1.3060    0.9570   -2.0250 hn        1 BR0      0.269000
     24 HA          0.0850    2.6150   -1.4150 h1        1 BR0      0.080000
     25 HB          1.4290    2.1180    0.3510 hc        1 BR0      0.058000
     26 HG          1.2370    0.4410    1.8360 hc        1 BR0      0.093000
     27 HAG         0.5890   -3.8180   -1.9790 ha        1 BR0      0.153000
     28 HAH         0.1650   -4.1360    0.2270 ha        1 BR0      0.121000
     29 HAI        -1.2740    2.3410    3.0760 ha        1 BR0      0.112000
     30 HAK        -0.9330    3.4580    0.6610 ha        1 BR0      0.099000
     31 HAKA        0.1800    3.5430    1.7290 ha        1 BR0      0.099000
     32 HD1        -0.8480    0.0300    2.7430 ha        1 BR0      0.124000
@<TRIPOS>BOND
     1    1    4 1   
     2    1   22 1   
     3    2    4 1   
     4    2   18 1   
     5    2   23 1   
     6    4    5 1   
     7    4   24 1   
     8    5    6 1   
     9    5   14 1   
    10    5   25 1   
    11    6   20 1   
    12    6   21 1   
    13    6   26 1   
    14    7   15 1   
    15    8   19 2   
    16    9   15 1   
    17   10   19 2   
    18   11   16 1   
    19   11   27 1   
    20   12   17 1   
    21   12   28 1   
    22   13   20 1   
    23   13   29 1   
    24   14   30 1   
    25   14   31 1   
    26   15   16 1   
    27   16   18 1   
    28   17   21 1   
    29   18   21 1   
    30   20   32 1   
@<TRIPOS>SUBSTRUCTURE
     1 BR0         1 TEMP              0 ****  ****    0 ROOT
