@<TRIPOS>MOLECULE
BR0
   32    34     1     0     0
SMALL
bcc


@<TRIPOS>ATOM
      1 C          -3.3090   -1.1070    0.4160 c         1 BR0      0.917600
      2 N          -1.3710    0.5080    0.2030 nh        1 BR0     -0.714600
      3 OXT        -3.8660   -0.7070   -0.6400 o         1 BR0     -0.836800
      4 CA         -1.7930   -0.7900    0.6610 c3        1 BR0      0.094500
      5 CB         -0.9630   -1.9480    0.1070 c3        1 BR0     -0.056700
      6 CG          0.5600   -1.6620    0.0950 c3        1 BR0      0.009800
      7 OAA        -0.1360    4.4830   -0.0710 o         1 BR0     -0.835300
      8 OAC         3.2000   -1.7600    1.4020 o         1 BR0     -0.258500
      9 OAD        -1.6500    3.1000   -0.9340 o         1 BR0     -0.835300
     10 OAF         4.4270   -0.7370    0.0590 o         1 BR0     -0.258500
     11 CAG         1.7490    2.4580    0.0140 ca        1 BR0     -0.084000
     12 CAH         2.7120    1.4800    0.2610 ca        1 BR0     -0.202000
     13 CAI        -0.0250   -2.5500   -2.0250 c2        1 BR0     -0.180200
     14 CAK        -1.3350   -2.3490   -1.3310 c3        1 BR0     -0.058200
     15 CAM        -0.5400    3.3210   -0.3760 c         1 BR0      0.913200
     16 CAO         0.3990    2.1600   -0.0800 ca        1 BR0     -0.173600
     17 CAP         2.2950    0.1480    0.3690 ca        1 BR0     -0.115200
     18 CAQ        -0.0420    0.8070    0.1000 ca        1 BR0      0.250600
     19 NAT         3.3630   -0.8580    0.6190 no        1 BR0      0.306200
     20 CD1         1.0110   -2.1840   -1.2530 c2        1 BR0     -0.183200
     21 CD2         0.9460   -0.2260    0.2320 ca        1 BR0     -0.154300
     22 O          -3.8750   -1.7940    1.3130 o         1 BR0     -0.836800
     23 HN         -2.0430    1.1140   -0.2340 hn        1 BR0      0.498800
     24 HA         -1.6440   -0.7950    1.7860 h1        1 BR0      0.037700
     25 HB         -1.1550   -2.8270    0.7810 hc        1 BR0      0.049700
     26 HG          1.0380   -2.2610    0.9180 hc        1 BR0      0.063700
     27 HAG         2.0530    3.5140   -0.0900 ha        1 BR0      0.150000
     28 HAH         3.7710    1.7530    0.3610 ha        1 BR0      0.123000
     29 HAI         0.0180   -2.9380   -3.0420 ha        1 BR0      0.107000
     30 HAK        -1.9480   -3.2840   -1.3360 hc        1 BR0      0.071200
     31 HAKA       -1.9450   -1.5430   -1.8210 hc        1 BR0      0.071200
     32 HD1         2.0710   -2.2070   -1.5090 ha        1 BR0      0.118000
@<TRIPOS>BOND
     1    1    3 1   
     2    1    4 1   
     3    1   22 1   
     4    2    4 1   
     5    2   18 1   
     6    2   23 1   
     7    4    5 1   
     8    4   24 1   
     9    5    6 1   
    10    5   14 1   
    11    5   25 1   
    12    6   20 1   
    13    6   21 1   
    14    6   26 1   
    15    7   15 1   
    16    8   19 1   
    17    9   15 1   
    18   10   19 1   
    19   11   12 ar  
    20   11   16 ar  
    21   11   27 1   
    22   12   17 ar  
    23   12   28 1   
    24   13   14 1   
    25   13   20 2   
    26   13   29 1   
    27   14   30 1   
    28   14   31 1   
    29   15   16 1   
    30   16   18 ar  
    31   17   19 1   
    32   17   21 ar  
    33   18   21 ar  
    34   20   32 1   
@<TRIPOS>SUBSTRUCTURE
     1 BR0         1 TEMP              0 ****  ****    0 ROOT
