@<TRIPOS>MOLECULE
BR1
   52    54     1     0     0
SMALL
bcc


@<TRIPOS>ATOM
      1 C18         4.6620    0.6730   -1.5280 ca        1 BR1     -0.228300
      2 C19         5.8330   -0.0770   -1.4420 ca        1 BR1     -0.075000
      3 C20         5.9230   -1.0990   -0.4910 ca        1 BR1     -0.202600
      4 C21         7.1310   -1.9330   -0.3650 c3        1 BR1      0.038300
      5 C22         4.8030   -1.3180    0.3450 ca        1 BR1      0.418200
      6 N2          3.6660   -0.6130    0.2800 nb        1 BR1     -0.638000
      7 C17         3.5910    0.3800   -0.6500 ca        1 BR1      0.386300
      8 C16         2.3850    1.1760   -0.7690 cc        1 BR1      0.096400
      9 O2          1.3610    1.0350    0.1780 os        1 BR1     -0.334800
     10 C15         1.9680    2.1350   -1.6940 cd        1 BR1      0.256900
     11 N1          0.6970    2.5940   -1.3430 nd        1 BR1     -0.673000
     12 C14         0.3620    1.9280   -0.2330 cc        1 BR1      0.459700
     13 C1         -0.8700    1.9860    0.6220 c3        1 BR1      0.126800
     14 O1         -1.1850    3.3230    0.9490 oh        1 BR1     -0.577800
     15 C2         -2.0170    1.2770   -0.0970 c3        1 BR1     -0.111400
     16 C3         -3.2280    1.1710    0.8050 c3        1 BR1     -0.080400
     17 C4         -4.4030    0.5640    0.0700 c3        1 BR1     -0.078400
     18 C5         -5.6110    0.4440    0.9750 c3        1 BR1     -0.080400
     19 C6         -6.7880   -0.1580    0.2390 c3        1 BR1     -0.076400
     20 C7         -7.9950   -0.2810    1.1500 c3        1 BR1     -0.037100
     21 C8         -9.1730   -0.8410    0.4330 ca        1 BR1     -0.077300
     22 C9         -9.8760   -0.0530   -0.4870 ca        1 BR1     -0.127500
     23 C10       -10.9840   -0.5700   -1.1550 ca        1 BR1     -0.128000
     24 C11       -11.4000   -1.8790   -0.9110 ca        1 BR1     -0.133000
     25 C12       -10.7050   -2.6690    0.0040 ca        1 BR1     -0.128000
     26 C13        -9.5960   -2.1530    0.6730 ca        1 BR1     -0.127500
     27 H1          4.5680    1.4840   -2.2630 ha        1 BR1      0.149000
     28 H2          6.6790    0.1370   -2.1140 ha        1 BR1      0.147000
     29 H3          6.8850   -2.9440    0.0400 h1        1 BR1      0.083700
     30 H4          7.6480   -2.0460   -1.3480 h1        1 BR1      0.083700
     31 H6          4.8240   -2.1110    1.1160 h4        1 BR1      0.032100
     32 H7          2.4830    2.5220   -2.5740 h4        1 BR1      0.053100
     33 H8         -0.6520    1.4970    1.6160 h1        1 BR1      0.106700
     34 H9         -1.4220    3.7820    0.1320 ho        1 BR1      0.416000
     35 H10        -2.2810    1.8440   -1.0280 hc        1 BR1      0.059700
     36 H11        -1.6770    0.2550   -0.4050 hc        1 BR1      0.059700
     37 H12        -2.9770    0.5440    1.7000 hc        1 BR1      0.050200
     38 H13        -3.4980    2.1940    1.1820 hc        1 BR1      0.050200
     39 H14        -4.6620    1.1980   -0.8190 hc        1 BR1      0.041700
     40 H15        -4.1220   -0.4500   -0.3180 hc        1 BR1      0.041700
     41 H16        -5.3540   -0.1940    1.8620 hc        1 BR1      0.041200
     42 H17        -5.8890    1.4580    1.3670 hc        1 BR1      0.041200
     43 H18        -7.0510    0.4820   -0.6440 hc        1 BR1      0.044700
     44 H19        -6.5100   -1.1710   -0.1550 hc        1 BR1      0.044700
     45 H20        -7.7330   -0.9320    2.0270 hc        1 BR1      0.047700
     46 H21        -8.2570    0.7330    1.5580 hc        1 BR1      0.047700
     47 H22        -9.5490    0.9800   -0.6790 ha        1 BR1      0.131000
     48 H23       -11.5310    0.0550   -1.8750 ha        1 BR1      0.130000
     49 H24       -12.2750   -2.2870   -1.4380 ha        1 BR1      0.130000
     50 H25       -11.0310   -3.7010    0.1990 ha        1 BR1      0.130000
     51 H26        -9.0510   -2.7800    1.3950 ha        1 BR1      0.131000
     52 BR1         8.4350   -1.1750    0.8430 br        1 BR1     -0.159400
@<TRIPOS>BOND
     1    1    2 ar  
     2    1    7 ar  
     3    1   27 1   
     4    2    3 ar  
     5    2   28 1   
     6    3    4 1   
     7    3    5 ar  
     8    4   29 1   
     9    4   30 1   
    10    4   52 1   
    11    5    6 ar  
    12    5   31 1   
    13    6    7 ar  
    14    7    8 1   
    15    8    9 1   
    16    8   10 2   
    17    9   12 1   
    18   10   11 1   
    19   10   32 1   
    20   11   12 2   
    21   12   13 1   
    22   13   14 1   
    23   13   15 1   
    24   13   33 1   
    25   14   34 1   
    26   15   16 1   
    27   15   35 1   
    28   15   36 1   
    29   16   17 1   
    30   16   37 1   
    31   16   38 1   
    32   17   18 1   
    33   17   39 1   
    34   17   40 1   
    35   18   19 1   
    36   18   41 1   
    37   18   42 1   
    38   19   20 1   
    39   19   43 1   
    40   19   44 1   
    41   20   21 1   
    42   20   45 1   
    43   20   46 1   
    44   21   22 ar  
    45   21   26 ar  
    46   22   23 ar  
    47   22   47 1   
    48   23   24 ar  
    49   23   48 1   
    50   24   25 ar  
    51   24   49 1   
    52   25   26 ar  
    53   25   50 1   
    54   26   51 1   
@<TRIPOS>SUBSTRUCTURE
     1 BR1         1 TEMP              0 ****  ****    0 ROOT
