@<TRIPOS>MOLECULE
BR1
   52    45     1     0     0
SMALL
bcc


@<TRIPOS>ATOM
      1 C18         4.7390    4.1630   -3.6750 c1        1 BR1     -0.155000
      2 C19         5.8810    4.7620   -4.1250 c1        1 BR1     -0.076000
      3 C20         7.0980    4.2610   -3.7680 c1        1 BR1     -0.131000
      4 C21         8.3680    4.9300   -4.2600 c2        1 BR1     -0.175000
      5 C22         7.1750    3.1450   -2.9500 c2        1 BR1     -0.046000
      6 N2          6.0350    2.5480   -2.5020 n1        1 BR1     -0.128000
      7 C17         4.8190    3.0470   -2.8570 c1        1 BR1      0.056000
      8 C16         3.5490    2.3450   -2.4050 c1        1 BR1     -0.039000
      9 O2          2.8600    2.6060   -1.2810 os        1 BR1     -0.130000
     10 C15         2.9240    1.3100   -3.0540 c1        1 BR1     -0.108000
     11 N1          1.8560    0.9450   -2.3210 n2        1 BR1     -0.140000
     12 C14         1.8070    1.7410   -1.2220 c1        1 BR1     -0.023000
     13 C1          0.7260    1.7270   -0.1610 c2        1 BR1      0.112000
     14 O1         -0.3020    2.6090   -0.5290 oh        1 BR1     -0.309000
     15 C2          0.1660    0.3250   -0.0290 c3        1 BR1     -0.152000
     16 C3         -0.9450    0.3190    1.0120 c3        1 BR1     -0.159000
     17 C4         -1.6180   -1.0450    1.0280 c3        1 BR1     -0.157000
     18 C5         -2.7160   -1.0570    2.0810 c3        1 BR1     -0.158000
     19 C6         -3.4610   -2.3810    2.0220 c3        1 BR1     -0.155000
     20 C7         -4.6020   -2.3650    3.0250 c3        1 BR1     -0.123000
     21 C8         -5.2640   -3.7320    3.0600 c1        1 BR1     -0.070000
     22 C9         -6.4050   -3.9680    2.3090 c1        1 BR1     -0.129250
     23 C10        -7.0560   -5.1890    2.4010 c1        1 BR1     -0.129250
     24 C11        -6.5650   -6.1750    3.2440 c1        1 BR1     -0.129250
     25 C12        -5.4240   -5.9390    3.9950 c1        1 BR1     -0.129250
     26 C13        -4.7730   -4.7180    3.9030 c1        1 BR1     -0.127000
     27 H1          3.8660    4.5210   -3.9300 ha        1 BR1      0.159000
     28 H2          5.8250    5.5490   -4.7020 ha        1 BR1      0.147000
     29 H3          8.2010    5.3500   -5.1280 h4        1 BR1      0.123000
     30 H4          9.0750    4.2610   -4.3520 h4        1 BR1      0.123000
     31 H6          8.0490    2.7850   -2.6940 h4        1 BR1      0.168000
     32 H7          3.2050    0.9100   -3.8980 DU        1 BR1      0.205000
     33 H8          1.1060    2.0080    0.6950 h4        1 BR1      0.102000
     34 H9         -0.1390    3.4140   -0.1870 ho        1 BR1      0.212000
     35 H10        -0.1940    0.0350   -0.8910 hc        1 BR1      0.107000
     36 H11         0.8770   -0.2860    0.2510 hc        1 BR1      0.107000
     37 H12        -0.5670    0.5070    1.8940 hc        1 BR1      0.087000
     38 H13        -1.6050    1.0060    0.7880 hc        1 BR1      0.087000
     39 H14        -2.0070   -1.2270    0.1500 hc        1 BR1      0.082000
     40 H15        -0.9560   -1.7330    1.2400 hc        1 BR1      0.082000
     41 H16        -3.3410   -0.3230    1.9100 hc        1 BR1      0.079500
     42 H17        -2.3190   -0.9450    2.9690 hc        1 BR1      0.079500
     43 H18        -3.8200   -2.5130    1.1220 hc        1 BR1      0.084500
     44 H19        -2.8470   -3.1100    2.2390 hc        1 BR1      0.084500
     45 H20        -5.2590   -1.6910    2.7600 hc        1 BR1      0.087000
     46 H21        -4.2530   -2.1490    3.9120 hc        1 BR1      0.087000
     47 H22        -6.7510   -3.2740    1.7150 ha        1 BR1      0.130250
     48 H23        -7.8600   -5.3550    1.8720 ha        1 BR1      0.130250
     49 H24        -7.0230   -7.0350    3.3090 ha        1 BR1      0.130250
     50 H25        -5.0780   -6.6330    4.5880 ha        1 BR1      0.130250
     51 H26        -3.9700   -4.5520    4.4320 ha        1 BR1      0.130000
     52 BR1         8.9130    6.2630   -3.0020 br        1 BR1     -0.034000
@<TRIPOS>BOND
     1    1    7 1   
     2    1   27 1   
     3    2    3 1   
     4    2   28 1   
     5    3    5 1   
     6    4   29 1   
     7    4   30 1   
     8    4   52 1   
     9    5    6 1   
    10    5   31 1   
    11    8    9 1   
    12    8   10 1   
    13    9   12 1   
    14   10   11 1   
    15   11   12 1   
    16   13   14 1   
    17   13   15 1   
    18   13   33 1   
    19   14   34 1   
    20   15   16 1   
    21   15   35 1   
    22   15   36 1   
    23   16   17 1   
    24   16   37 1   
    25   16   38 1   
    26   17   18 1   
    27   17   39 1   
    28   17   40 1   
    29   18   19 1   
    30   18   41 1   
    31   18   42 1   
    32   19   20 1   
    33   19   43 1   
    34   19   44 1   
    35   20   21 1   
    36   20   45 1   
    37   20   46 1   
    38   21   26 1   
    39   22   23 1   
    40   22   47 1   
    41   23   48 1   
    42   24   25 1   
    43   24   49 1   
    44   25   50 1   
    45   26   51 1   
@<TRIPOS>SUBSTRUCTURE
     1 BR1         1 TEMP              0 ****  ****    0 ROOT
