@<TRIPOS>MOLECULE
BR1
   52    69     1     0     0
SMALL
bcc


@<TRIPOS>ATOM
      1 C18         0.0000    0.0000    0.0000 c3        1 BR1     -0.092000
      2 C19         1.3830    0.0000    0.0000 c2        1 BR1      0.137000
      3 C20         2.0470    0.0000    1.2200 DU        1 BR1     -0.467000
      4 C21         3.5530    0.0010    1.2650 c3        1 BR1     -0.158000
      5 C22         1.3140    0.0010    2.3920 c2        1 BR1     -0.186000
      6 N2         -0.0030    0.0000    2.3660 n2        1 BR1      0.058000
      7 C17        -0.6770    0.0000    1.2210 c2        1 BR1      0.093000
      8 C16        -2.1540    0.0060    1.2390 c2        1 BR1     -0.325000
      9 O2         -2.9460    0.1070    2.3300 os        1 BR1      0.039000
     10 C15        -2.9780   -0.0830    0.1630 c2        1 BR1     -0.154000
     11 N1         -4.2390   -0.0400    0.6160 n2        1 BR1     -0.075000
     12 C14        -4.2180    0.0730    1.9140 c2        1 BR1      0.133000
     13 C1         -5.4320    0.1580    2.8050 DU        1 BR1     -0.084000
     14 O1         -6.3780    1.0650    2.2360 oh        1 BR1     -0.424000
     15 C2         -6.0680   -1.2280    2.9310 DU        1 BR1     -0.227000
     16 C3         -7.2250   -1.1690    3.9320 DU        1 BR1     -0.308000
     17 C4         -7.8610   -2.5540    4.0590 DU        1 BR1     -0.268000
     18 C5         -9.0160   -2.4950    5.0590 DU        1 BR1     -0.301000
     19 C6         -9.6520   -3.8800    5.1870 DU        1 BR1     -0.288000
     20 C7        -10.8080   -3.8210    6.1870 c3        1 BR1     -0.506000
     21 C8        -11.4360   -5.1860    6.3120 c3        1 BR1     -0.038000
     22 C9        -12.4750   -5.5480    5.4770 c3        1 BR1     -0.340000
     23 C10       -13.0500   -6.8000    5.5910 c3        1 BR1     -0.192000
     24 C11       -12.5850   -7.6900    6.5420 c3        1 BR1     -0.258000
     25 C12       -11.5440   -7.3280    7.3770 c3        1 BR1     -0.336000
     26 C13       -10.9670   -6.0780    7.2590 c2        1 BR1     -0.423000
     27 H1          1.0580    0.2200   -0.0800 hc        1 BR1     -0.069000
     28 H2          0.4080   -0.0000   -0.4720 DU        1 BR1      0.089000
     29 H3          2.9120    0.0000    0.3920 DU        1 BR1      0.274000
     30 H4          3.8880    0.5310    2.1480 h1        1 BR1      0.228000
     31 H6          2.2520   -0.3690    1.9970 DU        1 BR1      0.395000
     32 H7         -2.0750   -0.0670    0.7610 h4        1 BR1      0.405000
     33 H8         -4.7830    0.0800    1.9400 ha        1 BR1      0.115000
     34 H9         -5.8100    0.8130    2.9450 DU        1 BR1      0.304000
     35 H10        -6.1190   -0.1530    2.8090 DU        1 BR1      0.327000
     36 H11        -5.3250   -1.9360    3.2790 ha        1 BR1      0.168000
     37 H12        -6.8320   -1.3580    2.9400 DU        1 BR1      0.189000
     38 H13        -7.9670   -0.4610    3.5830 ha        1 BR1      0.139000
     39 H14        -7.3510   -1.6970    4.4840 DU        1 BR1      0.174000
     40 H15        -8.2350   -2.8690    3.0930 ha        1 BR1      0.103000
     41 H16        -8.0590   -2.8830    4.7320 DU        1 BR1      0.196000
     42 H17        -9.7590   -1.7870    4.7120 ha        1 BR1      0.105000
     43 H18        -9.1430   -3.0240    5.6110 DU        1 BR1      0.199000
     44 H19       -10.0270   -4.1960    4.2200 ha        1 BR1      0.089000
     45 H20        -9.8510   -4.2090    5.8600 DU        1 BR1      0.224000
     46 H21       -10.4330   -3.5060    7.1530 hc        1 BR1      0.129000
     47 H22       -12.0960   -4.5440    5.6250 DU        1 BR1      0.435000
     48 H23       -12.9440   -5.8140    5.1560 DU        1 BR1      0.239000
     49 H24       -13.2330   -7.3840    5.7300 DU        1 BR1      0.220000
     50 H25       -12.2990   -8.0080    7.0020 DU        1 BR1      0.213000
     51 H26       -11.0730   -7.0630    7.6960 DU        1 BR1      0.256000
     52 Br1         4.2080    1.8550    1.2850 br        1 BR1     -0.158000
@<TRIPOS>BOND
     1    1    2 1   
     2    1    7 1   
     3    1   27 1   
     4    1   28 1   
     5    2    3 1   
     6    2   28 1   
     7    3    4 1   
     8    3    5 1   
     9    3   29 1   
    10    3   31 1   
    11    4   29 1   
    12    4   30 1   
    13    4   52 1   
    14    5    6 1   
    15    5   31 1   
    16    6    7 1   
    17    7    8 1   
    18    8    9 1   
    19    8   10 1   
    20    9   12 1   
    21   10   11 1   
    22   10   32 1   
    23   11   12 1   
    24   12   13 1   
    25   13   14 1   
    26   13   15 1   
    27   13   33 1   
    28   13   34 1   
    29   13   35 1   
    30   14   34 1   
    31   15   16 1   
    32   15   35 1   
    33   15   36 1   
    34   15   37 1   
    35   16   17 1   
    36   16   37 1   
    37   16   38 1   
    38   16   39 1   
    39   17   18 1   
    40   17   39 1   
    41   17   40 1   
    42   17   41 1   
    43   18   19 1   
    44   18   41 1   
    45   18   42 1   
    46   18   43 1   
    47   19   20 1   
    48   19   43 1   
    49   19   44 1   
    50   19   45 1   
    51   20   21 1   
    52   20   45 1   
    53   20   46 1   
    54   21   22 1   
    55   21   26 1   
    56   21   47 1   
    57   22   23 1   
    58   22   47 1   
    59   22   48 1   
    60   23   24 1   
    61   23   48 1   
    62   23   49 1   
    63   24   25 1   
    64   24   49 1   
    65   24   50 1   
    66   25   26 1   
    67   25   50 1   
    68   25   51 1   
    69   26   51 1   
@<TRIPOS>SUBSTRUCTURE
     1 BR1         1 TEMP              0 ****  ****    0 ROOT
