@<TRIPOS>MOLECULE
BR2
   49    51     1     0     0
SMALL
bcc


@<TRIPOS>ATOM
      1 C1         -0.4380   -0.3590    0.9840 c         1 BR2      0.572700
      2 C2          0.7970    0.1130    0.3380 ca        1 BR2     -0.259600
      3 O3         -0.7290   -1.5080    1.2720 o         1 BR2     -0.362100
      4 C4          1.5960    1.1380    0.8960 ca        1 BR2      0.170900
      5 C5          2.8490    1.4780    0.3270 ca        1 BR2     -0.001400
      6 C6          3.2620    0.7980   -0.8440 ca        1 BR2     -0.032000
      7 C7          2.4760   -0.1850   -1.4180 ca        1 BR2     -0.139000
      8 C8          1.2420   -0.5430   -0.8350 ca        1 BR2      0.245900
      9 F9          0.4820   -1.4950   -1.4020 f         1 BR2     -0.077900
     10 F10         1.1560    1.7880    2.0020 f         1 BR2     -0.131900
     11 N11         3.7110    2.4510    0.9220 nh        1 BR2     -0.862200
     12 N12        -1.4780    0.6860    1.3200 n4        1 BR2     -0.672800
     13 C13        -2.5650    0.7480    0.2610 c3        1 BR2      0.082400
     14 C14        -3.7160    1.5830    0.7680 c2        1 BR2     -0.115200
     15 C15        -4.0510    2.6720    0.0830 cc        1 BR2     -0.216600
     16 C16        -3.3200    3.1140   -1.1670 cc        1 BR2      0.349300
     17 N17        -2.2990    2.3230   -1.6990 ne        1 BR2     -0.455700
     18 C18        -1.9750    1.2570   -1.0470 c2        1 BR2      0.315200
     19 C19        -5.0770    3.7630    0.1720 cc        1 BR2      0.658600
     20 N20        -4.8840    4.6440   -0.8530 nd        1 BR2     -0.409000
     21 N21        -3.8750    4.2630   -1.6270 nd        1 BR2     -0.116000
     22 O22        -5.9780    3.7680    1.1580 os        1 BR2     -0.389100
     23 C23        -6.9550    4.8370    1.1490 c3        1 BR2      0.113700
     24 S24         5.8880    1.4260    1.7000 s4        1 BR2      1.686300
     25 C25         6.6600    2.7210    2.0480 ca        1 BR2     -0.637500
     26 C26         7.4750    3.3840    1.0860 ca        1 BR2      0.032000
     27 C27         8.2130    4.5060    1.4150 ca        1 BR2     -0.147500
     28 C28         8.1710    5.0190    2.7190 ca        1 BR2      0.051000
     29 C29         7.3750    4.3930    3.6890 ca        1 BR2     -0.147500
     30 C30         6.6370    3.2700    3.3620 ca        1 BR2      0.032000
     31 O31         5.2190    0.7880    2.6900 o         1 BR2     -0.425900
     32 O32         6.0400    0.9040    0.4570 o         1 BR2     -0.425900
     33 H6          4.2390    1.0400   -1.3070 ha        1 BR2      0.193000
     34 H7          2.8070   -0.7080   -2.3350 ha        1 BR2      0.209000
     35 HN11        3.9290    3.1660    0.2440 hn        1 BR2      0.410800
     36 HN12       -1.9190    0.4410    2.2170 hn        1 BR2      0.465800
     37 H14        -4.2590    1.2260    1.6590 ha        1 BR2      0.182000
     38 H18        -1.2140    0.5970   -1.5100 h4        1 BR2      0.046800
     39 H23        -7.5800    4.5940    2.0460 h1        1 BR2      0.085700
     40 H23A       -7.5510    4.7950    0.2060 h1        1 BR2      0.085700
     41 H23B       -6.4380    5.8200    1.2580 h1        1 BR2      0.085700
     42 H26         7.5270    2.9770    0.0580 ha        1 BR2      0.175000
     43 H27         8.8440    4.9970    0.6510 ha        1 BR2      0.192500
     44 H28         8.7690    5.9120    2.9830 ha        1 BR2      0.191000
     45 H29         7.3470    4.7930    4.7180 ha        1 BR2      0.192500
     46 H30         6.0240    2.7730    4.1390 ha        1 BR2      0.175000
     47 H13        -2.9310   -0.3180    0.1060 hx        1 BR2      0.148700
     48 H112        3.2640    2.8780    1.7180 hn        1 BR2      0.410800
     49 H122       -1.0370    1.6080    1.4070 hn        1 BR2      0.465800
@<TRIPOS>BOND
     1    1    2 1   
     2    1    3 2   
     3    1   12 1   
     4    2    4 ar  
     5    2    8 ar  
     6    4    5 ar  
     7    4   10 1   
     8    5    6 ar  
     9    5   11 1   
    10    6    7 ar  
    11    6   33 1   
    12    7    8 ar  
    13    7   34 1   
    14    8    9 1   
    15   11   35 1   
    16   11   48 1   
    17   12   13 1   
    18   12   36 1   
    19   12   49 1   
    20   13   14 1   
    21   13   18 1   
    22   13   47 1   
    23   14   15 2   
    24   14   37 1   
    25   15   16 1   
    26   15   19 1   
    27   16   17 1   
    28   16   21 2   
    29   17   18 2   
    30   18   38 1   
    31   19   20 2   
    32   19   22 1   
    33   20   21 1   
    34   22   23 1   
    35   23   39 1   
    36   23   40 1   
    37   23   41 1   
    38   24   25 1   
    39   24   31 1   
    40   24   32 1   
    41   25   26 ar  
    42   25   30 ar  
    43   26   27 ar  
    44   26   42 1   
    45   27   28 ar  
    46   27   43 1   
    47   28   29 ar  
    48   28   44 1   
    49   29   30 ar  
    50   29   45 1   
    51   30   46 1   
@<TRIPOS>SUBSTRUCTURE
     1 BR2         1 TEMP              0 ****  ****    0 ROOT
