@<TRIPOS>MOLECULE
BR2
   48    51     1     0     0
SMALL
bcc


@<TRIPOS>ATOM
      1 C1         -0.4020   -0.2940    0.3870 c         1 BR2      0.583700
      2 C2          1.0370   -0.2170    0.1260 ca        1 BR2     -0.252600
      3 O3         -1.1090   -1.2860    0.4620 o         1 BR2     -0.393100
      4 C4          1.8980    0.6580    0.8360 ca        1 BR2      0.080900
      5 C5          3.3060    0.6460    0.6270 ca        1 BR2      0.194600
      6 C6          3.8120   -0.2570   -0.3510 ca        1 BR2     -0.083000
      7 C7          2.9810   -1.1080   -1.0490 ca        1 BR2     -0.129000
      8 C8          1.5900   -1.1090   -0.8180 ca        1 BR2      0.202900
      9 F9          0.7930   -1.9460   -1.5110 f         1 BR2     -0.097900
     10 F10         1.3600    1.5110    1.7480 f         1 BR2     -0.152900
     11 N11         4.1380    1.4880    1.3510 nh        1 BR2     -0.742500
     12 N12        -1.1050    1.0440    0.5750 n4        1 BR2     -0.671800
     13 C13        -2.5060    1.0740    0.0200 c3        1 BR2      0.063400
     14 C14        -3.3270    2.1220    0.7320 c2        1 BR2     -0.105200
     15 C15        -3.9250    3.0580    0.0030 cc        1 BR2     -0.228600
     16 C16        -3.7840    3.1420   -1.5050 cc        1 BR2      0.388300
     17 N17        -3.0350    2.1790   -2.1940 ne        1 BR2     -0.472700
     18 C18        -2.4610    1.2610   -1.4950 c2        1 BR2      0.347200
     19 C19        -4.8240    4.2320    0.2350 cc        1 BR2      0.634600
     20 N20        -5.0930    4.8360   -0.9520 nd        1 BR2     -0.405000
     21 N21        -4.4920    4.1990   -1.9610 nd        1 BR2     -0.146000
     22 O22        -5.2240    4.5440    1.4780 os        1 BR2     -0.401100
     23 C23        -6.1080    5.6790    1.6050 c3        1 BR2      0.114700
     24 S24         5.8000    1.3510    1.5850 sy        1 BR2      1.530200
     25 C25         6.1570    2.9160    1.9970 ca        1 BR2     -0.439500
     26 C26         6.4900    3.8600    1.0120 ca        1 BR2     -0.007000
     27 C27         6.8540    5.1570    1.3600 ca        1 BR2     -0.152500
     28 C28         6.8950    5.5310    2.7050 ca        1 BR2     -0.038000
     29 C29         6.5720    4.6030    3.6980 ca        1 BR2     -0.152500
     30 C30         6.2090    3.3080    3.3450 ca        1 BR2     -0.007000
     31 O31         6.0100    0.4890    2.6630 o         1 BR2     -0.635300
     32 O32         6.3780    0.9920    0.3590 o         1 BR2     -0.635300
     33 H6          4.9010   -0.2830   -0.5730 ha        1 BR2      0.216000
     34 H7          3.3970   -1.8050   -1.7990 ha        1 BR2      0.194000
     35 HN11        3.6430    2.1960    1.8490 hn        1 BR2      0.451800
     36 HN12       -0.5440    1.7790    0.1270 hn        1 BR2      0.465300
     37 H14        -3.4380    2.0350    1.8260 ha        1 BR2      0.174000
     38 H18        -1.9100    0.4780   -2.0550 h4        1 BR2      0.060800
     39 H23        -5.5930    6.6010    1.2440 h1        1 BR2      0.078367
     40 H23A       -6.2960    5.7150    2.7080 h1        1 BR2      0.078367
     41 H23B       -7.0480    5.4930    1.0330 h1        1 BR2      0.078367
     42 H26         6.4820    3.5580   -0.0510 ha        1 BR2      0.159000
     43 H27         7.1200    5.8830    0.5760 ha        1 BR2      0.157000
     44 H28         7.1900    6.5560    2.9830 ha        1 BR2      0.154000
     45 H29         6.6160    4.8930    4.7600 ha        1 BR2      0.157000
     46 H30         5.9800    2.5670    4.1320 ha        1 BR2      0.159000
     47 H13        -2.9790    0.0580    0.2290 hx        1 BR2      0.156700
     48 H122       -1.1350    1.2430    1.5850 hn        1 BR2      0.465300
@<TRIPOS>BOND
     1    1    2 1   
     2    1    3 2   
     3    1   12 1   
     4    2    4 ar  
     5    2    8 ar  
     6    4    5 ar  
     7    4   10 1   
     8    5    6 ar  
     9    5   11 1   
    10    6    7 ar  
    11    6   33 1   
    12    7    8 ar  
    13    7   34 1   
    14    8    9 1   
    15   11   24 1   
    16   11   35 1   
    17   12   13 1   
    18   12   36 1   
    19   12   48 1   
    20   13   14 1   
    21   13   18 1   
    22   13   47 1   
    23   14   15 2   
    24   14   37 1   
    25   15   16 1   
    26   15   19 1   
    27   16   17 1   
    28   16   21 2   
    29   17   18 2   
    30   18   38 1   
    31   19   20 2   
    32   19   22 1   
    33   20   21 1   
    34   22   23 1   
    35   23   39 1   
    36   23   40 1   
    37   23   41 1   
    38   24   25 1   
    39   24   31 2   
    40   24   32 2   
    41   25   26 ar  
    42   25   30 ar  
    43   26   27 ar  
    44   26   42 1   
    45   27   28 ar  
    46   27   43 1   
    47   28   29 ar  
    48   28   44 1   
    49   29   30 ar  
    50   29   45 1   
    51   30   46 1   
@<TRIPOS>SUBSTRUCTURE
     1 BR2         1 TEMP              0 ****  ****    0 ROOT
