@<TRIPOS>MOLECULE
BR2
   48    51     1     0     0
SMALL
bcc


@<TRIPOS>ATOM
      1 C1         -0.4260   -0.2780    0.3650 c         1 BR2      0.583700
      2 C2          1.0150   -0.2160    0.1180 ca        1 BR2     -0.252600
      3 O3         -1.1440   -1.2620    0.4320 o         1 BR2     -0.393100
      4 C4          1.8800    0.6480    0.8380 ca        1 BR2      0.080900
      5 C5          3.2890    0.6220    0.6410 ca        1 BR2      0.194600
      6 C6          3.7950   -0.2840   -0.3350 ca        1 BR2     -0.083000
      7 C7          2.9610   -1.1250   -1.0430 ca        1 BR2     -0.129000
      8 C8          1.5670   -1.1110   -0.8240 ca        1 BR2      0.202900
      9 F9          0.7670   -1.9370   -1.5270 f         1 BR2     -0.096900
     10 F10         1.3430    1.5040    1.7480 f         1 BR2     -0.152900
     11 N11         4.1240    1.4520    1.3740 nu        1 BR2     -0.742500
     12 N12        -1.1170    1.0680    0.5520 ny        1 BR2     -0.671800
     13 C13        -2.5130    1.1130   -0.0130 c3        1 BR2      0.063400
     14 C14        -3.3280    2.1680    0.6960 c2        1 BR2     -0.105200
     15 C15        -3.9100    3.1120   -0.0360 cc        1 BR2     -0.228600
     16 C16        -3.7580    3.1980   -1.5430 cc        1 BR2      0.388300
     17 N17        -3.0150    2.2280   -2.2280 ne        1 BR2     -0.472700
     18 C18        -2.4550    1.3020   -1.5270 c2        1 BR2      0.347200
     19 C19        -4.7980    4.2960    0.1930 cc        1 BR2      0.634600
     20 N20        -5.0520    4.9050   -0.9940 nd        1 BR2     -0.405000
     21 N21        -4.4510    4.2630   -2.0010 nd        1 BR2     -0.146000
     22 O22        -5.2030    4.6090    1.4340 os        1 BR2     -0.401100
     23 C23        -6.0750    5.7540    1.5570 c3        1 BR2      0.114700
     24 S24         5.7820    1.2980    1.6220 sy        1 BR2      1.530200
     25 C25         6.1520    2.8570    2.0420 ca        1 BR2     -0.439500
     26 C26         6.5030    3.8010    1.0640 ca        1 BR2     -0.007000
     27 C27         6.8780    5.0930    1.4190 ca        1 BR2     -0.152500
     28 C28         6.9110    5.4620    2.7650 ca        1 BR2     -0.038000
     29 C29         6.5710    4.5350    3.7520 ca        1 BR2     -0.152500
     30 C30         6.1970    3.2450    3.3920 ca        1 BR2     -0.007000
     31 O31         5.9750    0.4290    2.6990 o         1 BR2     -0.635300
     32 O32         6.3670    0.9360    0.4000 o         1 BR2     -0.635300
     33 H6          4.8850   -0.3220   -0.5470 ha        1 BR2      0.216000
     34 H7          3.3750   -1.8240   -1.7910 ha        1 BR2      0.194000
     35 HN11        3.6320    2.1630    1.8710 hn        1 BR2      0.451800
     36 HN12       -1.1500    1.2650    1.5610 hn        1 BR2      0.465300
     37 H14        -3.4470    2.0800    1.7880 ha        1 BR2      0.174000
     38 H18        -1.9100    0.5140   -2.0860 h4        1 BR2      0.060800
     39 H23        -7.0140    5.5800    0.9790 h1        1 BR2      0.078367
     40 H23A       -5.5480    6.6710    1.2020 h1        1 BR2      0.078367
     41 H23B       -6.2710    5.7890    2.6590 h1        1 BR2      0.078367
     42 H26         6.5010    3.5020   -0.0000 ha        1 BR2      0.159000
     43 H27         7.1580    5.8190    0.6400 ha        1 BR2      0.157000
     44 H28         7.2140    6.4840    3.0490 ha        1 BR2      0.154000
     45 H29         6.6090    4.8200    4.8150 ha        1 BR2      0.157000
     46 H30         5.9540    2.5030    4.1750 ha        1 BR2      0.159000
     47 H13        -2.9980    0.1020    0.1910 hx        1 BR2      0.156700
     48 H122       -0.5440    1.7960    0.1090 hn        1 BR2      0.465300
@<TRIPOS>BOND
     1    1    2 1   
     2    1    3 2   
     3    1   12 1   
     4    2    4 ar  
     5    2    8 ar  
     6    4    5 ar  
     7    4   10 1   
     8    5    6 ar  
     9    5   11 1   
    10    6    7 ar  
    11    6   33 1   
    12    7    8 ar  
    13    7   34 1   
    14    8    9 1   
    15   11   24 1   
    16   11   35 1   
    17   12   13 1   
    18   12   36 1   
    19   12   48 1   
    20   13   14 1   
    21   13   18 1   
    22   13   47 1   
    23   14   15 2   
    24   14   37 1   
    25   15   16 1   
    26   15   19 1   
    27   16   17 1   
    28   16   21 2   
    29   17   18 2   
    30   18   38 1   
    31   19   20 2   
    32   19   22 1   
    33   20   21 1   
    34   22   23 1   
    35   23   39 1   
    36   23   40 1   
    37   23   41 1   
    38   24   25 1   
    39   24   31 2   
    40   24   32 2   
    41   25   26 ar  
    42   25   30 ar  
    43   26   27 ar  
    44   26   42 1   
    45   27   28 ar  
    46   27   43 1   
    47   28   29 ar  
    48   28   44 1   
    49   29   30 ar  
    50   29   45 1   
    51   30   46 1   
@<TRIPOS>SUBSTRUCTURE
     1 BR2         1 TEMP              0 ****  ****    0 ROOT
