@<TRIPOS>MOLECULE
BR2
   47    50     1     0     0
SMALL
bcc


@<TRIPOS>ATOM
      1 C1         -0.9190   -1.6650    0.9250 c         1 BR2      0.683700
      2 C2          0.4080   -1.7040    0.2430 ca        1 BR2     -0.194600
      3 O3         -1.0460   -1.9290    2.1340 o         1 BR2     -0.570100
      4 C4          1.5050   -1.0590    0.8480 ca        1 BR2      0.157900
      5 C5          2.8090   -1.1210    0.2630 ca        1 BR2      0.125600
      6 C6          2.9650   -1.8540   -0.9320 ca        1 BR2     -0.111000
      7 C7          1.8840   -2.4740   -1.5400 ca        1 BR2     -0.153000
      8 C8          0.6040   -2.4010   -0.9650 ca        1 BR2      0.148900
      9 F9         -0.4340   -3.0180   -1.5800 f         1 BR2     -0.130900
     10 F10         1.3230   -0.3780    2.0020 f         1 BR2     -0.114900
     11 N11         3.8870   -0.4840    0.8870 nh        1 BR2     -0.765500
     12 N12        -2.0020   -1.2770    0.1530 n         1 BR2     -0.557900
     13 C13        -3.3450   -1.2790    0.6790 c3        1 BR2      0.016600
     14 C14        -3.9460    0.1110    0.7000 c2        1 BR2     -0.009200
     15 C15        -5.1850    0.2820    0.2440 cc        1 BR2     -0.311600
     16 C16        -5.9920   -0.8410   -0.3770 cc        1 BR2      0.461300
     17 N17        -5.4390   -2.1280   -0.4870 ne        1 BR2     -0.562700
     18 C18        -4.2440   -2.2950   -0.0280 c2        1 BR2      0.404200
     19 C19        -6.1620    1.3910    0.1210 cc        1 BR2      0.593600
     20 N20        -7.2970    0.9400   -0.4650 nd        1 BR2     -0.417000
     21 N21        -7.1960   -0.3660   -0.7570 nd        1 BR2     -0.245000
     22 O22        -5.8540    2.6340    0.5650 os        1 BR2     -0.415100
     23 C23        -6.8790    3.6270    0.4080 c3        1 BR2      0.116700
     24 S24         5.2150    0.1960    0.2010 sy        1 BR2      1.521200
     25 C25         4.6480    1.6810   -0.3350 ca        1 BR2     -0.402500
     26 C26         4.2780    1.8710   -1.6730 ca        1 BR2     -0.011000
     27 C27         3.8350    3.1120   -2.1230 ca        1 BR2     -0.155500
     28 C28         3.7580    4.1860   -1.2350 ca        1 BR2     -0.058000
     29 C29         4.1300    4.0150    0.1000 ca        1 BR2     -0.155500
     30 C30         4.5720    2.7720    0.5420 ca        1 BR2     -0.011000
     31 O31         6.1430    0.4000    1.2410 o         1 BR2     -0.644300
     32 O32         5.6360   -0.5620   -0.9080 o         1 BR2     -0.644300
     33 H6          3.9630   -1.9440   -1.4030 ha        1 BR2      0.191000
     34 H7          2.0230   -3.0380   -2.4760 ha        1 BR2      0.166000
     35 HN11        3.7670   -0.4090    1.8760 hn        1 BR2      0.463800
     36 HN12       -1.8990   -1.2010   -0.8320 hn        1 BR2      0.327500
     37 H14        -3.3330    0.9210    1.1250 ha        1 BR2      0.163000
     38 H18        -3.8190   -3.3150   -0.1240 h4        1 BR2      0.044800
     39 H23        -6.4060    4.5440    0.8410 h1        1 BR2      0.060367
     40 H23A       -7.1190    3.7650   -0.6730 h1        1 BR2      0.060367
     41 H23B       -7.7910    3.3330    0.9800 h1        1 BR2      0.060367
     42 H26         4.3570    1.0260   -2.3800 ha        1 BR2      0.153500
     43 H27         3.5510    3.2460   -3.1770 ha        1 BR2      0.145500
     44 H28         3.4070    5.1680   -1.5880 ha        1 BR2      0.141000
     45 H29         4.0790    4.8620    0.8000 ha        1 BR2      0.145500
     46 H30         4.8870    2.6430    1.5930 ha        1 BR2      0.153500
     47 H13        -3.3000   -1.6130    1.7720 h1        1 BR2      0.135700
@<TRIPOS>BOND
     1    1    2 1   
     2    1    3 2   
     3    1   12 1   
     4    2    4 ar  
     5    2    8 ar  
     6    4    5 ar  
     7    4   10 1   
     8    5    6 ar  
     9    5   11 1   
    10    6    7 ar  
    11    6   33 1   
    12    7    8 ar  
    13    7   34 1   
    14    8    9 1   
    15   11   24 1   
    16   11   35 1   
    17   12   13 1   
    18   12   36 1   
    19   13   14 1   
    20   13   18 1   
    21   13   47 1   
    22   14   15 2   
    23   14   37 1   
    24   15   16 1   
    25   15   19 1   
    26   16   17 1   
    27   16   21 2   
    28   17   18 2   
    29   18   38 1   
    30   19   20 2   
    31   19   22 1   
    32   20   21 1   
    33   22   23 1   
    34   23   39 1   
    35   23   40 1   
    36   23   41 1   
    37   24   25 1   
    38   24   31 2   
    39   24   32 2   
    40   25   26 ar  
    41   25   30 ar  
    42   26   27 ar  
    43   26   42 1   
    44   27   28 ar  
    45   27   43 1   
    46   28   29 ar  
    47   28   44 1   
    48   29   30 ar  
    49   29   45 1   
    50   30   46 1   
@<TRIPOS>SUBSTRUCTURE
     1 BR2         1 TEMP              0 ****  ****    0 ROOT
