@<TRIPOS>MOLECULE
BR2
   47    42     1     0     0
SMALL
bcc


@<TRIPOS>ATOM
      1 C1         -1.0190   -0.6230   -0.9640 c1        1 BR2      0.358000
      2 C2          0.4940   -0.7800   -0.9770 c1        1 BR2     -0.169000
      3 O3         -1.6330   -0.5960    0.1260 o         1 BR2     -0.334000
      4 C4          0.8530   -0.6630    0.3550 c2        1 BR2      0.118000
      5 C5          2.0750   -1.1960    0.8010 c1        1 BR2      0.050000
      6 C6          2.9170   -1.8360   -0.0880 c2        1 BR2     -0.119000
      7 C7          2.5560   -1.9550   -1.4300 c1        1 BR2     -0.146000
      8 C8          1.3490   -1.4300   -1.8770 c1        1 BR2      0.109000
      9 F9          0.9960   -1.5680   -3.1500 f         1 BR2     -0.097000
     10 F10         0.0850    0.0260    1.1920 f         1 BR2     -0.082000
     11 N11         2.4220   -1.1240    2.1920 n2        1 BR2     -0.819000
     12 N12        -1.7650   -0.6880   -2.2190 n3        1 BR2     -0.367000
     13 C13        -3.2440   -0.7190   -2.1990 c3        1 BR2      0.012000
     14 C14        -3.8010    0.6840   -2.3460 c2        1 BR2     -0.006000
     15 C15        -4.7240    1.0020   -3.4790 c1        1 BR2     -0.181000
     16 C16        -4.8570    0.0430   -4.6280 c1        1 BR2     -0.086000
     17 N17        -4.2730   -1.2780   -4.5320 n2        1 BR2     -0.057000
     18 C18        -3.7780   -1.7480   -3.2700 c2        1 BR2     -0.087000
     19 C19        -4.5860    2.3280   -4.2330 c2        1 BR2      0.095000
     20 N20        -4.6430    2.0960   -5.6320 n1        1 BR2     -0.155000
     21 N21        -4.8060    0.7640   -5.8750 n1        1 BR2      0.018000
     22 O22        -5.1490    3.5330   -3.6760 os        1 BR2     -0.173000
     23 C23        -5.1870    4.6330   -4.5870 c3        1 BR2     -0.073000
     24 S24         3.9940   -0.7960    2.6490 s4        1 BR2      2.087800
     25 C25         4.0670   -0.4750    4.4400 c1        1 BR2     -0.849000
     26 C26         4.1110    0.8210    4.9060 c2        1 BR2     -0.013000
     27 C27         4.1610    1.0660    6.2630 c1        1 BR2     -0.156000
     28 C28         4.1670    0.0170    7.1520 c1        1 BR2     -0.105000
     29 C29         4.1230   -1.2770    6.6880 c1        1 BR2     -0.105000
     30 C30         4.0730   -1.5220    5.3270 c1        1 BR2     -0.008000
     31 O31         4.5410    0.3030    1.8970 o         1 BR2     -0.537900
     32 O32         4.8890   -1.8670    2.2700 o         1 BR2     -0.537900
     33 H6          3.7270   -2.1890    0.2090 ha        1 BR2      0.188000
     34 H7          3.1560   -2.4110   -2.0620 ha        1 BR2      0.166000
     35 HN11        1.7970   -1.2450    2.8120 hn        1 BR2      0.255000
     36 HN12       -1.3030   -0.8240   -3.0330 hn        1 BR2      0.242000
     37 H14        -3.6530    1.3360   -1.6480 ha        1 BR2      0.163000
     38 H18        -3.8570   -2.7030   -3.0360 h4        1 BR2      0.174000
     39 H23        -4.2860    4.7380   -5.0260 h1        1 BR2      0.099333
     40 H23A       -5.8320    4.4750   -5.2370 h1        1 BR2      0.099333
     41 H23B       -5.4160    5.4720   -4.0870 h1        1 BR2      0.099333
     42 H26         4.1070    1.5350    4.3010 ha        1 BR2      0.159000
     43 H27         4.1910    1.9500    6.5800 ha        1 BR2      0.147000
     44 H28         4.2020    0.1880    8.0990 ha        1 BR2      0.145000
     45 H29         4.1270   -2.0260    7.3230 ha        1 BR2      0.145000
     46 H30         4.0420   -2.4190    5.0060 ha        1 BR2      0.156000
     47 H13        -3.4090   -1.0540   -1.2970 h1        1 BR2      0.174000
@<TRIPOS>BOND
     1    1    3 1   
     2    1   12 1   
     3    2    4 1   
     4    2    8 1   
     5    4    5 1   
     6    4   10 1   
     7    5    6 1   
     8    6    7 1   
     9    6   33 1   
    10    7   34 1   
    11    8    9 1   
    12   11   24 1   
    13   11   35 1   
    14   12   13 1   
    15   12   36 1   
    16   13   14 1   
    17   13   18 1   
    18   13   47 1   
    19   14   15 1   
    20   14   37 1   
    21   15   19 1   
    22   16   17 1   
    23   16   21 1   
    24   17   18 1   
    25   18   38 1   
    26   19   20 1   
    27   19   22 1   
    28   22   23 1   
    29   23   39 1   
    30   23   40 1   
    31   23   41 1   
    32   24   31 1   
    33   24   32 1   
    34   25   26 1   
    35   25   30 1   
    36   26   27 1   
    37   26   42 1   
    38   27   43 1   
    39   28   29 1   
    40   28   44 1   
    41   29   45 1   
    42   30   46 1   
@<TRIPOS>SUBSTRUCTURE
     1 BR2         1 TEMP              0 ****  ****    0 ROOT
