@<TRIPOS>MOLECULE
BR3
   29    30     1     0     0
SMALL
bcc


@<TRIPOS>ATOM
      1 CA1        -0.1910    0.4710   -0.1590 ca        1 BR3     -0.173000
      2 CB2         1.1830    0.1970   -0.0140 ca        1 BR3      0.158100
      3 O           1.6790    0.2830    1.2590 os        1 BR3     -0.335900
      4 CZ2         3.0120   -0.2660    1.4680 c3        1 BR3      0.188100
      5 CA2         3.4510    0.2260    2.8190 c3        1 BR3     -0.333600
      6 P           4.1840   -1.0480    3.7070 p5        1 BR3      1.261600
      7 OP1         5.1070   -1.7790    2.8020 o         1 BR3     -0.878500
      8 OP2         4.6330   -0.5180    5.0150 o         1 BR3     -0.878500
      9 CZ3         3.9420    0.1390    0.3320 c3        1 BR3     -0.108400
     10 CE3         3.4190   -0.3860   -0.9900 c3        1 BR3     -0.030100
     11 CG2         1.9680   -0.1080   -1.1440 ca        1 BR3     -0.148300
     12 CD          1.3610   -0.1450   -2.3990 ca        1 BR3     -0.097000
     13 CG1        -0.0030    0.1200   -2.5510 ca        1 BR3     -0.140300
     14 CB1        -0.7690    0.4320   -1.4200 ca        1 BR3     -0.107000
     15 CH2        -0.6350    0.0600   -3.8880 c3        1 BR3     -0.035800
     16 HA1        -0.7840    0.7140    0.7330 ha        1 BR3      0.141000
     17 HZ2         2.9020   -1.3890    1.4830 h1        1 BR3      0.067700
     18 HA21        2.5720    0.6260    3.3820 hc        1 BR3      0.075200
     19 HA22        4.1700    1.0720    2.7150 hc        1 BR3      0.075200
     20 HZ31        4.0230    1.2550    0.2970 hc        1 BR3      0.068200
     21 HZ32        4.9620   -0.2860    0.5310 hc        1 BR3      0.068200
     22 HE31        3.5880   -1.4960   -1.0450 hc        1 BR3      0.046200
     23 HE32        3.9920    0.0800   -1.8350 hc        1 BR3      0.046200
     24 HD          1.9710   -0.3850   -3.2830 ha        1 BR3      0.120000
     25 HB1        -1.8420    0.6460   -1.5330 ha        1 BR3      0.117000
     26 HH21        0.1050    0.2890   -4.6930 hc        1 BR3      0.030033
     27 HH22       -1.0460   -0.9650   -4.0750 hc        1 BR3      0.030033
     28 HH23       -1.4780    0.7900   -3.9660 hc        1 BR3      0.030033
     29 HP1         3.0920   -1.7900    3.8850 hp        1 BR3     -0.256400
@<TRIPOS>BOND
     1    1    2 ar  
     2    1   14 ar  
     3    1   16 1   
     4    2    3 1   
     5    2   11 ar  
     6    3    4 1   
     7    4    5 1   
     8    4    9 1   
     9    4   17 1   
    10    5    6 1   
    11    5   18 1   
    12    5   19 1   
    13    6    7 1   
    14    6    8 1   
    15    6   29 1   
    16    9   10 1   
    17    9   20 1   
    18    9   21 1   
    19   10   11 1   
    20   10   22 1   
    21   10   23 1   
    22   11   12 ar  
    23   12   13 ar  
    24   12   24 1   
    25   13   14 ar  
    26   13   15 1   
    27   14   25 1   
    28   15   26 1   
    29   15   27 1   
    30   15   28 1   
@<TRIPOS>SUBSTRUCTURE
     1 BR3         1 TEMP              0 ****  ****    0 ROOT
