@<TRIPOS>MOLECULE
BR3
   29    30     1     0     0
SMALL
bcc


@<TRIPOS>ATOM
      1 CA1        -1.9680   -0.2450    0.1350 ca        1 BR3     -0.173000
      2 CB2        -3.0370   -0.0820    1.0380 ca        1 BR3      0.158100
      3 O          -4.0180   -1.0350    0.9800 os        1 BR3     -0.335900
      4 CZ2        -4.9720   -1.0440    2.0830 c3        1 BR3      0.188100
      5 CA2        -6.1020   -1.9300    1.6400 c3        1 BR3     -0.333600
      6 P          -6.5700   -2.9780    2.9160 p5        1 BR3      1.261600
      7 OP1        -6.6430   -2.1870    4.1700 o         1 BR3     -0.878500
      8 OP2        -7.7050   -3.8110    2.4550 o         1 BR3     -0.878500
      9 CZ3        -5.4000    0.3760    2.4300 c3        1 BR3     -0.108400
     10 CE3        -4.2020    1.2000    2.8520 c3        1 BR3     -0.030100
     11 CG2        -3.0690    1.0270    1.9060 ca        1 BR3     -0.148300
     12 CD         -2.0240    1.9510    1.8630 ca        1 BR3     -0.097000
     13 CG1        -0.9590    1.7960    0.9720 ca        1 BR3     -0.140300
     14 CB1        -0.9440    0.6920    0.1090 ca        1 BR3     -0.108000
     15 CH2         0.1350    2.7920    0.9270 c3        1 BR3     -0.034800
     16 HA1        -1.9640   -1.1140   -0.5360 ha        1 BR3      0.141000
     17 HZ2        -4.4420   -1.5050    2.9660 h1        1 BR3      0.067700
     18 HA21       -5.7890   -2.5300    0.7500 hc        1 BR3      0.075200
     19 HA22       -6.9770   -1.3200    1.3150 hc        1 BR3      0.075200
     20 HZ31       -6.1440    0.3320    3.2700 hc        1 BR3      0.068200
     21 HZ32       -5.8960    0.8440    1.5420 hc        1 BR3      0.068200
     22 HE31       -3.8730    0.8850    3.8800 hc        1 BR3      0.046700
     23 HE32       -4.4900    2.2830    2.9120 hc        1 BR3      0.046700
     24 HD         -2.0450    2.8160    2.5420 ha        1 BR3      0.120000
     25 HB1        -0.1080    0.5640   -0.5940 ha        1 BR3      0.117000
     26 HH21        0.2350    3.3240    1.9050 hc        1 BR3      0.030033
     27 HH22        1.1120    2.3010    0.6920 hc        1 BR3      0.030033
     28 HH23       -0.0700    3.5550    0.1340 hc        1 BR3      0.030033
     29 HP1        -5.4660   -3.7220    2.9500 hp        1 BR3     -0.256400
@<TRIPOS>BOND
     1    1    2 ar  
     2    1   14 ar  
     3    1   16 1   
     4    2    3 1   
     5    2   11 ar  
     6    3    4 1   
     7    4    5 1   
     8    4    9 1   
     9    4   17 1   
    10    5    6 1   
    11    5   18 1   
    12    5   19 1   
    13    6    7 1   
    14    6    8 1   
    15    6   29 1   
    16    9   10 1   
    17    9   20 1   
    18    9   21 1   
    19   10   11 1   
    20   10   22 1   
    21   10   23 1   
    22   11   12 ar  
    23   12   13 ar  
    24   12   24 1   
    25   13   14 ar  
    26   13   15 1   
    27   14   25 1   
    28   15   26 1   
    29   15   27 1   
    30   15   28 1   
@<TRIPOS>SUBSTRUCTURE
     1 BR3         1 TEMP              0 ****  ****    0 ROOT
