@<TRIPOS>MOLECULE
BR3
   29    30     1     0     0
SMALL
bcc


@<TRIPOS>ATOM
      1 CA1        -0.1760    0.5230   -0.1580 ca        1 BR3     -0.173000
      2 CB2         1.1910    0.2140   -0.0150 ca        1 BR3      0.158100
      3 O           1.6910    0.2970    1.2580 os        1 BR3     -0.335900
      4 CZ2         3.0100   -0.2860    1.4690 c3        1 BR3      0.188100
      5 CA2         3.4650    0.2050    2.8140 c3        1 BR3     -0.333600
      6 P           4.1650   -1.0800    3.7110 p5        1 BR3      1.261600
      7 OP1         5.0670   -1.8430    2.8120 o         1 BR3     -0.878500
      8 OP2         4.6310   -0.5520    5.0150 o         1 BR3     -0.878500
      9 CZ3         3.9480    0.0830    0.3270 c3        1 BR3     -0.108400
     10 CE3         3.4080   -0.4380   -0.9890 c3        1 BR3     -0.030100
     11 CG2         1.9650   -0.1210   -1.1430 ca        1 BR3     -0.148300
     12 CD          1.3540   -0.1520   -2.3970 ca        1 BR3     -0.097000
     13 CG1        -0.0020    0.1500   -2.5490 ca        1 BR3     -0.140300
     14 CB1        -0.7570    0.4890   -1.4180 ca        1 BR3     -0.108000
     15 CH2        -0.6320    0.1280   -3.8880 c3        1 BR3     -0.034800
     16 HA1        -0.7610    0.7850    0.7330 ha        1 BR3      0.141000
     17 HZ2         2.8690   -1.4060    1.4930 h1        1 BR3      0.067700
     18 HA21        4.2050    1.0310    2.7010 hc        1 BR3      0.075200
     19 HA22        2.5980    0.6330    3.3760 hc        1 BR3      0.075200
     20 HZ31        4.0600    1.1970    0.2820 hc        1 BR3      0.068200
     21 HZ32        4.9560   -0.3670    0.5280 hc        1 BR3      0.068200
     22 HE31        3.5460   -1.5530   -1.0350 hc        1 BR3      0.046700
     23 HE32        3.9920    0.0050   -1.8390 hc        1 BR3      0.046700
     24 HD          1.9560   -0.4170   -3.2800 ha        1 BR3      0.120000
     25 HB1        -1.8250    0.7280   -1.5310 ha        1 BR3      0.117000
     26 HH21       -0.0810   -0.5540   -4.5810 hc        1 BR3      0.030033
     27 HH22       -1.6930   -0.2190   -3.8230 hc        1 BR3      0.030033
     28 HH23       -0.6290    1.1550   -4.3330 hc        1 BR3      0.030033
     29 HP1         3.0550   -1.7920    3.8980 hp        1 BR3     -0.256400
@<TRIPOS>BOND
     1    1    2 ar  
     2    1   14 ar  
     3    1   16 1   
     4    2    3 1   
     5    2   11 ar  
     6    3    4 1   
     7    4    5 1   
     8    4    9 1   
     9    4   17 1   
    10    5    6 1   
    11    5   18 1   
    12    5   19 1   
    13    6    7 1   
    14    6    8 1   
    15    6   29 1   
    16    9   10 1   
    17    9   20 1   
    18    9   21 1   
    19   10   11 1   
    20   10   22 1   
    21   10   23 1   
    22   11   12 ar  
    23   12   13 ar  
    24   12   24 1   
    25   13   14 ar  
    26   13   15 1   
    27   14   25 1   
    28   15   26 1   
    29   15   27 1   
    30   15   28 1   
@<TRIPOS>SUBSTRUCTURE
     1 BR3         1 TEMP              0 ****  ****    0 ROOT
