@<TRIPOS>MOLECULE
BR3
   29    27     1     0     0
SMALL
bcc


@<TRIPOS>ATOM
      1 CA1        -2.2230   -0.3650    0.4120 c1        1 BR3     -0.171000
      2 CB2        -0.8470   -0.4210    0.4340 c1        1 BR3      0.117000
      3 O          -0.0480   -0.3860    1.7330 o         1 BR3     -0.212000
      4 CZ2         1.3240   -0.2760    1.6320 c3        1 BR3      0.047000
      5 CA2         1.6890    1.2970    1.5050 c3        1 BR3     -0.847000
      6 P           2.0350    1.9730    3.1480 p5        1 BR3      2.050000
      7 OP1         0.6880    2.0910    3.9620 o         1 BR3     -0.875000
      8 OP2         2.9680    1.0780    3.8630 o         1 BR3     -0.875000
      9 CZ3         1.9650   -0.9760    0.5130 c3        1 BR3     -0.181000
     10 CE3         1.4580   -0.7190   -0.7490 c3        1 BR3     -0.112000
     11 CG2        -0.0890   -0.4950   -0.8380 c2        1 BR3     -0.139000
     12 CD         -0.7690   -0.5080   -2.0470 c1        1 BR3     -0.097000
     13 CG1        -2.1820   -0.4510   -2.0660 c1        1 BR3     -0.133000
     14 CB1        -2.9160   -0.3790   -0.8330 c1        1 BR3     -0.107000
     15 CH2        -2.9370   -0.4790   -3.4120 c3        1 BR3     -0.160000
     16 HA1        -2.7240   -0.3170    1.2500 ha        1 BR3      0.142000
     17 HZ2         1.7190   -0.6170    2.4700 h1        1 BR3      0.176000
     18 HA21        2.4860    1.4040    0.9320 hc        1 BR3      0.113000
     19 HA22        0.9340    1.7760    1.1070 hc        1 BR3      0.113000
     20 HZ31        2.9060   -0.7160    0.5080 hc        1 BR3      0.091000
     21 HZ32        1.8720   -1.9470    0.6780 hc        1 BR3      0.091000
     22 HE31        1.6770   -1.4830   -1.3140 hc        1 BR3      0.083500
     23 HE32        1.8940    0.0950   -1.0820 hc        1 BR3      0.083500
     24 HD         -0.2710   -0.5570   -2.8860 ha        1 BR3      0.118000
     25 HB1        -3.9000   -0.3390   -0.8470 ha        1 BR3      0.117000
     26 HH21       -3.8330   -0.0950   -3.2930 hc        1 BR3      0.068667
     27 HH22       -2.4390    0.0500   -4.0800 hc        1 BR3      0.068667
     28 HH23       -3.0180   -1.4100   -3.7240 hc        1 BR3      0.068667
     29 HP1         2.5810    3.1710    3.0260 hp        1 BR3     -0.640000
@<TRIPOS>BOND
     1    1    2 1   
     2    1   16 1   
     3    2   11 1   
     4    3    4 1   
     5    4    5 1   
     6    4    9 1   
     7    4   17 1   
     8    5    6 1   
     9    5   18 1   
    10    5   19 1   
    11    6    7 1   
    12    6    8 1   
    13    6   29 1   
    14    9   10 1   
    15    9   20 1   
    16    9   21 1   
    17   10   11 1   
    18   10   22 1   
    19   10   23 1   
    20   11   12 1   
    21   12   24 1   
    22   13   14 1   
    23   13   15 1   
    24   14   25 1   
    25   15   26 1   
    26   15   27 1   
    27   15   28 1   
@<TRIPOS>SUBSTRUCTURE
     1 BR3         1 TEMP              0 ****  ****    0 ROOT
