@<TRIPOS>MOLECULE
BR4
   61    57     1     0     0
SMALL
bcc


@<TRIPOS>ATOM
      1 C9          3.2450    0.1140    2.7080 c3        1 BR4     -0.161000
      2 C8          4.7860    0.0680    2.7070 c3        1 BR4     -0.153000
      3 C7          5.2890   -0.2970    4.1140 c3        1 BR4     -0.127000
      4 C6          6.8370   -0.2840    4.1290 c2        1 BR4     -0.064000
      5 C1          7.5190    0.9040    4.3680 c2        1 BR4     -0.127000
      6 C5          7.5420   -1.4340    3.8100 c1        1 BR4     -0.128000
      7 C2          8.9060    0.9370    4.2880 c1        1 BR4     -0.130000
      8 C4          8.9340   -1.4010    3.7300 c1        1 BR4     -0.136750
      9 C3          9.6120   -0.2190    3.9680 c1        1 BR4     -0.136750
     10 C13        -0.8650    0.6390   -0.1890 c1        1 BR4      0.296000
     11 O1         -1.4840    0.5300    0.8570 o         1 BR4     -0.391000
     12 C12         0.6910    0.5990   -0.1800 c2        1 BR4     -0.186000
     13 C11         1.1960    0.3740    1.2670 c3        1 BR4     -0.159000
     14 C10         2.7410    0.4060    1.2850 c3        1 BR4     -0.156000
     15 N1         -1.5860    0.7640   -1.4540 n3        1 BR4     -0.364000
     16 C23        -3.5770    2.1060   -1.7220 c3        1 BR4     -0.158000
     17 C14        -3.0330    0.7200   -1.4710 c3        1 BR4      0.015000
     18 C15        -3.4970   -0.2100   -2.5710 c3        1 BR4     -0.157000
     19 C16        -4.6210   -1.1140   -2.0380 c3        1 BR4     -0.133000
     20 C17        -5.4070   -1.7110   -3.2240 c2        1 BR4     -0.058000
     21 C18        -4.9320   -2.8430   -3.8700 c2        1 BR4     -0.134000
     22 C22        -6.5890   -1.1170   -3.6440 c1        1 BR4     -0.122000
     23 C19        -5.6420   -3.3840   -4.9420 c1        1 BR4     -0.140000
     24 C21        -7.2960   -1.6560   -4.7110 c1        1 BR4     -0.136750
     25 C20        -6.8200   -2.7920   -5.3600 c1        1 BR4     -0.136750
     26 C24        -4.8250    2.3310   -0.8590 c3        1 BR4     -0.227000
     27 C25        -5.6310    3.5010   -1.4230 c2        1 BR4      0.329000
     28 O2         -5.4580    4.6670   -0.9660 o         1 BR4     -0.582000
     29 OT3        -6.4990    3.2960   -2.3120 o         1 BR4     -0.582000
     30 H91         2.8940   -0.7450    3.0080 hc        1 BR4      0.084500
     31 H92         2.9410    0.8190    3.3120 hc        1 BR4      0.084500
     32 H81         5.0920   -0.6070    2.0660 hc        1 BR4      0.080500
     33 H82         5.1370    0.9410    2.4520 hc        1 BR4      0.080500
     34 H71         4.9690   -1.1870    4.3540 hc        1 BR4      0.090500
     35 H72         4.9520    0.3550    4.7590 hc        1 BR4      0.090500
     36 H11         7.0280    1.6960    4.6710 ha        1 BR4      0.133000
     37 H51         7.0630   -2.2680    3.6430 ha        1 BR4      0.132000
     38 H21         9.3840    1.7700    4.4560 ha        1 BR4      0.127000
     39 H41         9.4300   -2.2120    3.5050 ha        1 BR4      0.124250
     40 H31        10.5950   -0.1950    3.9100 ha        1 BR4      0.124250
     41 H121        1.0020   -0.1340   -0.7530 ha        1 BR4      0.100500
     42 H122        1.0410    1.4470   -0.5190 ha        1 BR4      0.100500
     43 H111        0.8840   -0.4950    1.5890 hc        1 BR4      0.092500
     44 H112        0.8500    1.0790    1.8460 hc        1 BR4      0.092500
     45 H101        3.0880   -0.2700    0.6730 hc        1 BR4      0.076500
     46 H102        3.0530    1.2930    1.0040 hc        1 BR4      0.076500
     47 HN11       -1.1210    0.8490   -2.2380 hn        1 BR4      0.218000
     48 H231       -2.8970    2.7700   -1.4910 hc        1 BR4      0.091000
     49 H232       -3.8140    2.1970   -2.6690 hc        1 BR4      0.091000
     50 H141       -3.3590    0.3930   -0.6070 h1        1 BR4      0.110000
     51 H151       -2.7460   -0.7640   -2.8670 hc        1 BR4      0.084500
     52 H152       -3.8310    0.3150   -3.3220 hc        1 BR4      0.084500
     53 H161       -5.2270   -0.5860   -1.4780 hc        1 BR4      0.100000
     54 H162       -4.2320   -1.8390   -1.5060 hc        1 BR4      0.100000
     55 H181       -4.1460   -3.3060   -3.5250 ha        1 BR4      0.128000
     56 H221       -6.9030   -0.2990   -3.2130 ha        1 BR4      0.158000
     57 H191       -5.3060   -4.1860   -5.3990 ha        1 BR4      0.117000
     58 H211       -8.1310   -1.2370   -5.0070 ha        1 BR4      0.124250
     59 H201       -7.2940   -3.1440   -6.1380 ha        1 BR4      0.124250
     60 H241       -4.5550    2.5330    0.0570 hc        1 BR4      0.063500
     61 H242       -5.3770    1.5220   -0.8650 hc        1 BR4      0.063500
@<TRIPOS>BOND
     1    1    2 1   
     2    1   14 1   
     3    1   30 1   
     4    1   31 1   
     5    2    3 1   
     6    2   32 1   
     7    2   33 1   
     8    3    4 1   
     9    3   34 1   
    10    3   35 1   
    11    4    5 1   
    12    4    6 1   
    13    5    7 1   
    14    5   36 1   
    15    6   37 1   
    16    7   38 1   
    17    8    9 1   
    18    8   39 1   
    19    9   40 1   
    20   10   11 1   
    21   10   15 1   
    22   12   13 1   
    23   12   41 1   
    24   12   42 1   
    25   13   14 1   
    26   13   43 1   
    27   13   44 1   
    28   14   45 1   
    29   14   46 1   
    30   15   17 1   
    31   15   47 1   
    32   16   17 1   
    33   16   26 1   
    34   16   48 1   
    35   16   49 1   
    36   17   18 1   
    37   17   50 1   
    38   18   19 1   
    39   18   51 1   
    40   18   52 1   
    41   19   20 1   
    42   19   53 1   
    43   19   54 1   
    44   20   21 1   
    45   20   22 1   
    46   21   23 1   
    47   21   55 1   
    48   22   56 1   
    49   23   57 1   
    50   24   25 1   
    51   24   58 1   
    52   25   59 1   
    53   26   27 1   
    54   26   60 1   
    55   26   61 1   
    56   27   28 1   
    57   27   29 1   
@<TRIPOS>SUBSTRUCTURE
     1 BR4         1 TEMP              0 ****  ****    0 ROOT
