@<TRIPOS>MOLECULE
BR4
   62    63     1     0     0
SMALL
bcc


@<TRIPOS>ATOM
      1 C9          0.0460    0.0010   -0.0280 c3        1 BR4     -0.079400
      2 C8          1.5590   -0.0300   -0.0670 c3        1 BR4     -0.076400
      3 C7          2.1400   -0.0470    1.3340 c3        1 BR4     -0.037100
      4 C6          3.6270   -0.1120    1.3130 ca        1 BR4     -0.078300
      5 C1          4.3930    1.0160    1.6270 ca        1 BR4     -0.128000
      6 C5          4.2740   -1.3100    0.9860 ca        1 BR4     -0.128000
      7 C2          5.7860    0.9460    1.6130 ca        1 BR4     -0.128000
      8 C4          5.6650   -1.3780    0.9720 ca        1 BR4     -0.128000
      9 C3          6.4240   -0.2500    1.2860 ca        1 BR4     -0.133000
     10 C13        -4.1430    0.0740   -2.7440 c         1 BR4      0.649100
     11 O1         -4.7860   -0.1100   -1.6910 o         1 BR4     -0.604100
     12 C12        -2.6270    0.0910   -2.7810 c3        1 BR4     -0.150400
     13 C11        -2.0480    0.0520   -1.3830 c3        1 BR4     -0.075400
     14 C10        -0.5360    0.0290   -1.4250 c3        1 BR4     -0.079400
     15 N1         -4.8010    0.3160   -3.9410 n         1 BR4     -0.580900
     16 C23        -7.0130    1.4290   -4.1300 c3        1 BR4     -0.090400
     17 C14        -6.2260    0.1040   -4.0920 c3        1 BR4      0.091700
     18 C15        -6.5750   -0.6940   -5.3600 c3        1 BR4     -0.095400
     19 C16        -5.9880   -2.0920   -5.3400 c3        1 BR4     -0.037100
     20 C17        -6.4980   -2.9100   -6.4760 ca        1 BR4     -0.084300
     21 C18        -5.6800   -3.1890   -7.5760 ca        1 BR4     -0.127000
     22 C22        -7.8030   -3.4170   -6.4450 ca        1 BR4     -0.127000
     23 C19        -6.1620   -3.9620   -8.6320 ca        1 BR4     -0.126500
     24 C21        -8.2820   -4.1890   -7.5010 ca        1 BR4     -0.126500
     25 C20        -7.4620   -4.4630   -8.5970 ca        1 BR4     -0.129000
     26 C24        -7.0760    2.0980   -2.7710 c3        1 BR4     -0.187400
     27 C25        -6.7120    3.5500   -2.8450 c         1 BR4      0.627100
     28 O2         -7.4170    4.5130   -2.5490 o         1 BR4     -0.492000
     29 OT3        -5.4610    3.8990   -3.2770 oh        1 BR4     -0.587100
     30 H91        -0.3360   -0.9000    0.5210 hc        1 BR4      0.044200
     31 H92        -0.2980    0.9050    0.5400 hc        1 BR4      0.044200
     32 H81         1.9410    0.8670   -0.6220 hc        1 BR4      0.044200
     33 H82         1.9060   -0.9390   -0.6260 hc        1 BR4      0.044200
     34 H71         1.7380   -0.9350    1.8920 hc        1 BR4      0.048700
     35 H72         1.8020    0.8710    1.8870 hc        1 BR4      0.048700
     36 H11         3.8950    1.9610    1.8880 ha        1 BR4      0.130500
     37 H51         3.6760   -2.2000    0.7390 ha        1 BR4      0.130500
     38 H21         6.3810    1.8370    1.8630 ha        1 BR4      0.130500
     39 H41         6.1660   -2.3230    0.7150 ha        1 BR4      0.130500
     40 H31         7.5220   -0.3040    1.2760 ha        1 BR4      0.130000
     41 H121       -2.2680    1.0110   -3.3140 hc        1 BR4      0.064200
     42 H122       -2.2760   -0.8010   -3.3650 hc        1 BR4      0.064200
     43 H111       -2.4340   -0.8540   -0.8450 hc        1 BR4      0.061200
     44 H112       -2.4030    0.9470   -0.8070 hc        1 BR4      0.061200
     45 H101       -0.1580    0.9330   -1.9720 hc        1 BR4      0.039200
     46 H102       -0.1870   -0.8730   -1.9950 hc        1 BR4      0.039200
     47 HN11       -4.2670    0.3470   -4.7760 hn        1 BR4      0.305500
     48 H231       -8.0560    1.2040   -4.4750 hc        1 BR4      0.057200
     49 H232       -6.5600    2.1170   -4.8920 hc        1 BR4      0.057200
     50 H141       -6.5870   -0.4840   -3.1910 h1        1 BR4      0.085700
     51 H151       -7.6930   -0.7690   -5.4230 hc        1 BR4      0.055700
     52 H152       -6.2250   -0.1440   -6.2710 hc        1 BR4      0.055700
     53 H161       -6.2550   -2.5950   -4.3710 hc        1 BR4      0.050700
     54 H162       -4.8670   -2.0380   -5.3870 hc        1 BR4      0.050700
     55 H181       -4.6520   -2.7990   -7.6090 ha        1 BR4      0.130000
     56 H221       -8.4490   -3.2050   -5.5810 ha        1 BR4      0.130000
     57 H191       -5.5120   -4.1770   -9.4930 ha        1 BR4      0.132500
     58 H211       -9.3080   -4.5850   -7.4700 ha        1 BR4      0.132500
     59 H201       -7.8410   -5.0730   -9.4300 ha        1 BR4      0.133000
     60 H241       -8.1140    2.0160   -2.3500 hc        1 BR4      0.094700
     61 H242       -6.3820    1.5970   -2.0390 hc        1 BR4      0.094700
     62 H12        -4.9520    3.1000   -3.4730 ho        1 BR4      0.426000
@<TRIPOS>BOND
     1    1    2 1   
     2    1   14 1   
     3    1   30 1   
     4    1   31 1   
     5    2    3 1   
     6    2   32 1   
     7    2   33 1   
     8    3    4 1   
     9    3   34 1   
    10    3   35 1   
    11    4    5 ar  
    12    4    6 ar  
    13    5    7 ar  
    14    5   36 1   
    15    6    8 ar  
    16    6   37 1   
    17    7    9 ar  
    18    7   38 1   
    19    8    9 ar  
    20    8   39 1   
    21    9   40 1   
    22   10   11 2   
    23   10   12 1   
    24   10   15 1   
    25   12   13 1   
    26   12   41 1   
    27   12   42 1   
    28   13   14 1   
    29   13   43 1   
    30   13   44 1   
    31   14   45 1   
    32   14   46 1   
    33   15   17 1   
    34   15   47 1   
    35   16   17 1   
    36   16   26 1   
    37   16   48 1   
    38   16   49 1   
    39   17   18 1   
    40   17   50 1   
    41   18   19 1   
    42   18   51 1   
    43   18   52 1   
    44   19   20 1   
    45   19   53 1   
    46   19   54 1   
    47   20   21 ar  
    48   20   22 ar  
    49   21   23 ar  
    50   21   55 1   
    51   22   24 ar  
    52   22   56 1   
    53   23   25 ar  
    54   23   57 1   
    55   24   25 ar  
    56   24   58 1   
    57   25   59 1   
    58   26   27 1   
    59   26   60 1   
    60   26   61 1   
    61   27   28 2   
    62   27   29 1   
    63   29   62 1   
@<TRIPOS>SUBSTRUCTURE
     1 BR4         1 TEMP              0 ****  ****    0 ROOT
