@<TRIPOS>MOLECULE
BR4
   62    63     1     0     0
SMALL
bcc


@<TRIPOS>ATOM
      1 C9          0.0490   -0.1420   -0.0430 c3        1 BR4     -0.079400
      2 C8          1.5620   -0.1090   -0.0860 c3        1 BR4     -0.076400
      3 C7          2.1510   -0.2800    1.3010 c3        1 BR4     -0.037100
      4 C6          3.6380   -0.2180    1.2800 ca        1 BR4     -0.078300
      5 C1          4.2880    1.0100    1.1010 ca        1 BR4     -0.127500
      6 C5          4.4010   -1.3780    1.4470 ca        1 BR4     -0.127500
      7 C2          5.6800    1.0740    1.0890 ca        1 BR4     -0.128000
      8 C4          5.7940   -1.3120    1.4340 ca        1 BR4     -0.128000
      9 C3          6.4360   -0.0870    1.2550 ca        1 BR4     -0.133000
     10 C13        -4.1550    0.1060   -2.7250 c         1 BR4      0.649100
     11 O1         -4.7920   -0.1040   -1.6730 o         1 BR4     -0.604100
     12 C12        -2.6390    0.1540   -2.7660 c3        1 BR4     -0.150400
     13 C11        -2.0530   -0.0100   -1.3800 c3        1 BR4     -0.074400
     14 C10        -0.5410    0.0230   -1.4270 c3        1 BR4     -0.079400
     15 N1         -4.8210    0.3560   -3.9160 ns        1 BR4     -0.580900
     16 C23        -7.0510    1.4340   -4.0870 c3        1 BR4     -0.090400
     17 C14        -6.2420    0.1210   -4.0670 c3        1 BR4      0.091700
     18 C15        -6.5810   -0.6670   -5.3430 c3        1 BR4     -0.095400
     19 C16        -5.9700   -2.0550   -5.3430 c3        1 BR4     -0.037100
     20 C17        -6.4700   -2.8670   -6.4870 ca        1 BR4     -0.084300
     21 C18        -5.6500   -3.1190   -7.5920 ca        1 BR4     -0.127000
     22 C22        -7.7660   -3.3950   -6.4600 ca        1 BR4     -0.127000
     23 C19        -6.1220   -3.8880   -8.6560 ca        1 BR4     -0.126500
     24 C21        -8.2360   -4.1630   -7.5240 ca        1 BR4     -0.126500
     25 C20        -7.4140   -4.4100   -8.6240 ca        1 BR4     -0.129000
     26 C24        -7.1190    2.0870   -2.7190 c3        1 BR4     -0.187400
     27 C25        -6.7720    3.5430   -2.7790 c         1 BR4      0.627100
     28 O2         -7.4880    4.4940   -2.4670 o         1 BR4     -0.492000
     29 OT3        -5.5280    3.9130   -3.2120 oh        1 BR4     -0.587100
     30 H91        -0.3270    0.6770    0.6260 hc        1 BR4      0.043700
     31 H92        -0.2940   -1.1140    0.3990 hc        1 BR4      0.043700
     32 H81         1.9390   -0.9240   -0.7580 hc        1 BR4      0.044200
     33 H82         1.9080    0.8660   -0.5210 hc        1 BR4      0.044200
     34 H71         1.7560    0.5290    1.9740 hc        1 BR4      0.048700
     35 H72         1.8120   -1.2610    1.7300 hc        1 BR4      0.048700
     36 H11         3.6930    1.9260    0.9720 ha        1 BR4      0.130500
     37 H51         3.9010   -2.3470    1.5900 ha        1 BR4      0.130500
     38 H21         6.1830    2.0420    0.9490 ha        1 BR4      0.130000
     39 H41         6.3870   -2.2290    1.5660 ha        1 BR4      0.130000
     40 H31         7.5340   -0.0360    1.2450 ha        1 BR4      0.130000
     41 H121       -2.3070    1.1320   -3.2060 hc        1 BR4      0.064200
     42 H122       -2.2700   -0.6660   -3.4360 hc        1 BR4      0.064200
     43 H111       -2.4050   -0.9800   -0.9390 hc        1 BR4      0.060700
     44 H112       -2.4360    0.8070   -0.7130 hc        1 BR4      0.060700
     45 H101       -0.1970    0.9960   -1.8690 hc        1 BR4      0.039200
     46 H102       -0.1640   -0.7950   -2.0960 hc        1 BR4      0.039200
     47 HN11       -4.2890    0.4060   -4.7530 hn        1 BR4      0.305500
     48 H231       -8.0920    1.1940   -4.4280 hc        1 BR4      0.057200
     49 H232       -6.6140    2.1380   -4.8430 hc        1 BR4      0.057200
     50 H141       -6.5900   -0.4840   -3.1730 h1        1 BR4      0.085700
     51 H151       -6.2420   -0.1000   -6.2490 hc        1 BR4      0.055700
     52 H152       -7.6980   -0.7600   -5.4050 hc        1 BR4      0.055700
     53 H161       -4.8510   -1.9810   -5.3920 hc        1 BR4      0.050700
     54 H162       -6.2260   -2.5740   -4.3790 hc        1 BR4      0.050700
     55 H181       -4.6290   -2.7130   -7.6220 ha        1 BR4      0.130000
     56 H221       -8.4140   -3.2040   -5.5910 ha        1 BR4      0.130000
     57 H191       -5.4710   -4.0820   -9.5210 ha        1 BR4      0.132500
     58 H211       -9.2550   -4.5750   -7.4940 ha        1 BR4      0.132500
     59 H201       -7.7850   -5.0160   -9.4630 ha        1 BR4      0.133000
     60 H241       -6.4160    1.5850   -1.9950 hc        1 BR4      0.094700
     61 H242       -8.1540    1.9880   -2.2960 hc        1 BR4      0.094700
     62 H12        -5.0110    3.1230   -3.4200 ho        1 BR4      0.426000
@<TRIPOS>BOND
     1    1    2 1   
     2    1   14 1   
     3    1   30 1   
     4    1   31 1   
     5    2    3 1   
     6    2   32 1   
     7    2   33 1   
     8    3    4 1   
     9    3   34 1   
    10    3   35 1   
    11    4    5 ar  
    12    4    6 ar  
    13    5    7 ar  
    14    5   36 1   
    15    6    8 ar  
    16    6   37 1   
    17    7    9 ar  
    18    7   38 1   
    19    8    9 ar  
    20    8   39 1   
    21    9   40 1   
    22   10   11 2   
    23   10   12 1   
    24   10   15 1   
    25   12   13 1   
    26   12   41 1   
    27   12   42 1   
    28   13   14 1   
    29   13   43 1   
    30   13   44 1   
    31   14   45 1   
    32   14   46 1   
    33   15   17 1   
    34   15   47 1   
    35   16   17 1   
    36   16   26 1   
    37   16   48 1   
    38   16   49 1   
    39   17   18 1   
    40   17   50 1   
    41   18   19 1   
    42   18   51 1   
    43   18   52 1   
    44   19   20 1   
    45   19   53 1   
    46   19   54 1   
    47   20   21 ar  
    48   20   22 ar  
    49   21   23 ar  
    50   21   55 1   
    51   22   24 ar  
    52   22   56 1   
    53   23   25 ar  
    54   23   57 1   
    55   24   25 ar  
    56   24   58 1   
    57   25   59 1   
    58   26   27 1   
    59   26   60 1   
    60   26   61 1   
    61   27   28 2   
    62   27   29 1   
    63   29   62 1   
@<TRIPOS>SUBSTRUCTURE
     1 BR4         1 TEMP              0 ****  ****    0 ROOT
