@<TRIPOS>MOLECULE
BR4
   62    63     1     0     0
SMALL
bcc


@<TRIPOS>ATOM
      1 C9          0.0460   -0.1240   -0.0380 c3        1 BR4     -0.079400
      2 C8          1.5590   -0.0980   -0.0800 c3        1 BR4     -0.076400
      3 C7          2.1450   -0.2490    1.3110 c3        1 BR4     -0.037100
      4 C6          3.6320   -0.1940    1.2910 ca        1 BR4     -0.078300
      5 C1          4.2880    1.0280    1.0920 ca        1 BR4     -0.127500
      6 C5          4.3910   -1.3540    1.4800 ca        1 BR4     -0.127500
      7 C2          5.6800    1.0860    1.0800 ca        1 BR4     -0.128000
      8 C4          5.7840   -1.2930    1.4680 ca        1 BR4     -0.128000
      9 C3          6.4310   -0.0740    1.2680 ca        1 BR4     -0.133000
     10 C13        -4.1540    0.0980   -2.7290 c         1 BR4      0.649100
     11 O1         -4.7920   -0.1080   -1.6780 o         1 BR4     -0.604100
     12 C12        -2.6380    0.1420   -2.7680 c3        1 BR4     -0.150400
     13 C11        -2.0540   -0.0050   -1.3800 c3        1 BR4     -0.074400
     14 C10        -0.5420    0.0220   -1.4250 c3        1 BR4     -0.079400
     15 N1         -4.8170    0.3450   -3.9220 n         1 BR4     -0.580900
     16 C23        -7.0450    1.4270   -4.0980 c3        1 BR4     -0.090400
     17 C14        -6.2390    0.1130   -4.0740 c3        1 BR4      0.091700
     18 C15        -6.5780   -0.6780   -5.3490 c3        1 BR4     -0.095400
     19 C16        -5.9700   -2.0670   -5.3440 c3        1 BR4     -0.037100
     20 C17        -6.4690   -2.8800   -6.4880 ca        1 BR4     -0.084300
     21 C18        -5.6480   -3.1380   -7.5910 ca        1 BR4     -0.127000
     22 C22        -7.7670   -3.4060   -6.4620 ca        1 BR4     -0.127000
     23 C19        -6.1190   -3.9080   -8.6540 ca        1 BR4     -0.126500
     24 C21        -8.2360   -4.1750   -7.5250 ca        1 BR4     -0.126500
     25 C20        -7.4130   -4.4260   -8.6230 ca        1 BR4     -0.129000
     26 C24        -7.1140    2.0830   -2.7330 c3        1 BR4     -0.187400
     27 C25        -6.7650    3.5390   -2.7950 c         1 BR4      0.627100
     28 O2         -7.4790    4.4920   -2.4870 o         1 BR4     -0.492000
     29 OT3        -5.5190    3.9060   -3.2270 oh        1 BR4     -0.587100
     30 H91        -0.3020   -1.0890    0.4180 hc        1 BR4      0.043700
     31 H92        -0.3290    0.7050    0.6190 hc        1 BR4      0.043700
     32 H81         1.9330   -0.9250   -0.7380 hc        1 BR4      0.044200
     33 H82         1.9090    0.8690   -0.5290 hc        1 BR4      0.044200
     34 H71         1.8020   -1.2220    1.7550 hc        1 BR4      0.048700
     35 H72         1.7520    0.5710    1.9710 hc        1 BR4      0.048700
     36 H11         3.6960    1.9440    0.9450 ha        1 BR4      0.130500
     37 H51         3.8860   -2.3180    1.6390 ha        1 BR4      0.130500
     38 H21         6.1870    2.0500    0.9230 ha        1 BR4      0.130000
     39 H41         6.3730   -2.2100    1.6170 ha        1 BR4      0.130000
     40 H31         7.5290   -0.0270    1.2590 ha        1 BR4      0.130000
     41 H121       -2.3020    1.1130   -3.2210 hc        1 BR4      0.064200
     42 H122       -2.2700   -0.6890   -3.4270 hc        1 BR4      0.064200
     43 H111       -2.4350    0.8220   -0.7250 hc        1 BR4      0.060700
     44 H112       -2.4100   -0.9680   -0.9260 hc        1 BR4      0.060700
     45 H101       -0.1670   -0.8080   -2.0810 hc        1 BR4      0.039200
     46 H102       -0.1930    0.9870   -1.8800 hc        1 BR4      0.039200
     47 HN11       -4.2850    0.3920   -4.7580 hn        1 BR4      0.305500
     48 H231       -6.6050    2.1280   -4.8560 hc        1 BR4      0.057200
     49 H232       -8.0860    1.1880   -4.4410 hc        1 BR4      0.057200
     50 H141       -6.5890   -0.4900   -3.1790 h1        1 BR4      0.085700
     51 H151       -7.6950   -0.7680   -5.4130 hc        1 BR4      0.055700
     52 H152       -6.2360   -0.1130   -6.2560 hc        1 BR4      0.055700
     53 H161       -6.2290   -2.5830   -4.3800 hc        1 BR4      0.050700
     54 H162       -4.8510   -1.9960   -5.3920 hc        1 BR4      0.050700
     55 H181       -4.6250   -2.7330   -7.6200 ha        1 BR4      0.130000
     56 H221       -8.4160   -3.2110   -5.5950 ha        1 BR4      0.130000
     57 H191       -5.4670   -4.1060   -9.5170 ha        1 BR4      0.132500
     58 H211       -9.2560   -4.5850   -7.4970 ha        1 BR4      0.132500
     59 H201       -7.7840   -5.0340   -9.4620 ha        1 BR4      0.133000
     60 H241       -8.1500    1.9870   -2.3110 hc        1 BR4      0.094700
     61 H242       -6.4130    1.5830   -2.0060 hc        1 BR4      0.094700
     62 H12        -5.0030    3.1140   -3.4330 ho        1 BR4      0.426000
@<TRIPOS>BOND
     1    1    2 1   
     2    1   14 1   
     3    1   30 1   
     4    1   31 1   
     5    2    3 1   
     6    2   32 1   
     7    2   33 1   
     8    3    4 1   
     9    3   34 1   
    10    3   35 1   
    11    4    5 ar  
    12    4    6 ar  
    13    5    7 ar  
    14    5   36 1   
    15    6    8 ar  
    16    6   37 1   
    17    7    9 ar  
    18    7   38 1   
    19    8    9 ar  
    20    8   39 1   
    21    9   40 1   
    22   10   11 2   
    23   10   12 1   
    24   10   15 1   
    25   12   13 1   
    26   12   41 1   
    27   12   42 1   
    28   13   14 1   
    29   13   43 1   
    30   13   44 1   
    31   14   45 1   
    32   14   46 1   
    33   15   17 1   
    34   15   47 1   
    35   16   17 1   
    36   16   26 1   
    37   16   48 1   
    38   16   49 1   
    39   17   18 1   
    40   17   50 1   
    41   18   19 1   
    42   18   51 1   
    43   18   52 1   
    44   19   20 1   
    45   19   53 1   
    46   19   54 1   
    47   20   21 ar  
    48   20   22 ar  
    49   21   23 ar  
    50   21   55 1   
    51   22   24 ar  
    52   22   56 1   
    53   23   25 ar  
    54   23   57 1   
    55   24   25 ar  
    56   24   58 1   
    57   25   59 1   
    58   26   27 1   
    59   26   60 1   
    60   26   61 1   
    61   27   28 2   
    62   27   29 1   
    63   29   62 1   
@<TRIPOS>SUBSTRUCTURE
     1 BR4         1 TEMP              0 ****  ****    0 ROOT
