@<TRIPOS>MOLECULE
BR4
   61    62     1     0     0
SMALL
bcc


@<TRIPOS>ATOM
      1 C9          0.0150    0.4410    3.6050 c3        1 BR4     -0.084400
      2 C8         -0.4170   -0.0030    4.9860 c3        1 BR4     -0.073400
      3 C7          0.6730    0.2630    6.0070 c3        1 BR4     -0.042100
      4 C6          0.2590   -0.1450    7.3780 ca        1 BR4     -0.068300
      5 C1          0.8240   -1.2720    7.9860 ca        1 BR4     -0.128500
      6 C5         -0.6950    0.6040    8.0780 ca        1 BR4     -0.128500
      7 C2          0.4380   -1.6430    9.2740 ca        1 BR4     -0.131500
      8 C4         -1.0790    0.2310    9.3640 ca        1 BR4     -0.131500
      9 C3         -0.5130   -0.8940    9.9650 ca        1 BR4     -0.140000
     10 C13        -1.2520    0.7820   -1.2130 c         1 BR4      0.647100
     11 O1         -1.7940    1.7640   -1.7660 o         1 BR4     -0.631100
     12 C12        -1.6990    0.3360    0.1720 c3        1 BR4     -0.156400
     13 C11        -0.6190    0.6030    1.1980 c3        1 BR4     -0.085400
     14 C10        -1.0690    0.1800    2.5810 c3        1 BR4     -0.074400
     15 N1         -0.2850    0.0230   -1.8370 n         1 BR4     -0.539900
     16 C23         1.9820    0.1870   -2.8210 c3        1 BR4     -0.080400
     17 C14         0.4860    0.5170   -2.9660 c3        1 BR4      0.084700
     18 C15        -0.0130   -0.0500   -4.3070 c3        1 BR4     -0.078400
     19 C16        -1.3070    0.6070   -4.7460 c3        1 BR4     -0.048100
     20 C17        -1.8710   -0.0340   -5.9650 ca        1 BR4     -0.056300
     21 C18        -2.4270   -1.3190   -5.8940 ca        1 BR4     -0.130500
     22 C22        -1.8670    0.6380   -7.1930 ca        1 BR4     -0.130500
     23 C19        -2.9660   -1.9180   -7.0300 ca        1 BR4     -0.133000
     24 C21        -2.4080    0.0370   -8.3290 ca        1 BR4     -0.133000
     25 C20        -2.9590   -1.2410   -8.2500 ca        1 BR4     -0.146000
     26 C24         2.6030    0.7630   -1.5740 c3        1 BR4     -0.205400
     27 C25         4.1160    0.4670   -1.5340 c         1 BR4      0.910600
     28 O2          4.8010    0.7080   -2.5680 o         1 BR4     -0.846300
     29 OT3         4.5890    0.0050   -0.4570 o         1 BR4     -0.846300
     30 H91         0.9520   -0.1020    3.3080 hc        1 BR4      0.051200
     31 H92         0.2620    1.5360    3.6190 hc        1 BR4      0.051200
     32 H81        -1.3510    0.5410    5.2850 hc        1 BR4      0.038700
     33 H82        -0.6600   -1.0980    4.9720 hc        1 BR4      0.038700
     34 H71         1.6050   -0.2860    5.7050 hc        1 BR4      0.053700
     35 H72         0.9220    1.3590    6.0070 hc        1 BR4      0.053700
     36 H11         1.5750   -1.8660    7.4450 ha        1 BR4      0.133500
     37 H51        -1.1410    1.4920    7.6040 ha        1 BR4      0.133500
     38 H21         0.8870   -2.5300    9.7440 ha        1 BR4      0.125500
     39 H41        -1.8290    0.8250    9.9060 ha        1 BR4      0.125500
     40 H31        -0.8160   -1.1880   10.9800 ha        1 BR4      0.124000
     41 H121       -2.6270    0.9100    0.4320 hc        1 BR4      0.059700
     42 H122       -1.9620   -0.7530    0.1580 hc        1 BR4      0.059700
     43 H111        0.3220    0.0530    0.9270 hc        1 BR4      0.060700
     44 H112       -0.3690    1.6970    1.2020 hc        1 BR4      0.060700
     45 H101       -1.9990    0.7380    2.8640 hc        1 BR4      0.033700
     46 H102       -1.3260   -0.9120    2.5760 hc        1 BR4      0.033700
     47 HN11        0.1830   -0.6570   -1.2790 hn        1 BR4      0.306500
     48 H231        2.5270    0.6060   -3.7100 hc        1 BR4      0.056700
     49 H232        2.1260   -0.9240   -2.8380 hc        1 BR4      0.056700
     50 H141        0.3680    1.6430   -3.0020 h1        1 BR4      0.066700
     51 H151        0.7790    0.1370   -5.0780 hc        1 BR4      0.046200
     52 H152       -0.1520   -1.1600   -4.2330 hc        1 BR4      0.046200
     53 H161       -2.0610    0.5500   -3.9120 hc        1 BR4      0.061200
     54 H162       -1.1200    1.6980   -4.9340 hc        1 BR4      0.061200
     55 H181       -2.4300   -1.8520   -4.9320 ha        1 BR4      0.133000
     56 H221       -1.4310    1.6460   -7.2600 ha        1 BR4      0.133000
     57 H191       -3.3980   -2.9270   -6.9650 ha        1 BR4      0.121000
     58 H211       -2.3980    0.5730   -9.2880 ha        1 BR4      0.121000
     59 H201       -3.3840   -1.7150   -9.1460 ha        1 BR4      0.119000
     60 H241        2.1340    0.3400   -0.6500 hc        1 BR4      0.020200
     61 H242        2.4650    1.8730   -1.5540 hc        1 BR4      0.020200
@<TRIPOS>BOND
     1    1    2 1   
     2    1   14 1   
     3    1   30 1   
     4    1   31 1   
     5    2    3 1   
     6    2   32 1   
     7    2   33 1   
     8    3    4 1   
     9    3   34 1   
    10    3   35 1   
    11    4    5 ar  
    12    4    6 ar  
    13    5    7 ar  
    14    5   36 1   
    15    6    8 ar  
    16    6   37 1   
    17    7    9 ar  
    18    7   38 1   
    19    8    9 ar  
    20    8   39 1   
    21    9   40 1   
    22   10   11 2   
    23   10   12 1   
    24   10   15 1   
    25   12   13 1   
    26   12   41 1   
    27   12   42 1   
    28   13   14 1   
    29   13   43 1   
    30   13   44 1   
    31   14   45 1   
    32   14   46 1   
    33   15   17 1   
    34   15   47 1   
    35   16   17 1   
    36   16   26 1   
    37   16   48 1   
    38   16   49 1   
    39   17   18 1   
    40   17   50 1   
    41   18   19 1   
    42   18   51 1   
    43   18   52 1   
    44   19   20 1   
    45   19   53 1   
    46   19   54 1   
    47   20   21 ar  
    48   20   22 ar  
    49   21   23 ar  
    50   21   55 1   
    51   22   24 ar  
    52   22   56 1   
    53   23   25 ar  
    54   23   57 1   
    55   24   25 ar  
    56   24   58 1   
    57   25   59 1   
    58   26   27 1   
    59   26   60 1   
    60   26   61 1   
    61   27   28 1   
    62   27   29 1   
@<TRIPOS>SUBSTRUCTURE
     1 BR4         1 TEMP              0 ****  ****    0 ROOT
