@<TRIPOS>MOLECULE
BR5
   18    17     1     0     0
SMALL
bcc


@<TRIPOS>ATOM
      1 CA1         0.0250   -0.5490   -0.2470 c3        1 BR5     -0.093100
      2 CB2         1.3950    0.0610   -0.0450 c3        1 BR5      0.133400
      3 O           1.7960   -0.2280    1.2860 os        1 BR5     -0.439600
      4 CZ2         3.0900    0.3200    1.5890 c3        1 BR5      0.161400
      5 CA2         3.3440    0.1250    3.0540 c3        1 BR5     -0.340600
      6 P           3.9890    1.5520    3.7460 p5        1 BR5      1.265600
      7 OP1         4.6420    1.2000    5.0300 o         1 BR5     -0.882000
      8 OP2         4.7070    2.3380    2.7110 o         1 BR5     -0.882000
      9 HA11       -0.7000   -0.1170    0.4830 hc        1 BR5      0.032367
     10 HA12       -0.3290   -0.3400   -1.2840 hc        1 BR5      0.032367
     11 HA13        0.0650   -1.6530   -0.0880 hc        1 BR5      0.032367
     12 HB21        2.1350   -0.3760   -0.7690 h1        1 BR5      0.014700
     13 HB22        1.3620    1.1740   -0.2010 h1        1 BR5      0.014700
     14 HZ21        3.1090    1.4150    1.3270 h1        1 BR5      0.034700
     15 HZ22        3.8430   -0.2150    0.9460 h1        1 BR5      0.034700
     16 HA21        4.0530   -0.7220    3.2150 hc        1 BR5      0.070700
     17 HA22        2.3950   -0.1640    3.5690 hc        1 BR5      0.070700
     18 HP1         2.8320    2.1640    4.0030 hp        1 BR5     -0.260400
@<TRIPOS>BOND
     1    1    2 1   
     2    1    9 1   
     3    1   10 1   
     4    1   11 1   
     5    2    3 1   
     6    2   12 1   
     7    2   13 1   
     8    3    4 1   
     9    4    5 1   
    10    4   14 1   
    11    4   15 1   
    12    5    6 1   
    13    5   16 1   
    14    5   17 1   
    15    6    7 1   
    16    6    8 1   
    17    6   18 1   
@<TRIPOS>SUBSTRUCTURE
     1 BR5         1 TEMP              0 ****  ****    0 ROOT
