@<TRIPOS>MOLECULE
BR5
   18    17     1     0     0
SMALL
bcc


@<TRIPOS>ATOM
      1 CA1         2.4140    2.0380    2.6950 c3        1 BR5     -0.093100
      2 CB2         1.3700    1.3670    1.8320 c3        1 BR5      0.133400
      3 O           2.0550    0.6700    0.8020 os        1 BR5     -0.439600
      4 CZ2         1.1480   -0.0010   -0.0900 c3        1 BR5      0.161400
      5 CA2         1.9450   -0.5480   -1.2360 c3        1 BR5     -0.340600
      6 P           1.1550   -0.2300   -2.7210 p5        1 BR5      1.265600
      7 OP1         1.7000   -1.1470   -3.7520 o         1 BR5     -0.882000
      8 OP2        -0.3090   -0.1070   -2.5010 o         1 BR5     -0.882000
      9 HA11        1.9150    2.6020    3.5180 hc        1 BR5      0.032367
     10 HA12        3.1000    1.2760    3.1370 hc        1 BR5      0.032367
     11 HA13        3.0250    2.7440    2.0840 hc        1 BR5      0.032367
     12 HB21        0.6760    2.1290    1.3810 h1        1 BR5      0.014700
     13 HB22        0.7570    0.6450    2.4370 h1        1 BR5      0.014700
     14 HZ21        0.6300   -0.8080    0.4990 h1        1 BR5      0.034700
     15 HZ22        0.3720    0.7260   -0.4600 h1        1 BR5      0.034700
     16 HA21        2.9690   -0.1000   -1.2350 hc        1 BR5      0.070700
     17 HA22        2.0890   -1.6480   -1.1170 hc        1 BR5      0.070700
     18 HP1         1.6470    0.9920   -2.9280 hp        1 BR5     -0.260400
@<TRIPOS>BOND
     1    1    2 1   
     2    1    9 1   
     3    1   10 1   
     4    1   11 1   
     5    2    3 1   
     6    2   12 1   
     7    2   13 1   
     8    3    4 1   
     9    4    5 1   
    10    4   14 1   
    11    4   15 1   
    12    5    6 1   
    13    5   16 1   
    14    5   17 1   
    15    6    7 1   
    16    6    8 1   
    17    6   18 1   
@<TRIPOS>SUBSTRUCTURE
     1 BR5         1 TEMP              0 ****  ****    0 ROOT
