@<TRIPOS>MOLECULE
BR5
   18    17     1     0     0
SMALL
bcc


@<TRIPOS>ATOM
      1 CA1         0.0430   -0.4890   -0.2960 c3        1 BR5     -0.093100
      2 CB2         1.4200    0.0920   -0.0640 c3        1 BR5      0.133400
      3 O           1.7900   -0.2150    1.2710 os        1 BR5     -0.439600
      4 CZ2         3.0890    0.3050    1.6040 c3        1 BR5      0.161400
      5 CA2         3.3110    0.0930    3.0720 c3        1 BR5     -0.340600
      6 P           3.9720    1.5010    3.7870 p5        1 BR5      1.265600
      7 OP1         4.5910    1.1280    5.0810 o         1 BR5     -0.882000
      8 OP2         4.7270    2.2790    2.7720 o         1 BR5     -0.882000
      9 HA11       -0.6880   -0.0490    0.4230 hc        1 BR5      0.032367
     10 HA12       -0.2870   -0.2660   -1.3380 hc        1 BR5      0.032367
     11 HA13        0.0590   -1.5950   -0.1460 hc        1 BR5      0.032367
     12 HB21        1.4120    1.2060   -0.2110 h1        1 BR5      0.014700
     13 HB22        2.1660   -0.3540   -0.7770 h1        1 BR5      0.014700
     14 HZ21        3.1350    1.4010    1.3510 h1        1 BR5      0.034700
     15 HZ22        3.8440   -0.2410    0.9710 h1        1 BR5      0.034700
     16 HA21        3.9990   -0.7690    3.2390 hc        1 BR5      0.070700
     17 HA22        2.3470   -0.1800    3.5660 hc        1 BR5      0.070700
     18 HP1         2.8240    2.1370    4.0250 hp        1 BR5     -0.260400
@<TRIPOS>BOND
     1    1    2 1   
     2    1    9 1   
     3    1   10 1   
     4    1   11 1   
     5    2    3 1   
     6    2   12 1   
     7    2   13 1   
     8    3    4 1   
     9    4    5 1   
    10    4   14 1   
    11    4   15 1   
    12    5    6 1   
    13    5   16 1   
    14    5   17 1   
    15    6    7 1   
    16    6    8 1   
    17    6   18 1   
@<TRIPOS>SUBSTRUCTURE
     1 BR5         1 TEMP              0 ****  ****    0 ROOT
