@<TRIPOS>MOLECULE
BR5
   18    17     1     0     0
SMALL
bcc


@<TRIPOS>ATOM
      1 CA1        -2.8840   -0.1540   -1.4630 c3        1 BR5     -0.093100
      2 CB2        -1.3790   -0.0560   -1.4680 c3        1 BR5      0.132400
      3 O          -0.8940   -0.0180   -0.1020 os        1 BR5     -0.433600
      4 CZ2         0.5320    0.0750    0.0070 c3        1 BR5      0.143400
      5 CA2         0.9330    0.0520    1.4860 c3        1 BR5     -0.335600
      6 P           2.7670    0.1080    1.6220 p5        1 BR5      1.266600
      7 OP1         3.1740    0.6720    3.0410 o         1 BR5     -0.881000
      8 OP2         3.3160   -1.2580    1.4570 o         1 BR5     -0.881000
      9 HA11       -3.2570    0.6200   -1.0060 hc        1 BR5      0.032700
     10 HA12       -3.1530   -0.9630   -0.9990 hc        1 BR5      0.032700
     11 HA13       -3.2190   -0.1800   -2.3940 hc        1 BR5      0.032700
     12 HB21       -1.1080    0.7590   -1.9330 h1        1 BR5      0.015200
     13 HB22       -1.0030   -0.8340   -1.9270 h1        1 BR5      0.015200
     14 HZ21        0.8340    0.9030   -0.3970 h1        1 BR5      0.040200
     15 HZ22        0.9410   -0.6740   -0.4490 h1        1 BR5      0.040200
     16 HA21        0.6000   -0.7710    1.9030 hc        1 BR5      0.068700
     17 HA22        0.5470    0.8270    1.9420 hc        1 BR5      0.068700
     18 HP1         3.2540    0.8940    0.6800 hp        1 BR5     -0.264400
@<TRIPOS>BOND
     1    1    2 1   
     2    1    9 1   
     3    1   10 1   
     4    1   11 1   
     5    2    3 1   
     6    2   12 1   
     7    2   13 1   
     8    3    4 1   
     9    4    5 1   
    10    4   14 1   
    11    4   15 1   
    12    5    6 1   
    13    5   16 1   
    14    5   17 1   
    15    6    7 1   
    16    6    8 1   
    17    6   18 1   
@<TRIPOS>SUBSTRUCTURE
     1 BR5         1 TEMP              0 ****  ****    0 ROOT
