@<TRIPOS>MOLECULE
BR6
   30    31     1     0     0
SMALL
bcc


@<TRIPOS>ATOM
      1 BR         -5.7350    0.0670   -0.0170 br        1 BR6     -0.086100
      2 C1         -3.8690   -0.0870   -0.0250 ca        1 BR6     -0.030900
      3 N1          0.3340   -0.5240   -0.0410 ne        1 BR6     -0.577100
      4 C2         -3.2500   -1.0800   -0.7890 ca        1 BR6     -0.098000
      5 N2          7.5510    0.6100   -0.9220 nh        1 BR6     -0.957800
      6 C3         -1.8650   -1.2020   -0.7990 ca        1 BR6     -0.130000
      7 N3          7.4490   -0.6720    1.1420 n2        1 BR6     -0.822100
      8 C4         -3.0890    0.7890    0.7330 ca        1 BR6     -0.098000
      9 C5         -1.7020    0.6800    0.7230 ca        1 BR6     -0.130000
     10 C6         -1.0620   -0.3170   -0.0440 ca        1 BR6      0.139400
     11 C7          1.1570    0.4680    0.0500 cf        1 BR6      0.496800
     12 C8          2.6160    0.2960    0.0770 ca        1 BR6     -0.147900
     13 C9          3.2200   -0.9530    0.2610 ca        1 BR6     -0.102000
     14 C10         4.6110   -1.0630    0.2860 ca        1 BR6     -0.110500
     15 C11         5.4050    0.0740    0.1200 ca        1 BR6     -0.122900
     16 C12         6.8980   -0.0500    0.1440 ce        1 BR6      0.647800
     17 C13         4.8070    1.3270   -0.0570 ca        1 BR6     -0.110500
     18 C14         3.4200    1.4370   -0.0760 ca        1 BR6     -0.102000
     19 H2         -3.8550   -1.7790   -1.3880 ha        1 BR6      0.148000
     20 HN2         6.9880    0.7920   -1.7200 hn        1 BR6      0.399300
     21 HN2A        8.4740    0.3120   -1.1330 hn        1 BR6      0.399300
     22 H3         -1.3950   -1.9940   -1.4030 ha        1 BR6      0.145000
     23 HN3         8.4450   -0.7380    1.1320 hn        1 BR6      0.384400
     24 H4         -3.5640    1.5720    1.3450 ha        1 BR6      0.148000
     25 H5         -1.1070    1.3730    1.3380 ha        1 BR6      0.145000
     26 H7          0.8320    1.5340    0.1040 h4        1 BR6     -0.022200
     27 H9          2.6020   -1.8560    0.3910 ha        1 BR6      0.147000
     28 H10         5.0800   -2.0460    0.4490 ha        1 BR6      0.150000
     29 H13         5.4290    2.2290   -0.1670 ha        1 BR6      0.150000
     30 H14         2.9540    2.4250   -0.2120 ha        1 BR6      0.147000
@<TRIPOS>BOND
     1    1    2 1   
     2    2    4 ar  
     3    2    8 ar  
     4    3   10 1   
     5    3   11 2   
     6    4    6 ar  
     7    4   19 1   
     8    5   16 1   
     9    5   20 1   
    10    5   21 1   
    11    6   10 ar  
    12    6   22 1   
    13    7   16 2   
    14    7   23 1   
    15    8    9 ar  
    16    8   24 1   
    17    9   10 ar  
    18    9   25 1   
    19   11   12 1   
    20   11   26 1   
    21   12   13 ar  
    22   12   18 ar  
    23   13   14 ar  
    24   13   27 1   
    25   14   15 ar  
    26   14   28 1   
    27   15   16 1   
    28   15   17 ar  
    29   17   18 ar  
    30   17   29 1   
    31   18   30 1   
@<TRIPOS>SUBSTRUCTURE
     1 BR6         1 TEMP              0 ****  ****    0 ROOT
