@<TRIPOS>MOLECULE
BR6
   30    24     1     0     0
SMALL
bcc


@<TRIPOS>ATOM
      1 BR          4.4900   -3.4260    1.9640 br        1 BR6      0.051000
      2 C1          3.6440   -1.8010    1.4560 c2        1 BR6     -0.185000
      3 N1          2.2090    1.8750    0.6260 n1        1 BR6     -0.150000
      4 C2          3.1200   -0.9690    2.4220 c2        1 BR6     -0.090000
      5 N2         -3.7980   -1.9440   -1.3160 n3        1 BR6     -0.398000
      6 C3          2.4250    0.1820    2.0510 c1        1 BR6     -0.148000
      7 N3         -4.8370    0.2090   -1.5710 n1        1 BR6     -0.292000
      8 C4          3.4800   -1.4940    0.1180 c1        1 BR6     -0.089000
      9 C5          2.7830   -0.3400   -0.2560 c1        1 BR6     -0.145000
     10 C6          2.2600    0.4900    0.7080 c1        1 BR6      0.014000
     11 C7          1.0660    2.4950    0.2010 c1        1 BR6      0.015000
     12 C8         -0.1350    1.6800   -0.1770 c1        1 BR6     -0.106000
     13 C9         -1.0620    1.2870    0.8200 c2        1 BR6     -0.107000
     14 C10        -2.1650    0.5700    0.4810 c1        1 BR6     -0.113000
     15 C11        -2.3920    0.2120   -0.8670 c1        1 BR6     -0.039000
     16 C12        -3.7420   -0.5170   -1.2720 c2        1 BR6      0.125000
     17 C13        -1.4860    0.5950   -1.8470 c1        1 BR6     -0.096000
     18 C14        -0.3510    1.3330   -1.4970 c1        1 BR6     -0.110000
     19 H2          3.2370   -1.1860    3.3600 ha        1 BR6      0.148000
     20 HN2        -3.0430   -2.4290   -1.2160 hn        1 BR6      0.196500
     21 HN2A       -4.6130   -2.3770   -1.4910 hn        1 BR6      0.196500
     22 H3          2.0430    0.7900    2.7590 ha        1 BR6      0.146000
     23 HN3        -5.6230   -0.2150   -1.8050 DU        1 BR6      0.141000
     24 H4          3.8630   -2.1000   -0.5860 ha        1 BR6      0.147000
     25 H5          2.6700   -0.1260   -1.1900 ha        1 BR6      0.144000
     26 H7          1.0330    3.4210    0.1480 ha        1 BR6      0.154000
     27 H9         -0.9110    1.5300    1.7420 ha        1 BR6      0.147000
     28 H10        -2.8320    0.2880    1.2040 ha        1 BR6      0.150000
     29 H13        -1.6380    0.3530   -2.7610 ha        1 BR6      0.153000
     30 H14         0.3060    1.6130   -2.2050 ha        1 BR6      0.139000
@<TRIPOS>BOND
     1    1    2 1   
     2    2    4 1   
     3    2    8 1   
     4    3   11 1   
     5    4    6 1   
     6    4   19 1   
     7    5   16 1   
     8    5   20 1   
     9    5   21 1   
    10    6   22 1   
    11    7   16 1   
    12    8   24 1   
    13    9   10 1   
    14    9   25 1   
    15   11   26 1   
    16   12   13 1   
    17   12   18 1   
    18   13   14 1   
    19   13   27 1   
    20   14   28 1   
    21   15   16 1   
    22   15   17 1   
    23   17   29 1   
    24   18   30 1   
@<TRIPOS>SUBSTRUCTURE
     1 BR6         1 TEMP              0 ****  ****    0 ROOT
