@<TRIPOS>MOLECULE
BR6
   31    32     1     0     0
SMALL
bcc


@<TRIPOS>ATOM
      1 BR         -0.0160    0.0790    0.1100 br        1 BR6     -0.053100
      2 C1          1.8490   -0.0180    0.0580 ca        1 BR6     -0.009900
      3 N1          6.0680   -0.2200    0.0250 ne        1 BR6     -0.535100
      4 C2          2.5690   -0.3480    1.2100 ca        1 BR6     -0.102000
      5 N2         13.0010   -2.0940   -0.7660 n4        1 BR6     -0.894600
      6 C3          3.9580   -0.4210    1.1800 ca        1 BR6     -0.109500
      7 N3         13.2760    0.3710   -0.9970 n2        1 BR6     -0.671100
      8 C4          2.5340    0.2440   -1.1320 ca        1 BR6     -0.102000
      9 C5          3.9210    0.1670   -1.1760 ca        1 BR6     -0.109500
     10 C6          4.6600   -0.1700   -0.0210 ca        1 BR6      0.104400
     11 C7          6.7830   -0.4540   -1.0240 cf        1 BR6      0.442800
     12 C8          8.2540   -0.4920   -0.9610 ca        1 BR6     -0.071900
     13 C9          8.9700    0.1220    0.0740 ca        1 BR6     -0.097500
     14 C10        10.3640    0.0710    0.0930 ca        1 BR6     -0.092000
     15 C11        11.0430   -0.6080   -0.9250 ca        1 BR6     -0.222900
     16 C12        12.5220   -0.6390   -0.9130 ce        1 BR6      0.636800
     17 C13        10.3370   -1.2140   -1.9740 ca        1 BR6     -0.092000
     18 C14         8.9480   -1.1540   -1.9890 ca        1 BR6     -0.097500
     19 H2          2.0420   -0.5520    2.1570 ha        1 BR6      0.158000
     20 HN2        14.0080   -2.2000   -0.9000 hn        1 BR6      0.456800
     21 HN2A       12.7490   -2.4250    0.1700 hn        1 BR6      0.456800
     22 H3          4.5060   -0.6790    2.1000 ha        1 BR6      0.145500
     23 HN3        14.2720    0.3400   -0.9700 hn        1 BR6      0.464400
     24 H4          1.9790    0.5150   -2.0460 ha        1 BR6      0.158000
     25 H5          4.4360    0.3940   -2.1230 ha        1 BR6      0.145500
     26 H7          6.3720   -0.6540   -2.0390 h4        1 BR6     -0.004200
     27 H9          8.4360    0.6550    0.8800 ha        1 BR6      0.173500
     28 H10        10.9200    0.5750    0.8990 ha        1 BR6      0.146500
     29 H13        10.8670   -1.7060   -2.8030 ha        1 BR6      0.146500
     30 H14         8.3900   -1.6240   -2.8160 ha        1 BR6      0.173500
     31 H23        12.5070   -2.6690   -1.4560 hn        1 BR6      0.456800
@<TRIPOS>BOND
     1    1    2 1   
     2    2    4 ar  
     3    2    8 ar  
     4    3   10 1   
     5    3   11 2   
     6    4    6 ar  
     7    4   19 1   
     8    5   16 1   
     9    5   20 1   
    10    5   21 1   
    11    5   31 1   
    12    6   10 ar  
    13    6   22 1   
    14    7   16 2   
    15    7   23 1   
    16    8    9 ar  
    17    8   24 1   
    18    9   10 ar  
    19    9   25 1   
    20   11   12 1   
    21   11   26 1   
    22   12   13 ar  
    23   12   18 ar  
    24   13   14 ar  
    25   13   27 1   
    26   14   15 ar  
    27   14   28 1   
    28   15   16 1   
    29   15   17 ar  
    30   17   18 ar  
    31   17   29 1   
    32   18   30 1   
@<TRIPOS>SUBSTRUCTURE
     1 BR6         1 TEMP              0 ****  ****    0 ROOT
