@<TRIPOS>MOLECULE
BR6
   31    32     1     0     0
SMALL
bcc


@<TRIPOS>ATOM
      1 Br         -0.0140    0.0720    0.1390 br        1 BR6     -0.053100
      2 C1          1.8510   -0.0230    0.0800 ca        1 BR6     -0.009900
      3 N1          6.0700   -0.2230    0.0320 ne        1 BR6     -0.535100
      4 C2          2.5750   -0.3570    1.2280 ca        1 BR6     -0.102000
      5 N2         13.0010   -2.0900   -0.7870 nz        1 BR6     -0.894600
      6 C3          3.9640   -0.4280    1.1930 ca        1 BR6     -0.109500
      7 N3         13.2740    0.3760   -1.0150 n2        1 BR6     -0.671100
      8 C4          2.5310    0.2420   -1.1130 ca        1 BR6     -0.102000
      9 C5          3.9180    0.1660   -1.1610 ca        1 BR6     -0.109500
     10 C6          4.6620   -0.1730   -0.0100 ca        1 BR6      0.104400
     11 C7          6.7810   -0.4530   -1.0210 cf        1 BR6      0.442800
     12 C8          8.2520   -0.4910   -0.9630 ca        1 BR6     -0.071900
     13 C9          8.9720    0.1220    0.0710 ca        1 BR6     -0.097500
     14 C10        10.3660    0.0710    0.0850 ca        1 BR6     -0.092000
     15 C11        11.0410   -0.6050   -0.9360 ca        1 BR6     -0.222900
     16 C12        12.5210   -0.6350   -0.9300 ce        1 BR6      0.636800
     17 C13        10.3320   -1.2090   -1.9840 ca        1 BR6     -0.092000
     18 C14         8.9440   -1.1500   -1.9940 ca        1 BR6     -0.097500
     19 H2          2.0510   -0.5640    2.1760 ha        1 BR6      0.158000
     20 HN2        12.5050   -2.6640   -1.4760 hn        1 BR6      0.456800
     21 HN2A       12.7530   -2.4230    0.1490 hn        1 BR6      0.456800
     22 H3          4.5150   -0.6880    2.1110 ha        1 BR6      0.145500
     23 HN3        14.2700    0.3450   -0.9910 hn        1 BR6      0.464400
     24 H4          1.9730    0.5150   -2.0230 ha        1 BR6      0.158000
     25 H5          4.4300    0.3950   -2.1090 ha        1 BR6      0.145500
     26 H7          6.3670   -0.6510   -2.0340 h4        1 BR6     -0.004200
     27 H9          8.4400    0.6540    0.8800 ha        1 BR6      0.173500
     28 H10        10.9240    0.5750    0.8900 ha        1 BR6      0.146500
     29 H13        10.8600   -1.7000   -2.8160 ha        1 BR6      0.146500
     30 H14         8.3830   -1.6190   -2.8200 ha        1 BR6      0.173500
     31 H23        14.0080   -2.1950   -0.9240 hn        1 BR6      0.456800
@<TRIPOS>BOND
     1    1    2 1   
     2    2    4 ar  
     3    2    8 ar  
     4    3   10 1   
     5    3   11 2   
     6    4    6 ar  
     7    4   19 1   
     8    5   16 1   
     9    5   20 1   
    10    5   21 1   
    11    5   31 1   
    12    6   10 ar  
    13    6   22 1   
    14    7   16 2   
    15    7   23 1   
    16    8    9 ar  
    17    8   24 1   
    18    9   10 ar  
    19    9   25 1   
    20   11   12 1   
    21   11   26 1   
    22   12   13 ar  
    23   12   18 ar  
    24   13   14 ar  
    25   13   27 1   
    26   14   15 ar  
    27   14   28 1   
    28   15   16 1   
    29   15   17 ar  
    30   17   18 ar  
    31   17   29 1   
    32   18   30 1   
@<TRIPOS>SUBSTRUCTURE
     1 BR6         1 TEMP              0 ****  ****    0 ROOT
