@<TRIPOS>MOLECULE
BR6
   31    32     1     0     0
SMALL
bcc


@<TRIPOS>ATOM
      1 BR         -0.0140    0.0590    0.1500 br        1 BR6     -0.053100
      2 C1          1.8510   -0.0330    0.0880 ca        1 BR6     -0.009900
      3 N1          6.0710   -0.2260    0.0340 ne        1 BR6     -0.535100
      4 C2          2.5780   -0.3660    1.2360 ca        1 BR6     -0.102000
      5 N2         13.0040   -2.0800   -0.7930 n4        1 BR6     -0.894600
      6 C3          3.9660   -0.4350    1.1980 ca        1 BR6     -0.109500
      7 N3         13.2720    0.3850   -1.0260 n2        1 BR6     -0.671100
      8 C4          2.5290    0.2340   -1.1050 ca        1 BR6     -0.102000
      9 C5          3.9170    0.1610   -1.1550 ca        1 BR6     -0.109500
     10 C6          4.6620   -0.1790   -0.0050 ca        1 BR6      0.104400
     11 C7          6.7800   -0.4550   -1.0190 cf        1 BR6      0.442800
     12 C8          8.2520   -0.4900   -0.9640 ca        1 BR6     -0.071900
     13 C9          8.9720    0.1260    0.0680 ca        1 BR6     -0.097500
     14 C10        10.3660    0.0780    0.0800 ca        1 BR6     -0.092000
     15 C11        11.0410   -0.5990   -0.9420 ca        1 BR6     -0.222900
     16 C12        12.5210   -0.6260   -0.9370 ce        1 BR6      0.636800
     17 C13        10.3310   -1.2060   -1.9870 ca        1 BR6     -0.092000
     18 C14         8.9420   -1.1500   -1.9950 ca        1 BR6     -0.097500
     19 H2          2.0550   -0.5750    2.1840 ha        1 BR6      0.158000
     20 HN2        12.5070   -2.6570   -1.4800 hn        1 BR6      0.456800
     21 HN2A       12.7570   -2.4130    0.1440 hn        1 BR6      0.456800
     22 H3          4.5190   -0.6950    2.1150 ha        1 BR6      0.145500
     23 HN3        14.2670    0.3560   -1.0030 hn        1 BR6      0.464400
     24 H4          1.9690    0.5070   -2.0140 ha        1 BR6      0.158000
     25 H5          4.4260    0.3910   -2.1040 ha        1 BR6      0.145500
     26 H7          6.3650   -0.6540   -2.0320 h4        1 BR6     -0.004200
     27 H9          8.4400    0.6570    0.8770 ha        1 BR6      0.173500
     28 H10        10.9240    0.5830    0.8830 ha        1 BR6      0.146500
     29 H13        10.8580   -1.6980   -2.8190 ha        1 BR6      0.146500
     30 H14         8.3810   -1.6210   -2.8190 ha        1 BR6      0.173500
     31 H23        14.0100   -2.1840   -0.9320 hn        1 BR6      0.456800
@<TRIPOS>BOND
     1    1    2 1   
     2    2    4 ar  
     3    2    8 ar  
     4    3   10 1   
     5    3   11 2   
     6    4    6 ar  
     7    4   19 1   
     8    5   16 1   
     9    5   20 1   
    10    5   21 1   
    11    5   31 1   
    12    6   10 ar  
    13    6   22 1   
    14    7   16 2   
    15    7   23 1   
    16    8    9 ar  
    17    8   24 1   
    18    9   10 ar  
    19    9   25 1   
    20   11   12 1   
    21   11   26 1   
    22   12   13 ar  
    23   12   18 ar  
    24   13   14 ar  
    25   13   27 1   
    26   14   15 ar  
    27   14   28 1   
    28   15   16 1   
    29   15   17 ar  
    30   17   18 ar  
    31   17   29 1   
    32   18   30 1   
@<TRIPOS>SUBSTRUCTURE
     1 BR6         1 TEMP              0 ****  ****    0 ROOT
