@<TRIPOS>MOLECULE
BR7
   35    37     1     0     0
SMALL
bcc


@<TRIPOS>ATOM
      1 C01         1.5260   -0.0030   -0.0030 c3        1 BR7     -0.094100
      2 C02         0.0080   -0.0040    0.0010 c3        1 BR7     -0.042000
      3 C03        -0.5130    0.0010    1.4380 c3        1 BR7     -0.078400
      4 C04        -2.0420   -0.0050    1.4510 c3        1 BR7     -0.042000
      5 C05        -2.5520   -0.0040    2.8810 c3        1 BR7     -0.094100
      6 C06        -2.5550    1.2480    0.7320 c3        1 BR7     -0.092400
      7 C07        -2.0380    1.2430   -0.7170 c3        1 BR7      0.138200
      8 N          -2.5470    2.4860   -1.4370 n4        1 BR7     -0.845600
      9 C08        -0.4990    1.2480   -0.7220 c3        1 BR7     -0.092400
     10 C09        -2.5550   -0.0110   -1.4490 c3        1 BR7     -0.089400
     11 C10        -2.0380   -1.2510   -0.7200 c3        1 BR7      0.026400
     12 BR         -2.7000   -2.8360   -1.6570 br        1 BR7     -0.106400
     13 C11        -0.5130   -1.2480   -0.7230 c3        1 BR7     -0.077400
     14 C          -2.5500   -1.2490    0.7180 c3        1 BR7     -0.077400
     15 H1          1.9180    0.9000    0.5230 hc        1 BR7      0.054700
     16 H2          1.9150   -0.0060   -1.0500 hc        1 BR7      0.054700
     17 H3          1.9100   -0.9130    0.5200 hc        1 BR7      0.054700
     18 H4         -0.1330   -0.9070    1.9760 hc        1 BR7      0.069700
     19 H5         -0.1300    0.9030    1.9810 hc        1 BR7      0.069700
     20 H6         -3.6690   -0.0080    2.8980 hc        1 BR7      0.054700
     21 H7         -2.1870    0.8990    3.4250 hc        1 BR7      0.054700
     22 H8         -2.1860   -0.9140    3.4170 hc        1 BR7      0.054700
     23 H9         -3.6760    1.2470    0.7480 hc        1 BR7      0.066200
     24 H10        -2.1890    2.1580    1.2750 hc        1 BR7      0.066200
     25 H12        -3.5700    2.4860   -1.4360 hn        1 BR7      0.455800
     26 H13        -2.2070    2.4860   -2.4020 hn        1 BR7      0.455800
     27 H14        -0.1100    1.2480   -1.7740 hc        1 BR7      0.066200
     28 H15        -0.1090    2.1590   -0.1960 hc        1 BR7      0.066200
     29 H16        -2.1870   -0.0170   -2.5100 hc        1 BR7      0.075700
     30 H17        -3.6770   -0.0180   -1.4560 hc        1 BR7      0.075700
     31 H18        -0.1280   -2.1650   -0.2020 hc        1 BR7      0.079700
     32 H19        -0.1230   -1.2630   -1.7740 hc        1 BR7      0.079700
     33 H20        -3.6710   -1.2640    0.7340 hc        1 BR7      0.079700
     34 H21        -2.1870   -2.1650    1.2540 hc        1 BR7      0.079700
     35 HN3        -2.2060    3.3220   -0.9560 hn        1 BR7      0.455800
@<TRIPOS>BOND
     1    1    2 1   
     2    1   15 1   
     3    1   16 1   
     4    1   17 1   
     5    2    3 1   
     6    2    9 1   
     7    2   13 1   
     8    3    4 1   
     9    3   18 1   
    10    3   19 1   
    11    4    5 1   
    12    4    6 1   
    13    4   14 1   
    14    5   20 1   
    15    5   21 1   
    16    5   22 1   
    17    6    7 1   
    18    6   23 1   
    19    6   24 1   
    20    7    8 1   
    21    7    9 1   
    22    7   10 1   
    23    8   25 1   
    24    8   26 1   
    25    8   35 1   
    26    9   27 1   
    27    9   28 1   
    28   10   11 1   
    29   10   29 1   
    30   10   30 1   
    31   11   12 1   
    32   11   13 1   
    33   11   14 1   
    34   13   31 1   
    35   13   32 1   
    36   14   33 1   
    37   14   34 1   
@<TRIPOS>SUBSTRUCTURE
     1 BR7         1 TEMP              0 ****  ****    0 ROOT
