@<TRIPOS>MOLECULE
BR7
   34    36     1     0     0
SMALL
bcc


@<TRIPOS>ATOM
      1 C01         1.5210   -0.0030   -0.0040 c3        1 BR7     -0.085100
      2 C02         0.0030   -0.0000   -0.0040 c3        1 BR7     -0.053000
      3 C03        -0.5160    0.0030    1.4340 c3        1 BR7     -0.062400
      4 C04        -2.0450   -0.0010    1.4440 c3        1 BR7     -0.053000
      5 C05        -2.5510   -0.0040    2.8750 c3        1 BR7     -0.085100
      6 C06        -2.5580    1.2430    0.7200 c3        1 BR7     -0.061400
      7 C07        -2.0540    1.2740   -0.7410 c3        1 BR7      0.180200
      8 N          -2.5260    2.4890   -1.4070 n3        1 BR7     -0.896800
      9 C08        -0.5090    1.2440   -0.7280 c3        1 BR7     -0.061400
     10 C09        -2.5520   -0.0180   -1.4460 c3        1 BR7     -0.107400
     11 C10        -2.0360   -1.2490   -0.7160 c3        1 BR7      0.056400
     12 BR         -2.6890   -2.8650   -1.6400 br        1 BR7     -0.196400
     13 C11        -0.5120   -1.2520   -0.7210 c3        1 BR7     -0.065400
     14 C          -2.5490   -1.2530    0.7200 c3        1 BR7     -0.065400
     15 H1          1.9090    0.9060    0.5160 hc        1 BR7      0.037367
     16 H2          1.9070   -0.9080    0.5230 hc        1 BR7      0.037367
     17 H3          1.9090   -0.0080   -1.0510 hc        1 BR7      0.037367
     18 H4         -0.1390    0.9130    1.9680 hc        1 BR7      0.046700
     19 H5         -0.1330   -0.9000    1.9760 hc        1 BR7      0.046700
     20 H6         -2.1910    0.9050    3.4140 hc        1 BR7      0.037367
     21 H7         -2.1820   -0.9090    3.4140 hc        1 BR7      0.037367
     22 H8         -3.6680   -0.0090    2.8920 hc        1 BR7      0.037367
     23 H9         -2.2010    2.1600    1.2570 hc        1 BR7      0.051200
     24 H10        -3.6780    1.2450    0.7360 hc        1 BR7      0.051200
     25 H12        -3.5260    2.5090   -1.4090 hn        1 BR7      0.348800
     26 H13        -2.1940    2.5090   -2.3510 hn        1 BR7      0.348800
     27 H14        -0.1220    2.1600   -0.2130 hc        1 BR7      0.051200
     28 H15        -0.1210    1.2460   -1.7800 hc        1 BR7      0.051200
     29 H16        -2.1900   -0.0250   -2.5060 hc        1 BR7      0.053700
     30 H17        -3.6730   -0.0250   -1.4580 hc        1 BR7      0.053700
     31 H18        -0.1250   -2.1650   -0.1980 hc        1 BR7      0.057200
     32 H19        -0.1270   -1.2640   -1.7730 hc        1 BR7      0.057200
     33 H20        -3.6690   -1.2650    0.7310 hc        1 BR7      0.057200
     34 H21        -2.1840   -2.1660    1.2580 hc        1 BR7      0.057200
@<TRIPOS>BOND
     1    1    2 1   
     2    1   15 1   
     3    1   16 1   
     4    1   17 1   
     5    2    3 1   
     6    2    9 1   
     7    2   13 1   
     8    3    4 1   
     9    3   18 1   
    10    3   19 1   
    11    4    5 1   
    12    4    6 1   
    13    4   14 1   
    14    5   20 1   
    15    5   21 1   
    16    5   22 1   
    17    6    7 1   
    18    6   23 1   
    19    6   24 1   
    20    7    8 1   
    21    7    9 1   
    22    7   10 1   
    23    8   25 1   
    24    8   26 1   
    25    9   27 1   
    26    9   28 1   
    27   10   11 1   
    28   10   29 1   
    29   10   30 1   
    30   11   12 1   
    31   11   13 1   
    32   11   14 1   
    33   13   31 1   
    34   13   32 1   
    35   14   33 1   
    36   14   34 1   
@<TRIPOS>SUBSTRUCTURE
     1 BR7         1 TEMP              0 ****  ****    0 ROOT
