@<TRIPOS>MOLECULE
BR8
   13    13     1     0     0
SMALL
bcc


@<TRIPOS>ATOM
      1 N1         -0.6230    0.0310   -1.3400 n         1 BR8     -0.594500
      2 C2          0.7960    0.0310   -1.3400 c         1 BR8      0.817500
      3 O2          1.4030   -0.2230   -2.3610 o         1 BR8     -0.612500
      4 N3          1.5060    0.0310   -0.1110 n         1 BR8     -0.594500
      5 C4          0.7960    0.0310    1.1190 c         1 BR8      0.708500
      6 O4          1.4000   -0.0550    2.1690 o         1 BR8     -0.586500
      7 C5         -0.7170    0.0310    1.1180 c3        1 BR8     -0.235400
      8 C6         -1.3320    0.0310   -0.1120 c         1 BR8      0.708500
      9 O8         -2.5440    0.1150   -0.1110 o         1 BR8     -0.586500
     10 H1         -1.0790    0.0410   -2.1300 hn        1 BR8      0.360500
     11 H3          2.4180    0.0250   -0.1100 hn        1 BR8      0.360500
     12 H51C       -1.0470    0.7390    1.7030 hc        1 BR8      0.127700
     13 H52C       -0.9760   -0.8270    1.5060 hc        1 BR8      0.127700
@<TRIPOS>BOND
     1    1    2 1   
     2    1    8 1   
     3    1   10 1   
     4    2    3 2   
     5    2    4 1   
     6    4    5 1   
     7    4   11 1   
     8    5    6 2   
     9    5    7 1   
    10    7    8 1   
    11    7   12 1   
    12    7   13 1   
    13    8    9 2   
@<TRIPOS>SUBSTRUCTURE
     1 BR8         1 TEMP              0 ****  ****    0 ROOT
