@<TRIPOS>MOLECULE
BR8
   13    13     1     0     0
SMALL
bcc


@<TRIPOS>ATOM
      1 N1         -0.0150   -0.0030   -0.0230 n         1 BR8     -0.594500
      2 C2          1.3890   -0.0050   -0.0980 c         1 BR8      0.817500
      3 O2          1.9660   -0.0130   -1.2030 o         1 BR8     -0.612500
      4 N3          2.1310    0.0010    1.0970 n         1 BR8     -0.594500
      5 C4          1.5500    0.0090    2.3640 c         1 BR8      0.708500
      6 O4          2.2790    0.0150    3.3670 o         1 BR8     -0.586500
      7 C5          0.0460    0.0120    2.4750 c3        1 BR8     -0.235400
      8 C6         -0.7220    0.0050    1.1770 c         1 BR8      0.708500
      9 O8         -1.9620    0.0070    1.1520 o         1 BR8     -0.586500
     10 H1         -0.5130   -0.0080   -0.8890 hn        1 BR8      0.360500
     11 H3          3.1260   -0.0010    1.0110 hn        1 BR8      0.360500
     12 H51C       -0.2640   -0.8910    3.0730 hc        1 BR8      0.127700
     13 H52C       -0.2620    0.9230    3.0620 hc        1 BR8      0.127700
@<TRIPOS>BOND
     1    1    2 1   
     2    1    8 1   
     3    1   10 1   
     4    2    3 2   
     5    2    4 1   
     6    4    5 1   
     7    4   11 1   
     8    5    6 2   
     9    5    7 1   
    10    7    8 1   
    11    7   12 1   
    12    7   13 1   
    13    8    9 2   
@<TRIPOS>SUBSTRUCTURE
     1 BR8         1 TEMP              0 ****  ****    0 ROOT
