@<TRIPOS>MOLECULE
BR8
   13    13     1     0     0
SMALL
bcc


@<TRIPOS>ATOM
      1 N1          1.2100   -0.6850    0.0010 n         1 BR8     -0.594500
      2 C2         -0.0000   -1.4010    0.0010 c         1 BR8      0.817500
      3 O2         -0.0000   -2.6480    0.0010 o         1 BR8     -0.612500
      4 N3         -1.2100   -0.6850    0.0000 n         1 BR8     -0.594500
      5 C4         -1.2820    0.7070   -0.0000 c         1 BR8      0.708500
      6 O4         -2.3920    1.2580   -0.0010 o         1 BR8     -0.586500
      7 C5          0.0000    1.5020    0.0000 c3        1 BR8     -0.235400
      8 C6          1.2820    0.7070    0.0010 c         1 BR8      0.708500
      9 O8          2.3920    1.2580    0.0010 o         1 BR8     -0.586500
     10 H1          2.0530   -1.2220    0.0010 hn        1 BR8      0.360500
     11 H3         -2.0530   -1.2220   -0.0000 hn        1 BR8      0.360500
     12 H51C        0.0000    2.1690   -0.9070 hc        1 BR8      0.127700
     13 H52C       -0.0000    2.1700    0.9070 hc        1 BR8      0.127700
@<TRIPOS>BOND
     1    1    2 1   
     2    1    8 1   
     3    1   10 1   
     4    2    3 2   
     5    2    4 1   
     6    4    5 1   
     7    4   11 1   
     8    5    6 2   
     9    5    7 1   
    10    7    8 1   
    11    7   12 1   
    12    7   13 1   
    13    8    9 2   
@<TRIPOS>SUBSTRUCTURE
     1 BR8         1 TEMP              0 ****  ****    0 ROOT
