@<TRIPOS>MOLECULE
BR8
   13    13     1     0     0
SMALL
bcc


@<TRIPOS>ATOM
      1 N1         -0.0090   -0.0000   -0.0340 ns        1 BR8     -0.594500
      2 C2          1.3950   -0.0000   -0.1060 c         1 BR8      0.817500
      3 O2          1.9740   -0.0000   -1.2100 o         1 BR8     -0.612500
      4 N3          2.1350    0.0000    1.0900 ns        1 BR8     -0.594500
      5 C4          1.5520    0.0000    2.3560 c         1 BR8      0.708500
      6 O4          2.2800    0.0000    3.3600 o         1 BR8     -0.586500
      7 C5          0.0480   -0.0000    2.4650 c3        1 BR8     -0.235400
      8 C6         -0.7180   -0.0000    1.1660 c         1 BR8      0.708500
      9 O8         -1.9580   -0.0000    1.1390 o         1 BR8     -0.586500
     10 H1         -0.5060   -0.0000   -0.9000 hn        1 BR8      0.360500
     11 H3          3.1300    0.0000    1.0050 hn        1 BR8      0.360500
     12 H51C       -0.2620    0.9070    3.0570 hc        1 BR8      0.127700
     13 H52C       -0.2620   -0.9070    3.0570 hc        1 BR8      0.127700
@<TRIPOS>BOND
     1    1    2 1   
     2    1    8 1   
     3    1   10 1   
     4    2    3 2   
     5    2    4 1   
     6    4    5 1   
     7    4   11 1   
     8    5    6 2   
     9    5    7 1   
    10    7    8 1   
    11    7   12 1   
    12    7   13 1   
    13    8    9 2   
@<TRIPOS>SUBSTRUCTURE
     1 BR8         1 TEMP              0 ****  ****    0 ROOT
