@<TRIPOS>MOLECULE
BRA
   87    92     1     0     0
SMALL
bcc


@<TRIPOS>ATOM
      1 C40         5.9680    7.6700   -0.3750 c3        1 BRA      0.158800
      2 C41         6.7450    8.4330    0.7090 c3        1 BRA     -0.093900
      3 C42         7.5150    7.3830    1.4970 c3        1 BRA     -0.093900
      4 C43         7.1720    6.0300    0.8540 c3        1 BRA      0.158800
      5 N39         6.2550    6.2370   -0.2680 n3        1 BRA     -0.730600
      6 C38         5.0610    5.4100   -0.2260 c3        1 BRA      0.173800
      7 C37         5.3650    3.9380   -0.5090 c3        1 BRA     -0.156400
      8 C36         4.0760    3.1320   -0.4690 c         1 BRA      0.662100
      9 O52         2.9860    3.6480   -0.1690 o         1 BRA     -0.577600
     10 N17         4.2120    1.7840   -0.7840 n         1 BRA     -0.474600
     11 C3          3.2060    0.8070   -0.8330 ca        1 BRA      0.077600
     12 C4          1.8740    1.0560   -0.5790 ca        1 BRA     -0.223300
     13 C2          3.6180   -0.5380   -1.1750 ca        1 BRA     -0.175000
     14 C1          2.7110   -1.5500   -1.2300 ca        1 BRA     -0.078000
     15 C6          1.3250   -1.3360   -0.9610 ca        1 BRA     -0.208800
     16 C10         0.3520   -2.3700   -1.0160 ca        1 BRA      0.212600
     17 N19         0.7090   -3.6700   -1.4230 nh        1 BRA     -0.618000
     18 C28         1.5550   -4.4860   -0.6370 ca        1 BRA      0.088600
     19 C29         2.1390   -4.0580    0.5710 ca        1 BRA     -0.136500
     20 C24         2.9990   -4.8820    1.2820 ca        1 BRA     -0.158500
     21 C25         3.3210   -6.1810    0.8240 ca        1 BRA      0.130600
     22 N15         4.2690   -6.9820    1.4980 nh        1 BRA     -0.646000
     23 C16         4.5230   -6.6560    2.8800 c3        1 BRA      0.180100
     24 C18         4.2770   -8.3870    1.1780 c3        1 BRA      0.180100
     25 C26         2.7150   -6.6130   -0.3790 ca        1 BRA     -0.158500
     26 C27         1.8580   -5.7880   -1.0930 ca        1 BRA     -0.136500
     27 C5          0.8920   -0.0000   -0.6480 ca        1 BRA      0.466600
     28 N7         -0.4050    0.3210   -0.4270 nb        1 BRA     -0.677000
     29 C8         -1.3360   -0.6600   -0.4870 ca        1 BRA      0.466600
     30 C11        -2.7160   -0.2990   -0.2610 ca        1 BRA     -0.223300
     31 C9         -1.0070   -2.0340   -0.7600 ca        1 BRA     -0.208800
     32 C14        -2.0660   -2.9910   -0.7470 ca        1 BRA     -0.078000
     33 C13        -3.3590   -2.6330   -0.5200 ca        1 BRA     -0.175000
     34 C12        -3.7130   -1.2510   -0.2800 ca        1 BRA      0.077600
     35 N21        -5.0730   -0.9710   -0.0800 n         1 BRA     -0.474600
     36 C44        -5.6530    0.2580    0.2190 c         1 BRA      0.662100
     37 O53        -4.9920    1.3030    0.3430 o         1 BRA     -0.577600
     38 C45        -7.1650    0.2370    0.3780 c3        1 BRA     -0.156400
     39 C46        -7.6600    1.6250    0.7910 c3        1 BRA      0.173800
     40 N47        -9.1010    1.6630    0.9780 n3        1 BRA     -0.730600
     41 C48        -9.8710    1.5670   -0.2630 c3        1 BRA      0.158800
     42 C49       -10.8900    2.7160   -0.3280 c3        1 BRA     -0.093900
     43 C50       -10.6920    3.5290    0.9440 c3        1 BRA     -0.093900
     44 C51        -9.5600    2.8390    1.7220 c3        1 BRA      0.158800
     45 H40         4.8690    7.8940   -0.2900 h1        1 BRA      0.043075
     46 H40A        6.3050    7.9930   -1.3990 h1        1 BRA      0.043075
     47 H41         7.4390    9.1720    0.2400 hc        1 BRA      0.047700
     48 H41A        6.0430    8.9970    1.3690 hc        1 BRA      0.047700
     49 H42         8.6150    7.5690    1.4470 hc        1 BRA      0.047700
     50 H42A        7.2170    7.3900    2.5740 hc        1 BRA      0.047700
     51 H43         8.1000    5.5510    0.4370 h1        1 BRA      0.043075
     52 H43A        6.7460    5.3320    1.6270 h1        1 BRA      0.043075
     53 H38         4.5200    5.4760    0.7640 h1        1 BRA      0.052700
     54 H38A        4.3480    5.7770   -1.0190 h1        1 BRA      0.052700
     55 H37         5.8460    3.8330   -1.5170 hc        1 BRA      0.071200
     56 H37A        6.0760    3.5330    0.2590 hc        1 BRA      0.071200
     57 HN17        5.1270    1.4660   -1.0170 hn        1 BRA      0.315000
     58 H4          1.5140    2.0680   -0.3190 ha        1 BRA      0.193500
     59 H2          4.6780   -0.7410   -1.3940 ha        1 BRA      0.130000
     60 H1          3.0530   -2.5660   -1.4920 ha        1 BRA      0.138500
     61 HN19       -0.0470   -4.1830   -1.8320 hn        1 BRA      0.411800
     62 H29         1.9210   -3.0500    0.9610 ha        1 BRA      0.140500
     63 H24         3.4270   -4.4930    2.2180 ha        1 BRA      0.136000
     64 H16         3.5830   -6.5920    3.4930 h1        1 BRA      0.037367
     65 H16A        5.1950   -7.4290    3.3370 h1        1 BRA      0.037367
     66 H16B        5.0500   -5.6650    2.9270 h1        1 BRA      0.037367
     67 H18         4.6170   -8.5150    0.1160 h1        1 BRA      0.037367
     68 H18A        5.0040   -8.9240    1.8430 h1        1 BRA      0.037367
     69 H18B        3.2660   -8.8660    1.2920 h1        1 BRA      0.037367
     70 H26         2.9150   -7.6180   -0.7810 ha        1 BRA      0.136000
     71 H27         1.4170   -6.1650   -2.0290 ha        1 BRA      0.140500
     72 H11        -2.9380    0.7670   -0.0700 ha        1 BRA      0.193500
     73 H14        -1.8440   -4.0590   -0.9040 ha        1 BRA      0.138500
     74 H13        -4.1460   -3.4020   -0.5120 ha        1 BRA      0.130000
     75 HN21       -5.6850   -1.7540   -0.1410 hn        1 BRA      0.315000
     76 H45        -7.6330   -0.0680   -0.5950 hc        1 BRA      0.071200
     77 H45A       -7.4550   -0.5190    1.1550 hc        1 BRA      0.071200
     78 H46        -7.1690    1.8920    1.7710 h1        1 BRA      0.052700
     79 H46A       -7.2990    2.3710    0.0240 h1        1 BRA      0.052700
     80 H48        -9.2120    1.5840   -1.1750 h1        1 BRA      0.043075
     81 H48A      -10.4030    0.5770   -0.2440 h1        1 BRA      0.043075
     82 H49       -10.7160    3.3420   -1.2360 hc        1 BRA      0.047700
     83 H49A      -11.9290    2.3110   -0.3880 hc        1 BRA      0.047700
     84 H50       -10.4150    4.5850    0.7070 hc        1 BRA      0.047700
     85 H50A      -11.6260    3.5510    1.5560 hc        1 BRA      0.047700
     86 H51        -9.9380    2.4680    2.7140 h1        1 BRA      0.043075
     87 H51A       -8.7300    3.5700    1.9230 h1        1 BRA      0.043075
@<TRIPOS>BOND
     1    1    2 1   
     2    1    5 1   
     3    1   45 1   
     4    1   46 1   
     5    2    3 1   
     6    2   47 1   
     7    2   48 1   
     8    3    4 1   
     9    3   49 1   
    10    3   50 1   
    11    4    5 1   
    12    4   51 1   
    13    4   52 1   
    14    5    6 1   
    15    6    7 1   
    16    6   53 1   
    17    6   54 1   
    18    7    8 1   
    19    7   55 1   
    20    7   56 1   
    21    8    9 2   
    22    8   10 1   
    23   10   11 1   
    24   10   57 1   
    25   11   12 ar  
    26   11   13 ar  
    27   12   27 ar  
    28   12   58 1   
    29   13   14 ar  
    30   13   59 1   
    31   14   15 ar  
    32   14   60 1   
    33   15   16 ar  
    34   15   27 ar  
    35   16   17 1   
    36   16   31 ar  
    37   17   18 1   
    38   17   61 1   
    39   18   19 ar  
    40   18   26 ar  
    41   19   20 ar  
    42   19   62 1   
    43   20   21 ar  
    44   20   63 1   
    45   21   22 1   
    46   21   25 ar  
    47   22   23 1   
    48   22   24 1   
    49   23   64 1   
    50   23   65 1   
    51   23   66 1   
    52   24   67 1   
    53   24   68 1   
    54   24   69 1   
    55   25   26 ar  
    56   25   70 1   
    57   26   71 1   
    58   27   28 ar  
    59   28   29 ar  
    60   29   30 ar  
    61   29   31 ar  
    62   30   34 ar  
    63   30   72 1   
    64   31   32 ar  
    65   32   33 ar  
    66   32   73 1   
    67   33   34 ar  
    68   33   74 1   
    69   34   35 1   
    70   35   36 1   
    71   35   75 1   
    72   36   37 2   
    73   36   38 1   
    74   38   39 1   
    75   38   76 1   
    76   38   77 1   
    77   39   40 1   
    78   39   78 1   
    79   39   79 1   
    80   40   41 1   
    81   40   44 1   
    82   41   42 1   
    83   41   80 1   
    84   41   81 1   
    85   42   43 1   
    86   42   82 1   
    87   42   83 1   
    88   43   44 1   
    89   43   84 1   
    90   43   85 1   
    91   44   86 1   
    92   44   87 1   
@<TRIPOS>SUBSTRUCTURE
     1 BRA         1 TEMP              0 ****  ****    0 ROOT
