@<TRIPOS>MOLECULE
BRA
   91    96     1     0     0
SMALL
bcc


@<TRIPOS>ATOM
      1 C40         1.6720    0.1000    1.9670 c3        1 BRA      0.175800
      2 C41         3.1570   -0.2130    1.7300 c3        1 BRA     -0.091400
      3 C42         3.2740   -1.7300    1.6640 c3        1 BRA     -0.091400
      4 C43         1.8560   -2.2850    1.8640 c3        1 BRA      0.175800
      5 N39         0.9300   -1.1610    2.0070 n3        1 BRA     -0.775100
      6 C38        -0.0910   -1.2820    2.9980 c3        1 BRA      0.221800
      7 C37        -1.4810   -1.3820    2.2880 c3        1 BRA     -0.189900
      8 C36        -2.5620   -1.4440    3.3090 c         1 BRA      0.585100
      9 O52        -2.6160   -1.0790    4.4640 o         1 BRA     -0.402100
     10 N17        -3.8760   -2.1210    2.7790 n4        1 BRA     -0.593700
     11 C3         -5.1020   -1.7320    3.4720 ca        1 BRA     -0.009400
     12 C4         -6.0790   -1.0090    2.8290 ca        1 BRA     -0.073800
     13 C2         -5.2780   -2.1170    4.8470 ca        1 BRA     -0.030000
     14 C1         -6.4280   -1.8010    5.5150 ca        1 BRA     -0.155000
     15 C6         -7.4990   -1.0980    4.8830 ca        1 BRA     -0.066800
     16 C10        -8.7500   -0.8060    5.4840 ca        1 BRA     -0.024400
     17 N19        -9.0700   -1.3750    6.8020 n4        1 BRA     -0.509800
     18 C28        -8.7770   -0.5660    8.0000 ca        1 BRA     -0.024400
     19 C29        -8.1330    0.6770    7.9360 ca        1 BRA     -0.079000
     20 C24        -7.8720    1.3860    9.1120 ca        1 BRA     -0.076500
     21 C25        -8.2520    0.8600   10.3580 ca        1 BRA      0.026600
     22 N15        -7.9800    1.5930   11.6080 n4        1 BRA     -0.564800
     23 C16        -8.6880    2.9080   11.6410 c3        1 BRA      0.083100
     24 C18        -6.5130    1.7720   11.8310 c3        1 BRA      0.083100
     25 C26        -8.9040   -0.3880   10.4180 ca        1 BRA     -0.076500
     26 C27        -9.1650   -1.0960    9.2480 ca        1 BRA     -0.079000
     27 C5         -7.3120   -0.6760    3.5140 ca        1 BRA      0.406100
     28 N7         -8.2570   -0.0090    2.8160 nb        1 BRA     -0.540000
     29 C8         -9.4400    0.2750    3.4060 ca        1 BRA      0.406100
     30 C11       -10.4460    0.9470    2.6060 ca        1 BRA     -0.073800
     31 C9         -9.7470   -0.0950    4.7680 ca        1 BRA     -0.066800
     32 C14       -11.0360    0.2510    5.2760 ca        1 BRA     -0.155000
     33 C13       -11.9760    0.8720    4.5020 ca        1 BRA     -0.030000
     34 C12       -11.6850    1.2210    3.1380 ca        1 BRA     -0.009400
     35 N21       -12.7200    1.8580    2.3280 n4        1 BRA     -0.593700
     36 C44       -13.2210    1.0010    1.1020 c         1 BRA      0.585100
     37 O53       -12.3880    0.2450    0.6520 o         1 BRA     -0.402100
     38 C45       -14.6290    1.2940    0.7220 c3        1 BRA     -0.189900
     39 C46       -14.9010    0.7730   -0.7270 c3        1 BRA      0.221800
     40 N47       -16.2710    1.0060   -1.0550 n3        1 BRA     -0.775100
     41 C48       -17.1120   -0.1740   -1.2670 c3        1 BRA      0.175800
     42 C49       -18.0200    0.0810   -2.4800 c3        1 BRA     -0.091400
     43 C50       -17.6600    1.4650   -3.0060 c3        1 BRA     -0.091400
     44 C51       -16.5460    2.0000   -2.0940 c3        1 BRA      0.175800
     45 H40         1.5460    0.6960    2.9130 h1        1 BRA      0.046325
     46 H40A        1.2560    0.7060    1.1160 h1        1 BRA      0.046325
     47 H41         3.7800    0.2030    2.5600 hc        1 BRA      0.073075
     48 H41A        3.5030    0.2570    0.7760 hc        1 BRA      0.073075
     49 H42         3.6820   -2.0580    0.6760 hc        1 BRA      0.073075
     50 H42A        3.9580   -2.1160    2.4600 hc        1 BRA      0.073075
     51 H43         1.8290   -2.9730    2.7530 h1        1 BRA      0.046325
     52 H43A        1.5320   -2.8730    0.9610 h1        1 BRA      0.046325
     53 H38         0.0240   -2.2100    3.6280 h1        1 BRA      0.057700
     54 H38A       -0.1370   -0.3910    3.6880 h1        1 BRA      0.057700
     55 H37        -1.6430   -0.4620    1.6580 hc        1 BRA      0.123450
     56 H37A       -1.4870   -2.2770    1.6090 hc        1 BRA      0.123450
     57 HN17       -3.7570   -3.1400    2.8760 hn        1 BRA      0.471550
     58 H4         -5.9750   -0.6700    1.7770 ha        1 BRA      0.209500
     59 H2         -4.4640   -2.6550    5.3720 ha        1 BRA      0.191500
     60 H1         -6.4980   -2.0940    6.5750 ha        1 BRA      0.154500
     61 HN19       -8.5530   -2.2670    6.8970 hn        1 BRA      0.480300
     62 H29        -7.8210    1.1150    6.9710 ha        1 BRA      0.190000
     63 H24        -7.3600    2.3650    9.0330 ha        1 BRA      0.198500
     64 H16        -9.7900    2.7450   11.5010 hx        1 BRA      0.120533
     65 H16A       -8.5030    3.3900   12.6430 hx        1 BRA      0.120533
     66 H16B       -8.2910    3.5740   10.8300 hx        1 BRA      0.120533
     67 H18        -6.0080    0.7690   11.8330 hx        1 BRA      0.120533
     68 H18A       -6.3600    2.2720   12.8290 hx        1 BRA      0.120533
     69 H18B       -6.0820    2.4190   11.0210 hx        1 BRA      0.120533
     70 H26        -9.2200   -0.8350   11.3820 ha        1 BRA      0.198500
     71 H27        -9.6770   -2.0750    9.3340 ha        1 BRA      0.190000
     72 H11       -10.1850    1.1990    1.5560 ha        1 BRA      0.209500
     73 H14       -11.3020    0.0320    6.3230 ha        1 BRA      0.154500
     74 H13       -12.9680    1.1090    4.9340 ha        1 BRA      0.191500
     75 HN21      -13.5340    2.0780    2.9150 hn        1 BRA      0.471550
     76 H45       -14.8520    2.3940    0.7690 hc        1 BRA      0.123450
     77 H45A      -15.3140    0.7630    1.4430 hc        1 BRA      0.123450
     78 H46       -14.6300   -0.3220   -0.7410 h1        1 BRA      0.057700
     79 H46A      -14.1900    1.3190   -1.4120 h1        1 BRA      0.057700
     80 H48       -16.5030   -1.1060   -1.4270 h1        1 BRA      0.046325
     81 H48A      -17.7280   -0.3160   -0.3370 h1        1 BRA      0.046325
     82 H49       -19.0950    0.0360   -2.1740 hc        1 BRA      0.073075
     83 H49A      -17.8550   -0.7020   -3.2610 hc        1 BRA      0.073075
     84 H50       -17.3050    1.4130   -4.0640 hc        1 BRA      0.073075
     85 H50A      -18.5450    2.1480   -2.9770 hc        1 BRA      0.073075
     86 H51       -16.8790    2.9410   -1.5750 h1        1 BRA      0.046325
     87 H51A      -15.6300    2.2440   -2.7000 h1        1 BRA      0.046325
     88 H172       -3.9600   -1.9060    1.7760 hn        1 BRA      0.471550
     89 H192      -10.0820   -1.5980    6.8140 hn        1 BRA      0.480300
     90 H151       -8.3460    1.0230   12.3930 hn        1 BRA      0.475800
     91 H212      -12.3510    2.7410    1.9500 hn        1 BRA      0.471550
@<TRIPOS>BOND
     1    1    2 1   
     2    1    5 1   
     3    1   45 1   
     4    1   46 1   
     5    2    3 1   
     6    2   47 1   
     7    2   48 1   
     8    3    4 1   
     9    3   49 1   
    10    3   50 1   
    11    4    5 1   
    12    4   51 1   
    13    4   52 1   
    14    5    6 1   
    15    6    7 1   
    16    6   53 1   
    17    6   54 1   
    18    7    8 1   
    19    7   55 1   
    20    7   56 1   
    21    8    9 2   
    22    8   10 1   
    23   10   11 1   
    24   10   57 1   
    25   10   88 1   
    26   11   12 ar  
    27   11   13 ar  
    28   12   27 ar  
    29   12   58 1   
    30   13   14 ar  
    31   13   59 1   
    32   14   15 ar  
    33   14   60 1   
    34   15   16 ar  
    35   15   27 ar  
    36   16   17 1   
    37   16   31 ar  
    38   17   18 1   
    39   17   61 1   
    40   17   89 1   
    41   18   19 ar  
    42   18   26 ar  
    43   19   20 ar  
    44   19   62 1   
    45   20   21 ar  
    46   20   63 1   
    47   21   22 1   
    48   21   25 ar  
    49   22   23 1   
    50   22   24 1   
    51   22   90 1   
    52   23   64 1   
    53   23   65 1   
    54   23   66 1   
    55   24   67 1   
    56   24   68 1   
    57   24   69 1   
    58   25   26 ar  
    59   25   70 1   
    60   26   71 1   
    61   27   28 ar  
    62   28   29 ar  
    63   29   30 ar  
    64   29   31 ar  
    65   30   34 ar  
    66   30   72 1   
    67   31   32 ar  
    68   32   33 ar  
    69   32   73 1   
    70   33   34 ar  
    71   33   74 1   
    72   34   35 1   
    73   35   36 1   
    74   35   75 1   
    75   35   91 1   
    76   36   37 2   
    77   36   38 1   
    78   38   39 1   
    79   38   76 1   
    80   38   77 1   
    81   39   40 1   
    82   39   78 1   
    83   39   79 1   
    84   40   41 1   
    85   40   44 1   
    86   41   42 1   
    87   41   80 1   
    88   41   81 1   
    89   42   43 1   
    90   42   82 1   
    91   42   83 1   
    92   43   44 1   
    93   43   84 1   
    94   43   85 1   
    95   44   86 1   
    96   44   87 1   
@<TRIPOS>SUBSTRUCTURE
     1 BRA         1 TEMP              0 ****  ****    0 ROOT
