@<TRIPOS>MOLECULE
BRA
   87    92     1     0     0
SMALL
bcc


@<TRIPOS>ATOM
      1 C40         0.7700   -2.1490   -0.9260 c3        1 BRA      0.158800
      2 C41         1.8620   -1.2160   -1.4720 c3        1 BRA     -0.093900
      3 C42         2.2720   -0.3180   -0.3130 c3        1 BRA     -0.093900
      4 C43         1.4110   -0.7490    0.8850 c3        1 BRA      0.158800
      5 N39         0.5320   -1.8510    0.4890 n3        1 BRA     -0.730600
      6 C38        -0.8700   -1.6420    0.8080 c3        1 BRA      0.173800
      7 C37        -1.1410   -1.7260    2.3110 c3        1 BRA     -0.156400
      8 C36        -2.6240   -1.5190    2.5760 c         1 BRA      0.662100
      9 O52        -3.4260   -1.2530    1.6650 o         1 BRA     -0.577600
     10 N17        -3.0100   -1.6440    3.9070 n         1 BRA     -0.474600
     11 C3         -4.3000   -1.5100    4.4430 ca        1 BRA      0.077600
     12 C4         -5.4070   -1.1410    3.7080 ca        1 BRA     -0.222300
     13 C2         -4.4510   -1.7690    5.8580 ca        1 BRA     -0.175000
     14 C1         -5.6690   -1.6750    6.4570 ca        1 BRA     -0.078000
     15 C6         -6.8440   -1.3200    5.7280 ca        1 BRA     -0.209300
     16 C10        -8.1370   -1.2360    6.3170 ca        1 BRA      0.212600
     17 N19        -8.3530   -1.6520    7.6450 nh        1 BRA     -0.618000
     18 C28        -8.7870   -0.7500    8.6440 ca        1 BRA      0.088600
     19 C29        -9.0830    0.6040    8.3880 ca        1 BRA     -0.136500
     20 C24        -9.5490    1.4370    9.3940 ca        1 BRA     -0.158500
     21 C25        -9.7450    0.9630   10.7120 ca        1 BRA      0.130600
     22 N15       -10.3090    1.7860   11.7110 nh        1 BRA     -0.646000
     23 C16       -10.2390    3.2100   11.4930 c3        1 BRA      0.180100
     24 C18       -10.1400    1.3570   13.0770 c3        1 BRA      0.180100
     25 C26        -9.4260   -0.3920   10.9670 ca        1 BRA     -0.158500
     26 C27        -8.9640   -1.2260    9.9610 ca        1 BRA     -0.136500
     27 C5         -6.7060   -1.0220    4.3280 ca        1 BRA      0.466600
     28 N7         -7.7440   -0.6230    3.5550 nb        1 BRA     -0.677000
     29 C8         -8.9710   -0.5190    4.1190 ca        1 BRA      0.466600
     30 C11       -10.0680   -0.0900    3.2830 ca        1 BRA     -0.222300
     31 C9         -9.2260   -0.8290    5.5000 ca        1 BRA     -0.209300
     32 C14       -10.5700   -0.7400    5.9750 ca        1 BRA     -0.078000
     33 C13       -11.5920   -0.3500    5.1650 ca        1 BRA     -0.175000
     34 C12       -11.3500   -0.0030    3.7820 ca        1 BRA      0.077600
     35 N21       -12.4620    0.3950    3.0240 n         1 BRA     -0.474600
     36 C44       -12.4730    0.8720    1.7170 c         1 BRA      0.662100
     37 O53       -11.4410    1.0050    1.0390 o         1 BRA     -0.577600
     38 C45       -13.8480    1.2190    1.1690 c3        1 BRA     -0.156400
     39 C46       -13.7100    1.7890   -0.2450 c3        1 BRA      0.173800
     40 N47       -14.9930    2.1610   -0.8170 n3        1 BRA     -0.730600
     41 C48       -15.8500    1.0260   -1.1660 c3        1 BRA      0.158800
     42 C49       -16.3310    1.1700   -2.6180 c3        1 BRA     -0.093900
     43 C50       -15.7100    2.4560   -3.1440 c3        1 BRA     -0.093900
     44 C51       -14.8770    3.0340   -1.9880 c3        1 BRA      0.158800
     45 H40         1.1070   -3.2200   -0.9800 h1        1 BRA      0.043075
     46 H40A       -0.1640   -2.0530   -1.5460 h1        1 BRA      0.043075
     47 H41         1.4700   -0.6140   -2.3270 hc        1 BRA      0.047700
     48 H41A        2.7300   -1.8120   -1.8450 hc        1 BRA      0.047700
     49 H42         3.3570   -0.4390   -0.0750 hc        1 BRA      0.047700
     50 H42A        2.0940    0.7580   -0.5550 hc        1 BRA      0.047700
     51 H43         2.0640   -1.1320    1.7160 h1        1 BRA      0.043075
     52 H43A        0.8350    0.1320    1.2830 h1        1 BRA      0.043075
     53 H38        -1.2590   -0.6490    0.4330 h1        1 BRA      0.052700
     54 H38A       -1.4720   -2.4480    0.2990 h1        1 BRA      0.052700
     55 H37        -0.5570   -0.9380    2.8560 hc        1 BRA      0.071200
     56 H37A       -0.8220   -2.7280    2.7010 hc        1 BRA      0.071200
     57 HN17       -2.2980   -1.8820    4.5620 hn        1 BRA      0.315000
     58 H4         -5.3380   -0.9260    2.6260 ha        1 BRA      0.193000
     59 H2         -3.5670   -2.0400    6.4550 ha        1 BRA      0.130000
     60 H1         -5.7300   -1.8630    7.5410 ha        1 BRA      0.138500
     61 HN19       -7.6610   -2.2920    7.9820 hn        1 BRA      0.411800
     62 H29        -8.9510    1.0140    7.3730 ha        1 BRA      0.140500
     63 H24        -9.7650    2.4850    9.1340 ha        1 BRA      0.136000
     64 H16       -10.6140    3.7530   12.3990 h1        1 BRA      0.037367
     65 H16A       -9.1970    3.5650   11.2670 h1        1 BRA      0.037367
     66 H16B      -10.9050    3.4750   10.6280 h1        1 BRA      0.037367
     67 H18        -9.0660    1.1580   13.3420 h1        1 BRA      0.037367
     68 H18A      -10.5410    2.1390   13.7740 h1        1 BRA      0.037367
     69 H18B      -10.7300    0.4140   13.2360 h1        1 BRA      0.037367
     70 H26        -9.5450   -0.8170   11.9750 ha        1 BRA      0.136000
     71 H27        -8.7370   -2.2760   10.2060 ha        1 BRA      0.140500
     72 H11        -9.8380    0.1630    2.2320 ha        1 BRA      0.193000
     73 H14       -10.7830   -0.9960    7.0260 ha        1 BRA      0.138500
     74 H13       -12.6170   -0.2990    5.5660 ha        1 BRA      0.130000
     75 HN21      -13.3380    0.3510    3.4950 hn        1 BRA      0.315000
     76 H45       -14.4840    0.2940    1.1550 hc        1 BRA      0.071200
     77 H45A      -14.3440    1.9710    1.8370 hc        1 BRA      0.071200
     78 H46       -13.1540    1.0350   -0.8760 h1        1 BRA      0.052700
     79 H46A      -13.0680    2.7130   -0.1870 h1        1 BRA      0.052700
     80 H48       -15.3250    0.0400   -1.0290 h1        1 BRA      0.043075
     81 H48A      -16.7260    1.0460   -0.4610 h1        1 BRA      0.043075
     82 H49       -17.4470    1.2180   -2.6540 hc        1 BRA      0.047700
     83 H49A      -16.0090    0.2900   -3.2250 hc        1 BRA      0.047700
     84 H50       -15.0600    2.2550   -4.0300 hc        1 BRA      0.047700
     85 H50A      -16.4970    3.1840   -3.4570 hc        1 BRA      0.047700
     86 H51       -13.8100    3.1720   -2.3140 h1        1 BRA      0.043075
     87 H51A      -15.2760    4.0400   -1.6840 h1        1 BRA      0.043075
@<TRIPOS>BOND
     1    1    2 1   
     2    1    5 1   
     3    1   45 1   
     4    1   46 1   
     5    2    3 1   
     6    2   47 1   
     7    2   48 1   
     8    3    4 1   
     9    3   49 1   
    10    3   50 1   
    11    4    5 1   
    12    4   51 1   
    13    4   52 1   
    14    5    6 1   
    15    6    7 1   
    16    6   53 1   
    17    6   54 1   
    18    7    8 1   
    19    7   55 1   
    20    7   56 1   
    21    8    9 2   
    22    8   10 1   
    23   10   11 1   
    24   10   57 1   
    25   11   12 ar  
    26   11   13 ar  
    27   12   27 ar  
    28   12   58 1   
    29   13   14 ar  
    30   13   59 1   
    31   14   15 ar  
    32   14   60 1   
    33   15   16 ar  
    34   15   27 ar  
    35   16   17 1   
    36   16   31 ar  
    37   17   18 1   
    38   17   61 1   
    39   18   19 ar  
    40   18   26 ar  
    41   19   20 ar  
    42   19   62 1   
    43   20   21 ar  
    44   20   63 1   
    45   21   22 1   
    46   21   25 ar  
    47   22   23 1   
    48   22   24 1   
    49   23   64 1   
    50   23   65 1   
    51   23   66 1   
    52   24   67 1   
    53   24   68 1   
    54   24   69 1   
    55   25   26 ar  
    56   25   70 1   
    57   26   71 1   
    58   27   28 ar  
    59   28   29 ar  
    60   29   30 ar  
    61   29   31 ar  
    62   30   34 ar  
    63   30   72 1   
    64   31   32 ar  
    65   32   33 ar  
    66   32   73 1   
    67   33   34 ar  
    68   33   74 1   
    69   34   35 1   
    70   35   36 1   
    71   35   75 1   
    72   36   37 2   
    73   36   38 1   
    74   38   39 1   
    75   38   76 1   
    76   38   77 1   
    77   39   40 1   
    78   39   78 1   
    79   39   79 1   
    80   40   41 1   
    81   40   44 1   
    82   41   42 1   
    83   41   80 1   
    84   41   81 1   
    85   42   43 1   
    86   42   82 1   
    87   42   83 1   
    88   43   44 1   
    89   43   84 1   
    90   43   85 1   
    91   44   86 1   
    92   44   87 1   
@<TRIPOS>SUBSTRUCTURE
     1 BRA         1 TEMP              0 ****  ****    0 ROOT
