@<TRIPOS>MOLECULE
BRA
   87    92     1     0     0
SMALL
bcc


@<TRIPOS>ATOM
      1 C40         0.7490   -2.2590   -0.9850 c3        1 BRA      0.158800
      2 C41         1.8410   -1.3390   -1.5540 c3        1 BRA     -0.093900
      3 C42         2.2670   -0.4290   -0.4110 c3        1 BRA     -0.093900
      4 C43         1.4160   -0.8390    0.8010 c3        1 BRA      0.158800
      5 N39         0.5280   -1.9420    0.4280 n3        1 BRA     -0.730600
      6 C38        -0.8700   -1.7220    0.7600 c3        1 BRA      0.173800
      7 C37        -1.1250   -1.7840    2.2670 c3        1 BRA     -0.156400
      8 C36        -2.6040   -1.5690    2.5450 c         1 BRA      0.662100
      9 O52        -3.4150   -1.3150    1.6390 o         1 BRA     -0.577600
     10 N17        -2.9750   -1.6720    3.8830 ns        1 BRA     -0.474600
     11 C3         -4.2580   -1.5240    4.4300 ca        1 BRA      0.077600
     12 C4         -5.3700   -1.1540    3.7040 ca        1 BRA     -0.222300
     13 C2         -4.3970   -1.7680    5.8490 ca        1 BRA     -0.175000
     14 C1         -5.6070   -1.6610    6.4600 ca        1 BRA     -0.077500
     15 C6         -6.7880   -1.3050    5.7400 ca        1 BRA     -0.208800
     16 C10        -8.0740   -1.2070    6.3420 ca        1 BRA      0.211600
     17 N19        -8.2800   -1.6120    7.6750 nu        1 BRA     -0.617000
     18 C28        -8.6880   -0.6950    8.6710 ca        1 BRA      0.087600
     19 C29        -8.9630    0.6610    8.4100 ca        1 BRA     -0.136000
     20 C24        -9.4020    1.5100    9.4160 ca        1 BRA     -0.158500
     21 C25        -9.5720    1.0520   10.7430 ca        1 BRA      0.131600
     22 N15        -9.9200    1.9320   11.7910 nh        1 BRA     -0.647000
     23 C16       -10.4440    3.2210   11.4140 c3        1 BRA      0.180600
     24 C18       -10.5150    1.3350   12.9620 c3        1 BRA      0.180600
     25 C26        -9.2980   -0.3130   10.9990 ca        1 BRA     -0.158500
     26 C27        -8.8640   -1.1620    9.9930 ca        1 BRA     -0.136000
     27 C5         -6.6620   -1.0200    4.3360 ca        1 BRA      0.466600
     28 N7         -7.7050   -0.6200    3.5710 nb        1 BRA     -0.676000
     29 C8         -8.9250   -0.5000    4.1460 ca        1 BRA      0.466600
     30 C11       -10.0270   -0.0700    3.3190 ca        1 BRA     -0.222300
     31 C9         -9.1680   -0.7960    5.5330 ca        1 BRA     -0.208800
     32 C14       -10.5060   -0.6920    6.0210 ca        1 BRA     -0.077500
     33 C13       -11.5340   -0.3010    5.2190 ca        1 BRA     -0.175000
     34 C12       -11.3040    0.0310    3.8300 ca        1 BRA      0.077600
     35 N21       -12.4200    0.4310    3.0800 ns        1 BRA     -0.474600
     36 C44       -12.4410    0.9040    1.7720 c         1 BRA      0.662100
     37 O53       -11.4130    1.0310    1.0850 o         1 BRA     -0.577600
     38 C45       -13.8190    1.2530    1.2330 c3        1 BRA     -0.156400
     39 C46       -13.6900    1.8270   -0.1790 c3        1 BRA      0.173800
     40 N47       -14.9770    2.2020   -0.7420 n3        1 BRA     -0.730600
     41 C48       -15.8360    1.0680   -1.0890 c3        1 BRA      0.158800
     42 C49       -16.3260    1.2170   -2.5380 c3        1 BRA     -0.093900
     43 C50       -15.7080    2.5050   -3.0630 c3        1 BRA     -0.093900
     44 C51       -14.8680    3.0780   -1.9110 c3        1 BRA      0.158800
     45 H40        -0.1910   -2.1660   -1.5960 h1        1 BRA      0.043200
     46 H40A        1.0800   -3.3330   -1.0280 h1        1 BRA      0.043200
     47 H41         2.7010   -1.9450   -1.9280 hc        1 BRA      0.047700
     48 H41A        1.4420   -0.7460   -2.4130 hc        1 BRA      0.047700
     49 H42         2.0930    0.6450   -0.6660 hc        1 BRA      0.047700
     50 H42A        3.3540   -0.5520   -0.1830 hc        1 BRA      0.047700
     51 H43         0.8480    0.0500    1.1920 h1        1 BRA      0.043200
     52 H43A        2.0760   -1.2140    1.6310 h1        1 BRA      0.043200
     53 H38        -1.4810   -2.5320    0.2690 h1        1 BRA      0.052700
     54 H38A       -1.2580   -0.7330    0.3770 h1        1 BRA      0.052700
     55 H37        -0.8050   -2.7820    2.6680 hc        1 BRA      0.071200
     56 H37A       -0.5320   -0.9920    2.7950 hc        1 BRA      0.071200
     57 HN17       -2.2560   -1.9020    4.5330 hn        1 BRA      0.314500
     58 H4         -5.3110   -0.9490    2.6190 ha        1 BRA      0.193000
     59 H2         -3.5080   -2.0400    6.4400 ha        1 BRA      0.130000
     60 H1         -5.6590   -1.8380    7.5460 ha        1 BRA      0.138000
     61 HN19       -7.5890   -2.2550    8.0080 hn        1 BRA      0.411800
     62 H29        -8.8400    1.0610    7.3900 ha        1 BRA      0.141000
     63 H24        -9.6070    2.5580    9.1500 ha        1 BRA      0.136000
     64 H16       -10.7280    3.7960   12.3340 h1        1 BRA      0.037367
     65 H16A      -11.3450    3.1470   10.7450 h1        1 BRA      0.037367
     66 H16B       -9.6430    3.7950   10.8770 h1        1 BRA      0.037367
     67 H18        -9.7270    0.7510   13.5090 h1        1 BRA      0.037367
     68 H18A      -10.8960    2.1360   13.6490 h1        1 BRA      0.037367
     69 H18B      -11.3660    0.6440   12.7120 h1        1 BRA      0.037367
     70 H26        -9.4190   -0.7290   12.0100 ha        1 BRA      0.136000
     71 H27        -8.6610   -2.2160   10.2400 ha        1 BRA      0.141000
     72 H11        -9.8060    0.1730    2.2630 ha        1 BRA      0.193000
     73 H14       -10.7080   -0.9370    7.0770 ha        1 BRA      0.138000
     74 H13       -12.5530   -0.2380    5.6300 ha        1 BRA      0.130000
     75 HN21      -13.2930    0.3920    3.5590 hn        1 BRA      0.314500
     76 H45       -14.3100    2.0040    1.9070 hc        1 BRA      0.071200
     77 H45A      -14.4550    0.3290    1.2210 hc        1 BRA      0.071200
     78 H46       -13.0460    2.7500   -0.1230 h1        1 BRA      0.052700
     79 H46A      -13.1380    1.0740   -0.8170 h1        1 BRA      0.052700
     80 H48       -15.3110    0.0820   -0.9590 h1        1 BRA      0.043200
     81 H48A      -16.7080    1.0870   -0.3790 h1        1 BRA      0.043200
     82 H49       -16.0080    0.3390   -3.1500 hc        1 BRA      0.047700
     83 H49A      -17.4420    1.2660   -2.5670 hc        1 BRA      0.047700
     84 H50       -16.4970    3.2340   -3.3680 hc        1 BRA      0.047700
     85 H50A      -15.0640    2.3070   -3.9540 hc        1 BRA      0.047700
     86 H51       -15.2640    4.0830   -1.6010 h1        1 BRA      0.043200
     87 H51A      -13.8030    3.2180   -2.2430 h1        1 BRA      0.043200
@<TRIPOS>BOND
     1    1    2 1   
     2    1    5 1   
     3    1   45 1   
     4    1   46 1   
     5    2    3 1   
     6    2   47 1   
     7    2   48 1   
     8    3    4 1   
     9    3   49 1   
    10    3   50 1   
    11    4    5 1   
    12    4   51 1   
    13    4   52 1   
    14    5    6 1   
    15    6    7 1   
    16    6   53 1   
    17    6   54 1   
    18    7    8 1   
    19    7   55 1   
    20    7   56 1   
    21    8    9 2   
    22    8   10 1   
    23   10   11 1   
    24   10   57 1   
    25   11   12 ar  
    26   11   13 ar  
    27   12   27 ar  
    28   12   58 1   
    29   13   14 ar  
    30   13   59 1   
    31   14   15 ar  
    32   14   60 1   
    33   15   16 ar  
    34   15   27 ar  
    35   16   17 1   
    36   16   31 ar  
    37   17   18 1   
    38   17   61 1   
    39   18   19 ar  
    40   18   26 ar  
    41   19   20 ar  
    42   19   62 1   
    43   20   21 ar  
    44   20   63 1   
    45   21   22 1   
    46   21   25 ar  
    47   22   23 1   
    48   22   24 1   
    49   23   64 1   
    50   23   65 1   
    51   23   66 1   
    52   24   67 1   
    53   24   68 1   
    54   24   69 1   
    55   25   26 ar  
    56   25   70 1   
    57   26   71 1   
    58   27   28 ar  
    59   28   29 ar  
    60   29   30 ar  
    61   29   31 ar  
    62   30   34 ar  
    63   30   72 1   
    64   31   32 ar  
    65   32   33 ar  
    66   32   73 1   
    67   33   34 ar  
    68   33   74 1   
    69   34   35 1   
    70   35   36 1   
    71   35   75 1   
    72   36   37 2   
    73   36   38 1   
    74   38   39 1   
    75   38   76 1   
    76   38   77 1   
    77   39   40 1   
    78   39   78 1   
    79   39   79 1   
    80   40   41 1   
    81   40   44 1   
    82   41   42 1   
    83   41   80 1   
    84   41   81 1   
    85   42   43 1   
    86   42   82 1   
    87   42   83 1   
    88   43   44 1   
    89   43   84 1   
    90   43   85 1   
    91   44   86 1   
    92   44   87 1   
@<TRIPOS>SUBSTRUCTURE
     1 BRA         1 TEMP              0 ****  ****    0 ROOT
