@<TRIPOS>MOLECULE
BRA
   87    86     1     0     0
SMALL
bcc


@<TRIPOS>ATOM
      1 C40         7.1350   -7.0720    0.9690 c3        1 BRA     -0.078000
      2 C41         7.9310   -8.3920    0.4550 c3        1 BRA     -0.172000
      3 C42         7.5510   -8.5890   -0.7750 c3        1 BRA     -0.172000
      4 C43         7.1430   -7.1800   -1.3040 c3        1 BRA     -0.078000
      5 N39         7.0800   -6.2580   -0.0490 n3        1 BRA     -0.256000
      6 C38         5.8180   -5.5510   -0.0400 c3        1 BRA     -0.062000
      7 C37         6.0650   -4.0580   -0.2930 c3        1 BRA     -0.186000
      8 C36         4.9110   -3.2220    0.3560 c2        1 BRA      0.313000
      9 O52         4.4010   -3.5960    1.3970 o         1 BRA     -0.352000
     10 N17         4.3860   -2.0650   -0.3280 n         1 BRA     -0.329000
     11 C3          3.2510   -1.3500    0.2240 c2        1 BRA      0.103000
     12 C4          2.3370   -0.9090   -0.7580 c2        1 BRA     -0.193000
     13 C2          3.1010   -0.9400    1.5540 c1        1 BRA     -0.146000
     14 C1          2.0330   -0.0830    1.9140 c1        1 BRA     -0.095000
     15 C6          1.1260    0.3550    0.9400 c1        1 BRA     -0.151000
     16 C10         0.0520    1.1210    1.3000 c2        1 BRA      0.132000
     17 N19        -0.4220    1.1050    2.6750 n3        1 BRA     -0.253000
     18 C28         0.0560    2.0560    3.5840 c2        1 BRA      0.027000
     19 C29         0.1340    1.7470    4.9440 c2        1 BRA     -0.152000
     20 C24         0.5550    2.7170    5.8560 c1        1 BRA     -0.123000
     21 C25         0.8970    3.9920    5.4080 c1        1 BRA      0.019000
     22 N15         1.3740    5.0250    6.3810 n3        1 BRA     -0.237000
     23 C16         0.5300    6.1570    6.7080 c3        1 BRA     -0.106000
     24 C18         2.7120    4.9790    6.8620 c3        1 BRA     -0.106000
     25 C26         0.8190    4.2950    4.0540 c1        1 BRA     -0.148000
     26 C27         0.3970    3.3220    3.1400 c1        1 BRA     -0.151000
     27 C5          1.2770   -0.0590   -0.4000 c1        1 BRA      0.077000
     28 N7          0.3470    0.3070   -1.3390 n2        1 BRA     -0.161000
     29 C8         -0.7550    1.0920   -0.9700 c1        1 BRA      0.073000
     30 C11        -1.7120    1.4960   -1.9570 c1        1 BRA     -0.165000
     31 C9         -0.9050    1.4960    0.3310 c2        1 BRA     -0.130000
     32 C14        -2.0060    2.3110    0.6980 c2        1 BRA     -0.068000
     33 C13        -2.9360    2.7030   -0.2640 c1        1 BRA     -0.181000
     34 C12        -2.7850    2.2910   -1.5970 c1        1 BRA      0.088000
     35 N21        -4.0360    2.7790   -2.2980 n         1 BRA     -0.327000
     36 C44        -4.3910    2.2460   -3.5310 c2        1 BRA      0.305000
     37 O53        -3.7190    1.4170   -4.0270 o         1 BRA     -0.335000
     38 C45        -5.6150    2.8270   -4.3080 c3        1 BRA     -0.188000
     39 C46        -6.8300    1.8940   -4.1260 c3        1 BRA     -0.063000
     40 N47        -7.6610    1.9400   -5.3020 n3        1 BRA     -0.252000
     41 C48        -9.0900    2.5240   -4.9110 c3        1 BRA     -0.077000
     42 C49        -9.9450    2.0530   -5.8070 c3        1 BRA     -0.172000
     43 C50        -9.3330    0.7290   -6.2920 c3        1 BRA     -0.172000
     44 C51        -7.8740    0.7150   -5.7380 c3        1 BRA     -0.077000
     45 H40         6.2650   -7.3030    1.2460 h1        1 BRA      0.082500
     46 H40A        7.6170   -6.6580    1.6980 h1        1 BRA      0.082500
     47 H41         7.6970   -9.1440    0.9920 hc        1 BRA      0.087250
     48 H41A        8.9160   -8.2360    0.4930 hc        1 BRA      0.087250
     49 H42         8.2870   -8.9470   -1.3040 hc        1 BRA      0.087250
     50 H42A        6.7780   -9.2040   -0.8020 hc        1 BRA      0.087250
     51 H43         6.2380   -7.2260   -1.7480 h1        1 BRA      0.082500
     52 H43A        7.8100   -6.8490   -1.9330 h1        1 BRA      0.082500
     53 H38         5.2410   -5.9090   -0.7430 h1        1 BRA      0.090500
     54 H38A        5.3770   -5.6690    0.8430 h1        1 BRA      0.090500
     55 H37         6.9120   -3.8000    0.0990 hc        1 BRA      0.113500
     56 H37A        6.0880   -3.8910   -1.2530 hc        1 BRA      0.113500
     57 HN17        4.7240   -1.8250   -1.1440 hn        1 BRA      0.233000
     58 H4          2.4520   -1.1980   -1.7290 ha        1 BRA      0.152000
     59 H2          3.7350   -1.2030    2.2040 ha        1 BRA      0.176000
     60 H1          1.9260    0.2080    2.8580 ha        1 BRA      0.128000
     61 HN19       -0.9350    0.4320    2.9620 hn        1 BRA      0.212000
     62 H29        -0.1090    0.8430    5.2600 ha        1 BRA      0.135000
     63 H24         0.6100    2.5030    6.8060 ha        1 BRA      0.139000
     64 H16         1.0730    6.8560    7.1330 h1        1 BRA      0.075667
     65 H16A       -0.1730    5.8720    7.3230 h1        1 BRA      0.075667
     66 H16B        0.1330    6.5040    5.9050 h1        1 BRA      0.075667
     67 H18         3.3570    5.0580    6.0770 h1        1 BRA      0.075667
     68 H18A        2.8620    4.1360    7.3220 h1        1 BRA      0.075667
     69 H18B        2.8630    5.7310    7.4920 h1        1 BRA      0.075667
     70 H26         1.0550    5.1750    3.7430 ha        1 BRA      0.136000
     71 H27         0.3410    3.5440    2.1570 ha        1 BRA      0.148000
     72 H11        -1.6040    1.2010   -2.9100 ha        1 BRA      0.191000
     73 H14        -2.1120    2.6000    1.6280 ha        1 BRA      0.152000
     74 H13        -3.6900    3.2630   -0.0100 ha        1 BRA      0.131000
     75 HN21       -4.5890    3.3490   -1.8820 hn        1 BRA      0.229000
     76 H45        -5.3890    2.8980   -5.2810 hc        1 BRA      0.119500
     77 H45A       -5.8390    3.7450   -3.9440 hc        1 BRA      0.119500
     78 H46        -6.5290    1.0060   -3.9870 h1        1 BRA      0.077500
     79 H46A       -7.3480    2.1880   -3.3510 h1        1 BRA      0.077500
     80 H48        -9.0730    3.5510   -4.9470 h1        1 BRA      0.082500
     81 H48A       -9.3380    2.2270   -4.0270 h1        1 BRA      0.082500
     82 H49       -10.0310    2.6660   -6.5380 hc        1 BRA      0.088000
     83 H49A      -10.7980    1.8980   -5.4000 hc        1 BRA      0.088000
     84 H50        -9.3230    0.7000   -7.2560 hc        1 BRA      0.088000
     85 H50A       -9.8370   -0.0240   -5.9380 hc        1 BRA      0.088000
     86 H51        -7.2490    0.4990   -6.4480 h1        1 BRA      0.082500
     87 H51A       -7.7920    0.0690   -5.0000 h1        1 BRA      0.082500
@<TRIPOS>BOND
     1    1    2 1   
     2    1    5 1   
     3    1   45 1   
     4    1   46 1   
     5    2    3 1   
     6    2   47 1   
     7    2   48 1   
     8    3    4 1   
     9    3   49 1   
    10    3   50 1   
    11    4    5 1   
    12    4   51 1   
    13    4   52 1   
    14    5    6 1   
    15    6    7 1   
    16    6   53 1   
    17    6   54 1   
    18    7    8 1   
    19    7   55 1   
    20    7   56 1   
    21    8    9 1   
    22    8   10 1   
    23   10   11 1   
    24   10   57 1   
    25   11   12 1   
    26   11   13 1   
    27   12   27 1   
    28   12   58 1   
    29   13   59 1   
    30   14   15 1   
    31   14   60 1   
    32   15   16 1   
    33   16   17 1   
    34   16   31 1   
    35   17   18 1   
    36   17   61 1   
    37   18   19 1   
    38   18   26 1   
    39   19   20 1   
    40   19   62 1   
    41   20   63 1   
    42   21   22 1   
    43   21   25 1   
    44   22   23 1   
    45   22   24 1   
    46   23   64 1   
    47   23   65 1   
    48   23   66 1   
    49   24   67 1   
    50   24   68 1   
    51   24   69 1   
    52   25   70 1   
    53   26   71 1   
    54   27   28 1   
    55   28   29 1   
    56   29   31 1   
    57   30   34 1   
    58   30   72 1   
    59   31   32 1   
    60   32   33 1   
    61   32   73 1   
    62   33   74 1   
    63   34   35 1   
    64   35   36 1   
    65   35   75 1   
    66   36   37 1   
    67   36   38 1   
    68   38   39 1   
    69   38   76 1   
    70   38   77 1   
    71   39   40 1   
    72   39   78 1   
    73   39   79 1   
    74   40   41 1   
    75   40   44 1   
    76   41   42 1   
    77   41   80 1   
    78   41   81 1   
    79   42   43 1   
    80   42   82 1   
    81   42   83 1   
    82   43   44 1   
    83   43   84 1   
    84   43   85 1   
    85   44   86 1   
    86   44   87 1   
@<TRIPOS>SUBSTRUCTURE
     1 BRA         1 TEMP              0 ****  ****    0 ROOT
