@<TRIPOS>MOLECULE
BRB
   16    16     1     0     0
SMALL
bcc


@<TRIPOS>ATOM
      1 C1          0.0960    0.2010    2.2480 ca        1 BRB     -0.076300
      2 C2         -1.0880   -0.1710    1.6060 ca        1 BRB     -0.117500
      3 C3         -1.1490   -0.2110    0.2140 ca        1 BRB     -0.104500
      4 C4         -0.0250    0.1200   -0.5460 ca        1 BRB     -0.026900
      5 C5          1.1630    0.4930    0.0920 ca        1 BRB     -0.104500
      6 C6          1.2210    0.5320    1.4830 ca        1 BRB     -0.117500
      7 C7          0.2050    0.2580    3.7360 c3        1 BRB      0.174700
      8 BR4        -0.1050    0.0660   -2.4170 br        1 BRB     -0.091100
      9 O1         -1.0370   -0.1130    4.3170 oh        1 BRB     -0.598800
     10 H2         -1.9740   -0.4320    2.2070 ha        1 BRB      0.147500
     11 H3         -2.0890   -0.5060   -0.2780 ha        1 BRB      0.146500
     12 H5          2.0550    0.7560   -0.4970 ha        1 BRB      0.146500
     13 H6          2.1570    0.8260    1.9810 ha        1 BRB      0.147500
     14 H71         0.4760    1.3020    4.0560 h1        1 BRB      0.034700
     15 H72         1.0100   -0.4480    4.0840 h1        1 BRB      0.034700
     16 HO1        -0.9130   -0.0600    5.2720 ho        1 BRB      0.405000
@<TRIPOS>BOND
     1    1    2 ar  
     2    1    6 ar  
     3    1    7 1   
     4    2    3 ar  
     5    2   10 1   
     6    3    4 ar  
     7    3   11 1   
     8    4    5 ar  
     9    4    8 1   
    10    5    6 ar  
    11    5   12 1   
    12    6   13 1   
    13    7    9 1   
    14    7   14 1   
    15    7   15 1   
    16    9   16 1   
@<TRIPOS>SUBSTRUCTURE
     1 BRB         1 TEMP              0 ****  ****    0 ROOT
