@<TRIPOS>MOLECULE
BRB
   16    16     1     0     0
SMALL
bcc


@<TRIPOS>ATOM
      1 C1         -0.0880   -0.1130    0.0430 ca        1 BRB     -0.076300
      2 C2          1.2730   -0.4280    0.0300 ca        1 BRB     -0.117500
      3 C3          2.0250   -0.3450    1.2020 ca        1 BRB     -0.104500
      4 C4          1.4170    0.0530    2.3950 ca        1 BRB     -0.026900
      5 C5          0.0550    0.3690    2.4130 ca        1 BRB     -0.104500
      6 C6         -0.6930    0.2860    1.2410 ca        1 BRB     -0.117500
      7 C7         -0.9290   -0.1880   -1.1890 c3        1 BRB      0.174700
      8 BR4         2.4240    0.1650    3.9710 br        1 BRB     -0.091100
      9 O1         -0.1290   -0.6090   -2.2840 oh        1 BRB     -0.598800
     10 H2          1.7510   -0.7420   -0.9120 ha        1 BRB      0.147500
     11 H3          3.0960   -0.5960    1.1760 ha        1 BRB      0.146500
     12 H5         -0.4330    0.6840    3.3480 ha        1 BRB      0.146500
     13 H6         -1.7640    0.5350    1.2590 ha        1 BRB      0.147500
     14 H71        -1.7680   -0.9200   -1.0300 h1        1 BRB      0.034700
     15 H72        -1.3690    0.8250   -1.4090 h1        1 BRB      0.034700
     16 HO1        -0.7160   -0.6400   -3.0490 ho        1 BRB      0.405000
@<TRIPOS>BOND
     1    1    2 ar  
     2    1    6 ar  
     3    1    7 1   
     4    2    3 ar  
     5    2   10 1   
     6    3    4 ar  
     7    3   11 1   
     8    4    5 ar  
     9    4    8 1   
    10    5    6 ar  
    11    5   12 1   
    12    6   13 1   
    13    7    9 1   
    14    7   14 1   
    15    7   15 1   
    16    9   16 1   
@<TRIPOS>SUBSTRUCTURE
     1 BRB         1 TEMP              0 ****  ****    0 ROOT
