@<TRIPOS>MOLECULE
BRB
   16    13     1     0     0
SMALL
bcc


@<TRIPOS>ATOM
      1 C1         -0.2560   -0.0720   -0.4630 c1        1 BRB     -0.042100
      2 C2          1.1290   -0.0510   -0.4550 c1        1 BRB     -0.061000
      3 C3          1.8160   -0.0760    0.7490 c1        1 BRB     -0.061000
      4 C4          1.1180   -0.1220    1.9450 c1        1 BRB      0.066800
      5 C5         -0.2680   -0.1430    1.9370 c1        1 BRB     -0.047500
      6 C6         -0.9550   -0.1180    0.7330 c1        1 BRB     -0.044500
      7 C7         -1.0050   -0.1000   -1.7770 c3        1 BRB      0.140500
      8 BR4         2.0650   -0.2140    3.6020 br        1 BRB     -0.184800
      9 O1         -1.3130    1.2180   -2.1710 oh        1 BRB     -0.598800
     10 H2          1.6220   -0.0190   -1.2970 ha        1 BRB      0.083000
     11 H3          2.7920   -0.0610    0.7540 ha        1 BRB      0.083000
     12 H5         -0.7610   -0.1750    2.7790 ha        1 BRB      0.089500
     13 H6         -1.9310   -0.1330    0.7280 ha        1 BRB      0.102500
     14 H71        -1.8330   -0.6120   -1.6700 h1        1 BRB      0.034700
     15 H72        -0.4460   -0.5230   -2.4620 h1        1 BRB      0.034700
     16 HO1        -1.7730    1.2000   -2.9320 ho        1 BRB      0.405000
@<TRIPOS>BOND
     1    1    6 3   
     2    1    7 1   
     3    2    3 3   
     4    2   10 1   
     5    3   11 1   
     6    4    5 3   
     7    4    8 1   
     8    5   12 1   
     9    6   13 1   
    10    7    9 1   
    11    7   14 1   
    12    7   15 1   
    13    9   16 1   
@<TRIPOS>SUBSTRUCTURE
     1 BRB         1 TEMP              0 ****  ****    0 ROOT
