@<TRIPOS>MOLECULE
BRC
   37    36     1     0     0
SMALL
bcc


@<TRIPOS>ATOM
      1 C1          0.2760   -0.0000    8.4990 c         1 BRC      0.907600
      2 OE1         1.5360   -0.0000    8.3830 o         1 BRC     -0.854300
      3 OE2        -0.3260   -0.0000    9.6120 o         1 BRC     -0.854300
      4 C2         -0.5960   -0.0000    7.2310 c3        1 BRC     -0.194400
      5 C3          0.2280    0.0000    5.9680 c3        1 BRC     -0.062400
      6 C4         -0.6400    0.0000    4.7270 c3        1 BRC     -0.079400
      7 C5          0.1960   -0.0000    3.4660 c3        1 BRC     -0.078400
      8 C6         -0.6710   -0.0000    2.2250 c3        1 BRC     -0.078400
      9 C7          0.1670    0.0000    0.9640 c3        1 BRC     -0.079400
     10 C8         -0.7020    0.0000   -0.2750 c3        1 BRC     -0.079400
     11 C9          0.1360   -0.0000   -1.5360 c3        1 BRC     -0.078400
     12 C10        -0.7360    0.0000   -2.7730 c3        1 BRC     -0.080400
     13 C11         0.1050    0.0000   -4.0340 c3        1 BRC     -0.082400
     14 C12        -0.7820   -0.0000   -5.2530 c3        1 BRC     -0.003000
     15 BR1         0.1980   -0.0000   -6.9150 br        1 BRC     -0.191400
     16 H21        -1.2570   -0.9030    7.2620 hc        1 BRC      0.018700
     17 H22        -1.2570    0.9030    7.2620 hc        1 BRC      0.018700
     18 H31         0.8990    0.8990    5.9680 hc        1 BRC      0.044700
     19 H32         0.8990   -0.8990    5.9680 hc        1 BRC      0.044700
     20 H41        -1.3070   -0.9020    4.7340 hc        1 BRC      0.024700
     21 H42        -1.3070    0.9020    4.7340 hc        1 BRC      0.024700
     22 H51         0.8630    0.9020    3.4590 hc        1 BRC      0.037700
     23 H52         0.8630   -0.9020    3.4590 hc        1 BRC      0.037700
     24 H61        -1.3370   -0.9020    2.2330 hc        1 BRC      0.033700
     25 H62        -1.3370    0.9020    2.2330 hc        1 BRC      0.033700
     26 H71         0.8340    0.9020    0.9570 hc        1 BRC      0.038700
     27 H72         0.8340   -0.9020    0.9570 hc        1 BRC      0.038700
     28 H81        -1.3680   -0.9020   -0.2660 hc        1 BRC      0.037700
     29 H82        -1.3680    0.9020   -0.2660 hc        1 BRC      0.037700
     30 H91         0.8020    0.9030   -1.5450 hc        1 BRC      0.041700
     31 H92         0.8020   -0.9030   -1.5450 hc        1 BRC      0.041700
     32 H101       -1.4020   -0.9030   -2.7640 hc        1 BRC      0.040700
     33 H102       -1.4020    0.9030   -2.7640 hc        1 BRC      0.040700
     34 H111        0.7700    0.9040   -4.0390 hc        1 BRC      0.055700
     35 H112        0.7700   -0.9040   -4.0390 hc        1 BRC      0.055700
     36 H121       -1.4280   -0.9090   -5.2720 h1        1 BRC      0.070700
     37 H122       -1.4280    0.9090   -5.2720 h1        1 BRC      0.070700
@<TRIPOS>BOND
     1    1    2 1   
     2    1    3 1   
     3    1    4 1   
     4    4    5 1   
     5    4   16 1   
     6    4   17 1   
     7    5    6 1   
     8    5   18 1   
     9    5   19 1   
    10    6    7 1   
    11    6   20 1   
    12    6   21 1   
    13    7    8 1   
    14    7   22 1   
    15    7   23 1   
    16    8    9 1   
    17    8   24 1   
    18    8   25 1   
    19    9   10 1   
    20    9   26 1   
    21    9   27 1   
    22   10   11 1   
    23   10   28 1   
    24   10   29 1   
    25   11   12 1   
    26   11   30 1   
    27   11   31 1   
    28   12   13 1   
    29   12   32 1   
    30   12   33 1   
    31   13   14 1   
    32   13   34 1   
    33   13   35 1   
    34   14   15 1   
    35   14   36 1   
    36   14   37 1   
@<TRIPOS>SUBSTRUCTURE
     1 BRC         1 TEMP              0 ****  ****    0 ROOT
