@<TRIPOS>MOLECULE
BRC
   37    35     1     0     0
SMALL
bcc


@<TRIPOS>ATOM
      1 C1          2.7960    4.0500    4.9830 c1        1 BRC      0.327000
      2 OE1         3.1720    3.4000    5.9940 o         1 BRC     -0.589000
      3 OE2         3.4440    5.0630    4.6100 os        1 BRC     -0.586000
      4 C2          1.5650    3.6150    4.2180 c3        1 BRC     -0.223000
      5 C3          1.9530    2.5810    3.1850 c3        1 BRC     -0.144000
      6 C4          0.7110    2.0880    2.4740 c3        1 BRC     -0.157000
      7 C5          1.1090    1.1420    1.3620 c3        1 BRC     -0.157000
      8 C6         -0.1340    0.5430    0.7420 c3        1 BRC     -0.157000
      9 C7          0.2520   -0.2780   -0.4680 c3        1 BRC     -0.158000
     10 C8         -0.9820   -0.9360   -1.0460 c3        1 BRC     -0.158000
     11 C9         -0.5970   -1.7490   -2.2630 c3        1 BRC     -0.157000
     12 C10        -1.8190   -2.4610   -2.8000 c3        1 BRC     -0.159000
     13 C11        -1.4530   -3.2040   -4.0670 c3        1 BRC     -0.161000
     14 C12        -2.6590   -3.9640   -4.5710 c3        1 BRC     -0.209000
     15 BR1        -2.2400   -4.7870   -6.2450 br        1 BRC     -0.064000
     16 H21         0.9160    3.2280    4.8390 hc        1 BRC      0.058000
     17 H22         1.1680    4.3900    3.7720 hc        1 BRC      0.058000
     18 H31         2.5630    2.9830    2.5340 hc        1 BRC      0.083500
     19 H32         2.3960    1.8290    3.6260 hc        1 BRC      0.083500
     20 H41         0.2270    2.8500    2.0970 hc        1 BRC      0.065000
     21 H42         0.1360    1.6190    3.1110 hc        1 BRC      0.065000
     22 H51         1.6680    0.4270    1.7270 hc        1 BRC      0.076000
     23 H52         1.6100    1.6330    0.6800 hc        1 BRC      0.076000
     24 H61        -0.5810   -0.0300    1.3960 hc        1 BRC      0.073500
     25 H62        -0.7410    1.2600    0.4690 hc        1 BRC      0.073500
     26 H71         0.6570    0.3040   -1.1420 hc        1 BRC      0.077500
     27 H72         0.8950   -0.9670   -0.2040 hc        1 BRC      0.077500
     28 H81        -1.6270   -0.2480   -1.3050 hc        1 BRC      0.077000
     29 H82        -1.3830   -1.5230   -0.3750 hc        1 BRC      0.077000
     30 H91         0.0810   -2.4080   -2.0130 hc        1 BRC      0.080500
     31 H92        -0.2370   -1.1550   -2.9510 hc        1 BRC      0.080500
     32 H101       -2.1460   -3.0960   -2.1330 hc        1 BRC      0.080000
     33 H102       -2.5180   -1.8060   -2.9970 hc        1 BRC      0.080000
     34 H111       -1.1620   -2.5650   -4.7470 hc        1 BRC      0.095000
     35 H112       -0.7270   -3.8320   -3.8780 hc        1 BRC      0.095000
     36 H121       -2.9060   -4.6530   -3.9220 h1        1 BRC      0.110000
     37 H122       -3.4080   -3.3460   -4.6910 h1        1 BRC      0.110000
@<TRIPOS>BOND
     1    1    2 1   
     2    1    4 1   
     3    4    5 1   
     4    4   16 1   
     5    4   17 1   
     6    5    6 1   
     7    5   18 1   
     8    5   19 1   
     9    6    7 1   
    10    6   20 1   
    11    6   21 1   
    12    7    8 1   
    13    7   22 1   
    14    7   23 1   
    15    8    9 1   
    16    8   24 1   
    17    8   25 1   
    18    9   10 1   
    19    9   26 1   
    20    9   27 1   
    21   10   11 1   
    22   10   28 1   
    23   10   29 1   
    24   11   12 1   
    25   11   30 1   
    26   11   31 1   
    27   12   13 1   
    28   12   32 1   
    29   12   33 1   
    30   13   14 1   
    31   13   34 1   
    32   13   35 1   
    33   14   15 1   
    34   14   36 1   
    35   14   37 1   
@<TRIPOS>SUBSTRUCTURE
     1 BRC         1 TEMP              0 ****  ****    0 ROOT
