@<TRIPOS>MOLECULE
BRC
   37    36     1     0     0
SMALL
bcc


@<TRIPOS>ATOM
      1 C1         -0.0040    0.0000    0.0550 c         1 BRC      0.907600
      2 OE1         1.2610   -0.0000    0.0740 o         1 BRC     -0.854300
      3 OE2        -0.7220   -0.0000    1.0970 o         1 BRC     -0.854300
      4 C2         -0.7350   -0.0000   -1.2990 c3        1 BRC     -0.194400
      5 C3          0.2190    0.0000   -2.4670 c3        1 BRC     -0.062400
      6 C4         -0.5120    0.0000   -3.7930 c3        1 BRC     -0.079400
      7 C5          0.4550   -0.0000   -4.9580 c3        1 BRC     -0.078400
      8 C6         -0.2750   -0.0000   -6.2850 c3        1 BRC     -0.078400
      9 C7          0.6930    0.0000   -7.4480 c3        1 BRC     -0.079400
     10 C8         -0.0390    0.0000   -8.7740 c3        1 BRC     -0.079400
     11 C9          0.9290   -0.0000   -9.9380 c3        1 BRC     -0.078400
     12 C10         0.1930    0.0000  -11.2610 c3        1 BRC     -0.080400
     13 C11         1.1640    0.0000  -12.4250 c3        1 BRC     -0.082400
     14 C12         0.4120   -0.0000  -13.7320 c3        1 BRC     -0.003000
     15 BR1         1.5650   -0.0000  -15.2790 br        1 BRC     -0.191400
     16 H21        -1.3960    0.9030   -1.3390 hc        1 BRC      0.018700
     17 H22        -1.3960   -0.9030   -1.3390 hc        1 BRC      0.018700
     18 H31         0.8860    0.8990   -2.3950 hc        1 BRC      0.044700
     19 H32         0.8860   -0.8990   -2.3950 hc        1 BRC      0.044700
     20 H41        -1.1760   -0.9020   -3.8570 hc        1 BRC      0.024700
     21 H42        -1.1760    0.9020   -3.8570 hc        1 BRC      0.024700
     22 H51         1.1180    0.9020   -4.8940 hc        1 BRC      0.037700
     23 H52         1.1180   -0.9020   -4.8940 hc        1 BRC      0.037700
     24 H61        -0.9390   -0.9020   -6.3480 hc        1 BRC      0.033700
     25 H62        -0.9390    0.9020   -6.3480 hc        1 BRC      0.033700
     26 H71         1.3560    0.9020   -7.3850 hc        1 BRC      0.038700
     27 H72         1.3560   -0.9020   -7.3850 hc        1 BRC      0.038700
     28 H81        -0.7030    0.9020   -8.8360 hc        1 BRC      0.037700
     29 H82        -0.7030   -0.9020   -8.8360 hc        1 BRC      0.037700
     30 H91         1.5920    0.9030   -9.8750 hc        1 BRC      0.041700
     31 H92         1.5920   -0.9030   -9.8750 hc        1 BRC      0.041700
     32 H101       -0.4690    0.9030  -11.3220 hc        1 BRC      0.040700
     33 H102       -0.4690   -0.9030  -11.3220 hc        1 BRC      0.040700
     34 H111        1.8260    0.9040  -12.3590 hc        1 BRC      0.055700
     35 H112        1.8260   -0.9040  -12.3590 hc        1 BRC      0.055700
     36 H121       -0.2270    0.9090  -13.8200 h1        1 BRC      0.070700
     37 H122       -0.2270   -0.9090  -13.8200 h1        1 BRC      0.070700
@<TRIPOS>BOND
     1    1    2 1   
     2    1    3 1   
     3    1    4 1   
     4    4    5 1   
     5    4   16 1   
     6    4   17 1   
     7    5    6 1   
     8    5   18 1   
     9    5   19 1   
    10    6    7 1   
    11    6   20 1   
    12    6   21 1   
    13    7    8 1   
    14    7   22 1   
    15    7   23 1   
    16    8    9 1   
    17    8   24 1   
    18    8   25 1   
    19    9   10 1   
    20    9   26 1   
    21    9   27 1   
    22   10   11 1   
    23   10   28 1   
    24   10   29 1   
    25   11   12 1   
    26   11   30 1   
    27   11   31 1   
    28   12   13 1   
    29   12   32 1   
    30   12   33 1   
    31   13   14 1   
    32   13   34 1   
    33   13   35 1   
    34   14   15 1   
    35   14   36 1   
    36   14   37 1   
@<TRIPOS>SUBSTRUCTURE
     1 BRC         1 TEMP              0 ****  ****    0 ROOT
