@<TRIPOS>MOLECULE
BRD
   31    32     1     0     0
SMALL
bcc


@<TRIPOS>ATOM
      1 C4          0.2320   -0.2650    0.0290 cc        1 BRD     -0.016400
      2 N3          1.6000   -0.0570   -0.0610 n         1 BRD     -0.474100
      3 C2          2.5440   -0.0180    0.9710 c         1 BRD      0.801500
      4 N1          2.1640   -0.1700    2.3430 n         1 BRD     -0.369000
      5 C7          1.0740    0.5890    2.8290 cc        1 BRD     -0.052400
      6 C6         -0.1630    0.6490    2.2950 cd        1 BRD     -0.151000
      7 O2          3.7450    0.0820    0.6250 o         1 BRD     -0.668500
      8 C1'         3.2250   -0.3590    3.3320 c3        1 BRD      0.262500
      9 O4'         3.9110    0.8680    3.6310 os        1 BRD     -0.440600
     10 C4'         5.3360    0.7020    3.5810 c3        1 BRD      0.103100
     11 C3'         5.6500   -0.7830    3.3310 c3        1 BRD      0.138100
     12 C2'         4.2940   -1.4340    2.9790 c3        1 BRD      0.086100
     13 O2'         4.1250   -2.5780    3.7910 oh        1 BRD     -0.597800
     14 O3'         6.2360   -1.2910    4.5130 oh        1 BRD     -0.589800
     15 C5'         5.8980    1.6010    2.4800 c3        1 BRD      0.111400
     16 O5'         5.6330    2.9610    2.7560 oh        1 BRD     -0.596800
     17 C5         -0.5830    0.0500    1.0590 cd        1 BRD     -0.186000
     18 HC4        -0.1950   -0.7000   -0.8990 h4        1 BRD      0.139000
     19 HN3         2.0060   -0.1060   -0.9730 hn        1 BRD      0.339500
     20 HC7         1.2890    1.1270    3.7770 h4        1 BRD      0.151000
     21 HC6        -0.9360    1.2160    2.8420 ha        1 BRD      0.143000
     22 H1'         2.7010   -0.6610    4.2930 h2        1 BRD      0.092700
     23 H4'         5.7120    1.0300    4.5900 h1        1 BRD      0.099700
     24 H3'1        6.3680   -0.9150    2.4770 h1        1 BRD      0.063700
     25 H2'         4.2720   -1.7210    1.8930 h1        1 BRD      0.082700
     26 H2'1        3.3150   -3.0140    3.4970 ho        1 BRD      0.420000
     27 H3'         6.1410   -2.2530    4.5000 ho        1 BRD      0.426000
     28 H5'1        7.0170    1.5210    2.4580 h1        1 BRD      0.065700
     29 H5'2        5.4660    1.3130    1.4840 h1        1 BRD      0.065700
     30 H5'         4.6750    3.0490    2.8380 ho        1 BRD      0.409000
     31 HC5        -1.6630   -0.1460    0.9530 ha        1 BRD      0.143000
@<TRIPOS>BOND
     1    1    2 1   
     2    1   17 2   
     3    1   18 1   
     4    2    3 1   
     5    2   19 1   
     6    3    4 1   
     7    3    7 2   
     8    4    5 1   
     9    4    8 1   
    10    5    6 2   
    11    5   20 1   
    12    6   17 1   
    13    6   21 1   
    14    8    9 1   
    15    8   12 1   
    16    8   22 1   
    17    9   10 1   
    18   10   11 1   
    19   10   15 1   
    20   10   23 1   
    21   11   12 1   
    22   11   14 1   
    23   11   24 1   
    24   12   13 1   
    25   12   25 1   
    26   13   26 1   
    27   14   27 1   
    28   15   16 1   
    29   15   28 1   
    30   15   29 1   
    31   16   30 1   
    32   17   31 1   
@<TRIPOS>SUBSTRUCTURE
     1 BRD         1 TEMP              0 ****  ****    0 ROOT
