@<TRIPOS>MOLECULE
BRD
   31    32     1     0     0
SMALL
bcc


@<TRIPOS>ATOM
      1 C4          0.2710   -0.2690   -0.0200 cc        1 BRD     -0.016400
      2 N3          1.6380   -0.0400   -0.0870 ns        1 BRD     -0.474100
      3 C2          2.5660   -0.0040    0.9600 c         1 BRD      0.801500
      4 N1          2.1670   -0.1840    2.3230 n         1 BRD     -0.369000
      5 C7          1.0590    0.5520    2.8050 cc        1 BRD     -0.052400
      6 C6         -0.1700    0.6020    2.2540 cd        1 BRD     -0.151000
      7 O2          3.7700    0.1180    0.6330 o         1 BRD     -0.668500
      8 C1'         3.2160   -0.3740    3.3250 c3        1 BRD      0.262500
      9 O4'         3.8800    0.8570    3.6540 os        1 BRD     -0.440600
     10 C4'         5.3080    0.7120    3.6230 c3        1 BRD      0.103100
     11 C3'         5.6470   -0.7650    3.3550 c3        1 BRD      0.138100
     12 C2'         4.3050   -1.4280    2.9710 c3        1 BRD      0.086100
     13 O2'         4.1400   -2.5880    3.7620 oh        1 BRD     -0.597800
     14 O3'         6.2210   -1.2830    4.5370 oh        1 BRD     -0.589800
     15 C5'         5.8740    1.6360    2.5450 c3        1 BRD      0.111400
     16 O5'         5.5860    2.9870    2.8370 oh        1 BRD     -0.596800
     17 C5         -0.5630    0.0180    1.0020 cd        1 BRD     -0.186000
     18 HC4        -0.1360   -0.6950   -0.9620 h4        1 BRD      0.139000
     19 HN3         2.0570   -0.0690   -0.9930 hn        1 BRD      0.339500
     20 HC7         1.2520    1.0770    3.7640 h4        1 BRD      0.151000
     21 HC6        -0.9590    1.1490    2.7980 ha        1 BRD      0.143000
     22 H1'         2.6830   -0.6990    4.2730 h2        1 BRD      0.092700
     23 H4'         5.6640    1.0290    4.6430 h1        1 BRD      0.099700
     24 H3'1        6.3800   -0.8730    2.5100 h1        1 BRD      0.063700
     25 H2'         4.3040   -1.6980    1.8810 h1        1 BRD      0.082700
     26 H2'1        3.3410   -3.0300    3.4490 ho        1 BRD      0.420000
     27 H3'         6.1400   -2.2460    4.5080 ho        1 BRD      0.426000
     28 H5'1        5.4610    1.3580    1.5380 h1        1 BRD      0.065700
     29 H5'2        6.9950    1.5720    2.5380 h1        1 BRD      0.065700
     30 H5'         4.6250    3.0610    2.9060 ho        1 BRD      0.409000
     31 HC5        -1.6380   -0.1920    0.8770 ha        1 BRD      0.143000
@<TRIPOS>BOND
     1    1    2 1   
     2    1   17 2   
     3    1   18 1   
     4    2    3 1   
     5    2   19 1   
     6    3    4 1   
     7    3    7 2   
     8    4    5 1   
     9    4    8 1   
    10    5    6 2   
    11    5   20 1   
    12    6   17 1   
    13    6   21 1   
    14    8    9 1   
    15    8   12 1   
    16    8   22 1   
    17    9   10 1   
    18   10   11 1   
    19   10   15 1   
    20   10   23 1   
    21   11   12 1   
    22   11   14 1   
    23   11   24 1   
    24   12   13 1   
    25   12   25 1   
    26   13   26 1   
    27   14   27 1   
    28   15   16 1   
    29   15   28 1   
    30   15   29 1   
    31   16   30 1   
    32   17   31 1   
@<TRIPOS>SUBSTRUCTURE
     1 BRD         1 TEMP              0 ****  ****    0 ROOT
