@<TRIPOS>MOLECULE
BRD
   31    32     1     0     0
SMALL
bcc


@<TRIPOS>ATOM
      1 C4          0.2800   -0.1450   -0.0220 cc        1 BRD     -0.018400
      2 N3          1.6630   -0.0370   -0.0680 n         1 BRD     -0.471100
      3 C2          2.5720   -0.1010    0.9950 c         1 BRD      0.807500
      4 N1          2.1460   -0.1810    2.3540 n         1 BRD     -0.373000
      5 C7          1.0920    0.6410    2.8070 cc        1 BRD     -0.044400
      6 C6         -0.1180    0.7940    2.2330 cd        1 BRD     -0.154000
      7 O2          3.7880   -0.1430    0.6850 o         1 BRD     -0.679500
      8 C1'         3.1420   -0.4740    3.3840 c3        1 BRD      0.296500
      9 O4'         3.8690    0.7000    3.7880 os        1 BRD     -0.445600
     10 C4'         5.2750    0.5750    3.5330 c3        1 BRD      0.074100
     11 C3'         5.5560   -0.8550    3.0440 c3        1 BRD      0.096100
     12 C2'         4.1840   -1.5670    3.0190 c3        1 BRD      0.093100
     13 O2'         4.1020   -2.5410    4.0460 oh        1 BRD     -0.601800
     14 O3'         6.4670   -1.5440    3.8710 oh        1 BRD     -0.590800
     15 C5'         5.6930    1.6330    2.5130 c3        1 BRD      0.115400
     16 O5'         5.4600    2.9340    3.0100 oh        1 BRD     -0.597800
     17 C5         -0.5410    0.2330    0.9810 cd        1 BRD     -0.182000
     18 HC4        -0.1480   -0.5470   -0.9640 h4        1 BRD      0.139000
     19 HN3         2.0920   -0.1530   -0.9630 hn        1 BRD      0.337500
     20 HC7         1.3100    1.1510    3.7690 h4        1 BRD      0.150000
     21 HC6        -0.8660    1.4130    2.7600 ha        1 BRD      0.142000
     22 H1'         2.5580   -0.7920    4.3030 h2        1 BRD      0.110700
     23 H4'         5.7740    0.7780    4.5210 h1        1 BRD      0.080700
     24 H3'1        6.0260   -0.8570    2.0230 h1        1 BRD      0.113700
     25 H2'         3.9930   -2.0430    2.0220 h1        1 BRD      0.084700
     26 H2'1        4.7740   -3.2070    3.8450 ho        1 BRD      0.422000
     27 H3'         6.1080   -1.5380    4.7710 ho        1 BRD      0.413000
     28 H5'1        6.8010    1.5790    2.3420 h1        1 BRD      0.066700
     29 H5'2        5.1440    1.4770    1.5460 h1        1 BRD      0.066700
     30 H5'         4.5210    2.9880    3.2280 ho        1 BRD      0.409000
     31 HC5        -1.6290    0.1210    0.8390 ha        1 BRD      0.143000
@<TRIPOS>BOND
     1    1    2 1   
     2    1   17 2   
     3    1   18 1   
     4    2    3 1   
     5    2   19 1   
     6    3    4 1   
     7    3    7 2   
     8    4    5 1   
     9    4    8 1   
    10    5    6 2   
    11    5   20 1   
    12    6   17 1   
    13    6   21 1   
    14    8    9 1   
    15    8   12 1   
    16    8   22 1   
    17    9   10 1   
    18   10   11 1   
    19   10   15 1   
    20   10   23 1   
    21   11   12 1   
    22   11   14 1   
    23   11   24 1   
    24   12   13 1   
    25   12   25 1   
    26   13   26 1   
    27   14   27 1   
    28   15   16 1   
    29   15   28 1   
    30   15   29 1   
    31   16   30 1   
    32   17   31 1   
@<TRIPOS>SUBSTRUCTURE
     1 BRD         1 TEMP              0 ****  ****    0 ROOT
