@<TRIPOS>MOLECULE
BRD
   31    32     1     0     0
SMALL
bcc


@<TRIPOS>ATOM
      1 C4          0.7610   -0.8600   -3.6220 cc        1 BRD     -0.018400
      2 N3          1.0490   -1.3360   -2.3490 n         1 BRD     -0.471100
      3 C2          0.5350   -0.8950   -1.1240 c         1 BRD      0.809500
      4 N1         -0.3180    0.2430   -1.0250 n         1 BRD     -0.373000
      5 C7         -0.0090    1.4150   -1.7480 cc        1 BRD     -0.044400
      6 C6          0.2790    1.5020   -3.0630 cd        1 BRD     -0.155000
      7 O2          0.8220   -1.5900   -0.1180 o         1 BRD     -0.682500
      8 C1'        -1.0100    0.4940    0.2380 c3        1 BRD      0.258500
      9 O4'        -0.1810    1.1950    1.1820 os        1 BRD     -0.443600
     10 C4'         0.0620    0.4100    2.3550 c3        1 BRD      0.066100
     11 C3'        -0.7890   -0.8700    2.2700 c3        1 BRD      0.088100
     12 C2'        -1.5930   -0.7630    0.9550 c3        1 BRD      0.145100
     13 O2'        -2.9770   -0.6010    1.1370 oh        1 BRD     -0.575800
     14 O3'        -1.7190   -0.9360    3.3350 oh        1 BRD     -0.596800
     15 C5'         1.5580    0.1120    2.4550 c3        1 BRD      0.113400
     16 O5'         2.3010    1.3020    2.6160 oh        1 BRD     -0.597800
     17 C5          0.4350    0.4020   -3.9720 cd        1 BRD     -0.182000
     18 HC4         0.8790   -1.6380   -4.4050 h4        1 BRD      0.139000
     19 HN3         1.4810   -2.2360   -2.2960 hn        1 BRD      0.336500
     20 HC7        -0.0800    2.3420   -1.1400 h4        1 BRD      0.148000
     21 HC6         0.4170    2.5080   -3.4960 ha        1 BRD      0.142000
     22 H1'        -1.8490    1.2150   -0.0090 h2        1 BRD      0.101700
     23 H4'        -0.2610    1.0580    3.2180 h1        1 BRD      0.080700
     24 H3'1       -0.1390   -1.7850    2.2460 h1        1 BRD      0.083700
     25 H2'        -1.4890   -1.6990    0.3420 h1        1 BRD      0.111700
     26 H2'1       -3.1220   -0.0340    1.9070 ho        1 BRD      0.421000
     27 H3'        -1.2140   -1.1230    4.1360 ho        1 BRD      0.416000
     28 H5'1        1.9030   -0.4470    1.5440 h1        1 BRD      0.063200
     29 H5'2        1.7680   -0.4900    3.3780 h1        1 BRD      0.063200
     30 H5'         2.0910    1.8690    1.8630 ho        1 BRD      0.411000
     31 HC5         0.2830    0.6270   -5.0410 ha        1 BRD      0.142000
@<TRIPOS>BOND
     1    1    2 1   
     2    1   17 2   
     3    1   18 1   
     4    2    3 1   
     5    2   19 1   
     6    3    4 1   
     7    3    7 2   
     8    4    5 1   
     9    4    8 1   
    10    5    6 2   
    11    5   20 1   
    12    6   17 1   
    13    6   21 1   
    14    8    9 1   
    15    8   12 1   
    16    8   22 1   
    17    9   10 1   
    18   10   11 1   
    19   10   15 1   
    20   10   23 1   
    21   11   12 1   
    22   11   14 1   
    23   11   24 1   
    24   12   13 1   
    25   12   25 1   
    26   13   26 1   
    27   14   27 1   
    28   15   16 1   
    29   15   28 1   
    30   15   29 1   
    31   16   30 1   
    32   17   31 1   
@<TRIPOS>SUBSTRUCTURE
     1 BRD         1 TEMP              0 ****  ****    0 ROOT
