@<TRIPOS>MOLECULE
BRD
   31    30     1     0     0
SMALL
bcc


@<TRIPOS>ATOM
      1 C4         -3.4140    1.0560   -1.2060 c1        1 BRD      0.036000
      2 N3         -2.1910    1.1540   -1.1790 n2        1 BRD     -0.129000
      3 C2         -1.8720    1.4950   -0.0910 c2        1 BRD     -0.017000
      4 N1         -1.0540    0.7550    0.3000 n         1 BRD     -0.331000
      5 C7         -1.3960    0.3380    1.4020 c2        1 BRD      0.041000
      6 C6         -3.0300    0.1070    1.6230 c1        1 BRD     -0.391000
      7 O2         -2.7800    1.7260    0.6740 o         1 BRD     -0.276000
      8 C1'         0.1280    0.3280   -0.4420 c3        1 BRD      0.150000
      9 O4'         0.4500   -1.2050   -0.1290 os        1 BRD     -0.277000
     10 C4'         1.7110   -1.3670   -0.3890 c3        1 BRD      0.020000
     11 C3'         2.3420    0.0130   -0.1790 c3        1 BRD      0.016000
     12 C2'         1.1550    0.9980   -0.0630 c3        1 BRD     -0.035000
     13 O2'         1.3680    2.1760   -0.9670 oh        1 BRD     -0.337000
     14 O3'         3.1230    0.3410   -1.2400 oh        1 BRD     -0.322000
     15 C5'         2.3350   -2.3960    0.5880 c3        1 BRD     -0.036000
     16 O5'         2.8400   -3.5160   -0.1540 oh        1 BRD     -0.321000
     17 C5         -4.1400    0.5140    0.2030 c1        1 BRD      0.036000
     18 HC4        -3.9350    1.5740   -1.8610 ha        1 BRD      0.160500
     19 HN3        -1.6300    0.7660   -1.7830 hn        1 BRD      0.247000
     20 HC7        -0.8050    0.4600    2.1810 h4        1 BRD      0.161000
     21 HC6        -3.3450   -0.4790    2.3310 ha        1 BRD      0.146000
     22 H1'        -0.0160    0.4500   -1.3960 h2        1 BRD      0.119000
     23 H4'         1.8330   -1.6580   -1.3130 h1        1 BRD      0.153000
     24 H3'1        2.8700    0.0210    0.6460 h1        1 BRD      0.096000
     25 H2'         1.0460    1.2950    0.8700 h1        1 BRD      0.113000
     26 H2'1        1.7410    2.8410   -0.5060 ho        1 BRD      0.245000
     27 H3'         3.9750    0.3620   -0.9860 ho        1 BRD      0.229000
     28 H5'1        3.0640   -1.9760    1.0800 h1        1 BRD      0.072000
     29 H5'2        1.6500   -2.7050    1.2200 h1        1 BRD      0.072000
     30 H5'         3.0810   -4.1560    0.4050 ho        1 BRD      0.199000
     31 HC5        -5.1050    0.6850    0.3610 ha        1 BRD      0.160500
@<TRIPOS>BOND
     1    1   17 1   
     2    1   18 1   
     3    2    3 1   
     4    2   19 1   
     5    3    4 1   
     6    3    7 1   
     7    4    5 1   
     8    4    8 1   
     9    5    6 1   
    10    5   20 1   
    11    6   21 1   
    12    8    9 1   
    13    8   12 1   
    14    8   22 1   
    15    9   10 1   
    16   10   11 1   
    17   10   15 1   
    18   10   23 1   
    19   11   12 1   
    20   11   14 1   
    21   11   24 1   
    22   12   13 1   
    23   12   25 1   
    24   13   26 1   
    25   14   27 1   
    26   15   16 1   
    27   15   28 1   
    28   15   29 1   
    29   16   30 1   
    30   17   31 1   
@<TRIPOS>SUBSTRUCTURE
     1 BRD         1 TEMP              0 ****  ****    0 ROOT
