@<TRIPOS>MOLECULE
BRE
   42    45     1     0     0
SMALL
bcc


@<TRIPOS>ATOM
      1 C1          0.0300   -0.2960   -0.0540 c3        1 BRE     -0.057800
      2 C2          1.5020   -0.1340   -0.0310 ca        1 BRE     -0.177600
      3 C3          2.2060   -0.0110    1.2170 cp        1 BRE      0.453800
      4 C4          2.2320   -0.1120   -1.2090 ca        1 BRE     -0.058600
      5 N1          3.5340    0.0940    1.3110 nb        1 BRE     -0.688000
      6 C5          1.5600   -0.2550   -2.5770 c         1 BRE      0.908200
      7 C23         1.4420   -0.0070    2.4850 cp        1 BRE     -0.106500
      8 C6          3.6490    0.0370   -1.1400 ca        1 BRE     -0.107300
      9 C7          4.2650    0.1190    0.1460 ca        1 BRE      0.372600
     10 C8          1.7280   -0.9430    3.4860 ca        1 BRE     -0.108500
     11 C9          0.4410    0.9480    2.7040 ca        1 BRE     -0.108500
     12 O1          0.9550   -1.3340   -2.8210 o         1 BRE     -0.811800
     13 O2          1.6660    0.7100   -3.3810 o         1 BRE     -0.811800
     14 C10         4.4460    0.1060   -2.3120 ca        1 BRE     -0.100000
     15 C11         5.6940    0.2370    0.2160 ca        1 BRE     -0.166300
     16 C12         1.0130   -0.9330    4.6810 ca        1 BRE     -0.126000
     17 C13        -0.2660    0.9620    3.9020 ca        1 BRE     -0.126000
     18 C14         5.8200    0.2250   -2.2040 ca        1 BRE      0.073900
     19 C15         6.4490    0.2850   -0.9230 ca        1 BRE     -0.164000
     20 C16         0.0100    0.0200    4.9040 cp        1 BRE     -0.058000
     21 F1          6.6050    0.2900   -3.3110 f         1 BRE     -0.159900
     22 C17        -0.7360    0.0330    6.1600 cp        1 BRE     -0.017000
     23 C18        -1.0640    1.2470    6.7810 ca        1 BRE     -0.123000
     24 C19        -1.1350   -1.1690    6.7630 ca        1 BRE     -0.123000
     25 C20        -1.7740    1.2560    7.9800 ca        1 BRE     -0.134000
     26 C21        -2.1670    0.0570    8.5720 ca        1 BRE     -0.140000
     27 C22        -1.8460   -1.1550    7.9610 ca        1 BRE     -0.134000
     28 H11        -0.4650    0.7060   -0.1080 hc        1 BRE      0.051033
     29 H12        -0.3340   -0.8200    0.8630 hc        1 BRE      0.051033
     30 H13        -0.2760   -0.8890   -0.9570 hc        1 BRE      0.051033
     31 H81         2.5240   -1.6860    3.3250 ha        1 BRE      0.145500
     32 H91         0.2130    1.6840    1.9170 ha        1 BRE      0.145500
     33 H101        3.9390    0.0840   -3.2940 ha        1 BRE      0.195000
     34 H111        6.1740    0.2910    1.2050 ha        1 BRE      0.134000
     35 H121        1.2460   -1.6730    5.4620 ha        1 BRE      0.126000
     36 H131       -1.0540    1.7130    4.0620 ha        1 BRE      0.126000
     37 H151        7.5430    0.3760   -0.8780 ha        1 BRE      0.128000
     38 H181       -0.7500    2.1950    6.3190 ha        1 BRE      0.136500
     39 H191       -0.8890   -2.1270    6.2800 ha        1 BRE      0.136500
     40 H201       -2.0240    2.2140    8.4590 ha        1 BRE      0.125000
     41 H211       -2.7280    0.0660    9.5170 ha        1 BRE      0.123000
     42 H221       -2.1570   -2.1030    8.4230 ha        1 BRE      0.125000
@<TRIPOS>BOND
     1    1    2 1   
     2    1   28 1   
     3    1   29 1   
     4    1   30 1   
     5    2    3 ar  
     6    2    4 ar  
     7    3    5 ar  
     8    3    7 1   
     9    4    6 1   
    10    4    8 ar  
    11    5    9 ar  
    12    6   12 1   
    13    6   13 1   
    14    7   10 ar  
    15    7   11 ar  
    16    8    9 ar  
    17    8   14 ar  
    18    9   15 ar  
    19   10   16 ar  
    20   10   31 1   
    21   11   17 ar  
    22   11   32 1   
    23   14   18 ar  
    24   14   33 1   
    25   15   19 ar  
    26   15   34 1   
    27   16   20 ar  
    28   16   35 1   
    29   17   20 ar  
    30   17   36 1   
    31   18   19 ar  
    32   18   21 1   
    33   19   37 1   
    34   20   22 1   
    35   22   23 ar  
    36   22   24 ar  
    37   23   25 ar  
    38   23   38 1   
    39   24   27 ar  
    40   24   39 1   
    41   25   26 ar  
    42   25   40 1   
    43   26   27 ar  
    44   26   41 1   
    45   27   42 1   
@<TRIPOS>SUBSTRUCTURE
     1 BRE         1 TEMP              0 ****  ****    0 ROOT
