@<TRIPOS>MOLECULE
BRE
   42    45     1     0     0
SMALL
bcc


@<TRIPOS>ATOM
      1 C1          2.3290    0.5290   -0.5740 c3        1 BRE     -0.057800
      2 C2          1.0790    0.2490   -1.3170 ca        1 BRE     -0.177600
      3 C3         -0.1520    0.0090   -0.6140 cp        1 BRE      0.453800
      4 C4          1.0670    0.2270   -2.7020 ca        1 BRE     -0.058600
      5 N1         -1.3220   -0.2070   -1.2210 nb        1 BRE     -0.688000
      6 C5          2.3300    0.4910   -3.5250 c         1 BRE      0.908200
      7 C23        -0.1550    0.0030    0.8670 cp        1 BRE     -0.106500
      8 C6         -0.1620   -0.0380   -3.3770 ca        1 BRE     -0.107300
      9 C7         -1.3420   -0.2320   -2.5960 ca        1 BRE      0.372600
     10 C8         -1.0020    0.8630    1.5760 ca        1 BRE     -0.108500
     11 C9          0.6750   -0.8780    1.5710 ca        1 BRE     -0.108500
     12 O1          2.8700    1.6250   -3.4190 o         1 BRE     -0.811800
     13 O2          2.7460   -0.4390   -4.2680 o         1 BRE     -0.811800
     14 C10        -0.2310   -0.1120   -4.7930 ca        1 BRE     -0.100000
     15 C11        -2.5840   -0.4670   -3.2760 ca        1 BRE     -0.166300
     16 C12        -1.0090    0.8520    2.9680 ca        1 BRE     -0.126000
     17 C13         0.6600   -0.8950    2.9630 ca        1 BRE     -0.126000
     18 C14        -1.4450   -0.3450   -5.4120 ca        1 BRE      0.073900
     19 C15        -2.6350   -0.5190   -4.6420 ca        1 BRE     -0.164000
     20 C16        -0.1790   -0.0280    3.6770 cp        1 BRE     -0.058000
     21 F1         -1.5360   -0.4180   -6.7660 f         1 BRE     -0.159900
     22 C17        -0.1910   -0.0440    5.1380 cp        1 BRE     -0.017000
     23 C18        -0.1180   -1.2570    5.8380 ca        1 BRE     -0.123000
     24 C19        -0.2750    1.1550    5.8620 ca        1 BRE     -0.123000
     25 C20        -0.1300   -1.2690    7.2310 ca        1 BRE     -0.134000
     26 C21        -0.2130   -0.0720    7.9430 ca        1 BRE     -0.140000
     27 C22        -0.2850    1.1380    7.2550 ca        1 BRE     -0.134000
     28 H11         2.1180    1.0350    0.4000 hc        1 BRE      0.051033
     29 H12         2.8730   -0.4260   -0.3650 hc        1 BRE      0.051033
     30 H13         3.0000    1.1880   -1.1870 hc        1 BRE      0.051033
     31 H81        -1.6670    1.5470    1.0270 ha        1 BRE      0.145500
     32 H91         1.3440   -1.5540    1.0160 ha        1 BRE      0.145500
     33 H101        0.7060   -0.0010   -5.3700 ha        1 BRE      0.195000
     34 H111       -3.4980   -0.6090   -2.6790 ha        1 BRE      0.134000
     35 H121       -1.6790    1.5300    3.5160 ha        1 BRE      0.126000
     36 H131        1.3200   -1.5870    3.5070 ha        1 BRE      0.126000
     37 H151       -3.5820   -0.6990   -5.1700 ha        1 BRE      0.128000
     38 H181       -0.0570   -2.2030    5.2800 ha        1 BRE      0.136500
     39 H191       -0.3250    2.1130    5.3220 ha        1 BRE      0.136500
     40 H201       -0.0740   -2.2260    7.7700 ha        1 BRE      0.125000
     41 H211       -0.2210   -0.0840    9.0420 ha        1 BRE      0.123000
     42 H221       -0.3480    2.0840    7.8120 ha        1 BRE      0.125000
@<TRIPOS>BOND
     1    1    2 1   
     2    1   28 1   
     3    1   29 1   
     4    1   30 1   
     5    2    3 ar  
     6    2    4 ar  
     7    3    5 ar  
     8    3    7 1   
     9    4    6 1   
    10    4    8 ar  
    11    5    9 ar  
    12    6   12 1   
    13    6   13 1   
    14    7   10 ar  
    15    7   11 ar  
    16    8    9 ar  
    17    8   14 ar  
    18    9   15 ar  
    19   10   16 ar  
    20   10   31 1   
    21   11   17 ar  
    22   11   32 1   
    23   14   18 ar  
    24   14   33 1   
    25   15   19 ar  
    26   15   34 1   
    27   16   20 ar  
    28   16   35 1   
    29   17   20 ar  
    30   17   36 1   
    31   18   19 ar  
    32   18   21 1   
    33   19   37 1   
    34   20   22 1   
    35   22   23 ar  
    36   22   24 ar  
    37   23   25 ar  
    38   23   38 1   
    39   24   27 ar  
    40   24   39 1   
    41   25   26 ar  
    42   25   40 1   
    43   26   27 ar  
    44   26   41 1   
    45   27   42 1   
@<TRIPOS>SUBSTRUCTURE
     1 BRE         1 TEMP              0 ****  ****    0 ROOT
