@<TRIPOS>MOLECULE
BRE
   42    33     1     0     0
SMALL
bcc


@<TRIPOS>ATOM
      1 C1         -2.9970    0.3200   -1.9500 c3        1 BRE     -0.180000
      2 C2         -1.6520    1.0000   -1.8100 c2        1 BRE     -0.104000
      3 C3         -1.0700    0.9320   -0.5480 c1        1 BRE      0.015000
      4 C4         -1.6130    2.1700   -2.5190 c1        1 BRE     -0.037000
      5 N1         -0.4600    2.0310   -0.0160 n1        1 BRE     -0.159000
      6 C5         -1.1500    1.8310   -3.9190 c1        1 BRE      0.357000
      7 C23        -0.5040   -0.0670    0.2290 c1        1 BRE     -0.023667
      8 C6         -0.9930    3.2870   -1.9780 c2        1 BRE     -0.042000
      9 C7         -0.4190    3.2160   -0.7310 c1        1 BRE     -0.023000
     10 C8         -1.0950   -0.6290    1.3500 c1        1 BRE     -0.118667
     11 C9          0.6920   -0.5740   -0.2520 c1        1 BRE     -0.127667
     12 O1          0.0440    1.4870   -4.1200 o         1 BRE     -0.546500
     13 O2         -1.9620    1.8770   -4.8790 o         1 BRE     -0.546500
     14 C10        -0.9670    4.4970   -2.6970 c1        1 BRE     -0.101000
     15 C11         0.1950    4.3550   -0.1740 c1        1 BRE     -0.101000
     16 C12        -0.4880   -1.6980    1.9890 c1        1 BRE     -0.118667
     17 C13         1.2980   -1.6440    0.3870 c1        1 BRE     -0.127667
     18 C14        -0.3610    5.6190   -2.1470 c1        1 BRE      0.039000
     19 C15         0.2210    5.5480   -0.8850 c1        1 BRE     -0.164000
     20 C16         0.7080   -2.2060    1.5080 c1        1 BRE     -0.023667
     21 F1         -0.4490    6.7650   -2.8340 f         1 BRE     -0.125000
     22 C17         1.3260   -3.2620    2.1580 c1        1 BRE     -0.023667
     23 C18         2.2460   -3.0130    3.1640 c1        1 BRE     -0.127667
     24 C19         1.0400   -4.5660    1.7870 c1        1 BRE     -0.118667
     25 C20         2.8790   -4.0690    3.8000 c1        1 BRE     -0.127667
     26 C21         2.5930   -5.3740    3.4300 c1        1 BRE     -0.127667
     27 C22         1.6730   -5.6220    2.4230 c1        1 BRE     -0.127667
     28 H11        -3.4130    0.5900   -2.7950 hc        1 BRE      0.089000
     29 H12        -3.5750    0.5830   -1.2030 hc        1 BRE      0.089000
     30 H13        -2.8740   -0.6520   -1.9420 hc        1 BRE      0.089000
     31 H81        -1.9380   -0.2720    1.6890 ha        1 BRE      0.135667
     32 H91         1.1080   -0.1780   -1.0420 ha        1 BRE      0.130167
     33 H101       -1.3740    4.5470   -3.5830 ha        1 BRE      0.196000
     34 H111        0.5900    4.3090    0.7180 ha        1 BRE      0.134000
     35 H121       -0.9040   -2.0940    2.7790 ha        1 BRE      0.135667
     36 H131        2.1410   -2.0010    0.0480 ha        1 BRE      0.130167
     37 H151        0.6270    6.3430   -0.4890 ha        1 BRE      0.128000
     38 H181        2.4470   -2.0940    3.4260 ha        1 BRE      0.130167
     39 H191        0.4030   -4.7410    1.0690 ha        1 BRE      0.135667
     40 H201        3.5170   -3.8950    4.5180 ha        1 BRE      0.130167
     41 H211        3.0390   -6.1170    3.8770 ha        1 BRE      0.130167
     42 H221        1.4720   -6.5410    2.1620 ha        1 BRE      0.130167
@<TRIPOS>BOND
     1    1    2 1   
     2    1   28 1   
     3    1   29 1   
     4    1   30 1   
     5    2    3 1   
     6    2    4 1   
     7    3    5 1   
     8    4    8 1   
     9    6   12 1   
    10    6   13 1   
    11    7   10 1   
    12    8    9 1   
    13    8   14 1   
    14    9   15 1   
    15   10   31 1   
    16   11   17 1   
    17   11   32 1   
    18   14   33 1   
    19   15   34 1   
    20   16   20 1   
    21   16   35 1   
    22   17   36 1   
    23   18   19 1   
    24   18   21 1   
    25   19   37 1   
    26   22   24 1   
    27   23   25 1   
    28   23   38 1   
    29   24   39 1   
    30   25   40 1   
    31   26   27 1   
    32   26   41 1   
    33   27   42 1   
@<TRIPOS>SUBSTRUCTURE
     1 BRE         1 TEMP              0 ****  ****    0 ROOT
