@<TRIPOS>MOLECULE
BRF
   42    45     1     0     0
SMALL
bcc


@<TRIPOS>ATOM
      1 C1          0.0190   -0.1950   -0.0910 c3        1 BRF     -0.058800
      2 C2          1.4950   -0.0860   -0.0500 ca        1 BRF     -0.176600
      3 C3          2.1950   -0.0490    1.2060 cp        1 BRF      0.452800
      4 C4          2.2350   -0.0330   -1.2210 ca        1 BRF     -0.058600
      5 N1          3.5250    0.0000    1.3120 nb        1 BRF     -0.689000
      6 C5          1.5680   -0.0790   -2.5990 c         1 BRF      0.908200
      7 C23         1.4230   -0.0680    2.4700 cp        1 BRF     -0.101500
      8 C6          3.6550    0.0570   -1.1370 ca        1 BRF     -0.107300
      9 C7          4.2650    0.0510    0.1540 ca        1 BRF      0.372600
     10 C8          1.6740   -1.0460    3.4390 ca        1 BRF     -0.109500
     11 C9          0.4510    0.9090    2.7170 ca        1 BRF     -0.109500
     12 O1          0.9250   -1.1190   -2.9030 o         1 BRF     -0.811800
     13 O2          1.7160    0.9240   -3.3500 o         1 BRF     -0.811800
     14 C10         4.4640    0.1530   -2.3000 ca        1 BRF     -0.100000
     15 C11         5.6970    0.1090    0.2380 ca        1 BRF     -0.166300
     16 C12         0.9600   -1.0510    4.6350 ca        1 BRF     -0.120000
     17 C13        -0.2560    0.9090    3.9160 ca        1 BRF     -0.120000
     18 C14         5.8400    0.2110   -2.1780 ca        1 BRF      0.073900
     19 C15         6.4620    0.1840   -0.8930 ca        1 BRF     -0.164000
     20 C16        -0.0070   -0.0710    4.8890 cp        1 BRF     -0.063000
     21 F1          6.6350    0.3000   -3.2770 f         1 BRF     -0.159900
     22 C17        -0.7350   -0.0370    6.1560 cp        1 BRF     -0.044000
     23 C18        -1.2670   -1.2010    6.7610 ca        1 BRF      0.130900
     24 C19        -0.9230    1.1900    6.8090 ca        1 BRF     -0.103000
     25 C20        -1.9640   -1.1160    7.9830 ca        1 BRF     -0.172000
     26 C21        -2.1310    0.1170    8.6030 ca        1 BRF     -0.116000
     27 C22        -1.6100    1.2700    8.0160 ca        1 BRF     -0.148000
     28 F2         -1.1280   -2.4180    6.1830 f         1 BRF     -0.136900
     29 H1C1       -0.2980   -0.7430   -1.0180 hc        1 BRF      0.051700
     30 H1C2       -0.4400    0.8250   -0.1130 hc        1 BRF      0.051700
     31 H1C3       -0.3720   -0.7400    0.8030 hc        1 BRF      0.051700
     32 H8          2.4430   -1.8130    3.2540 ha        1 BRF      0.147000
     33 H9          0.2460    1.6760    1.9540 ha        1 BRF      0.147000
     34 H10         3.9630    0.1990   -3.2850 ha        1 BRF      0.195000
     35 H11         6.1720    0.0950    1.2310 ha        1 BRF      0.134000
     36 H12         1.1560   -1.8310    5.3860 ha        1 BRF      0.129000
     37 H13        -1.0200    1.6790    4.0990 ha        1 BRF      0.129000
     38 H15         7.5580    0.2280   -0.8380 ha        1 BRF      0.128000
     39 H19        -0.5090    2.1030    6.3510 ha        1 BRF      0.143000
     40 H20        -2.3710   -2.0330    8.4310 ha        1 BRF      0.142000
     41 H21        -2.6740    0.1790    9.5570 ha        1 BRF      0.129000
     42 H22        -1.7410    2.2450    8.5080 ha        1 BRF      0.130000
@<TRIPOS>BOND
     1    1    2 1   
     2    1   29 1   
     3    1   30 1   
     4    1   31 1   
     5    2    3 ar  
     6    2    4 ar  
     7    3    5 ar  
     8    3    7 1   
     9    4    6 1   
    10    4    8 ar  
    11    5    9 ar  
    12    6   12 1   
    13    6   13 1   
    14    7   10 ar  
    15    7   11 ar  
    16    8    9 ar  
    17    8   14 ar  
    18    9   15 ar  
    19   10   16 ar  
    20   10   32 1   
    21   11   17 ar  
    22   11   33 1   
    23   14   18 ar  
    24   14   34 1   
    25   15   19 ar  
    26   15   35 1   
    27   16   20 ar  
    28   16   36 1   
    29   17   20 ar  
    30   17   37 1   
    31   18   19 ar  
    32   18   21 1   
    33   19   38 1   
    34   20   22 1   
    35   22   23 ar  
    36   22   24 ar  
    37   23   25 ar  
    38   23   28 1   
    39   24   27 ar  
    40   24   39 1   
    41   25   26 ar  
    42   25   40 1   
    43   26   27 ar  
    44   26   41 1   
    45   27   42 1   
@<TRIPOS>SUBSTRUCTURE
     1 BRF         1 TEMP              0 ****  ****    0 ROOT
