@<TRIPOS>MOLECULE
BRF
   42    33     1     0     0
SMALL
bcc


@<TRIPOS>ATOM
      1 C1         -1.9090    0.0470   -2.3030 c3        1 BRF     -0.181000
      2 C2         -0.4060   -0.0060   -2.4460 c2        1 BRF     -0.103000
      3 C3          0.3630    0.0140   -1.2850 c1        1 BRF      0.014000
      4 C4          0.2110    0.0660   -3.6880 c1        1 BRF     -0.037000
      5 N1          1.7430    0.1070   -1.3710 n1        1 BRF     -0.160000
      6 C5         -0.6040    0.1600   -4.9240 c1        1 BRF      0.357000
      7 C23         0.0600   -0.0520    0.1010 c1        1 BRF     -0.033000
      8 C6          1.6160    0.1610   -3.7740 c2        1 BRF     -0.042000
      9 C7          2.3720    0.1810   -2.6370 c1        1 BRF     -0.023000
     10 C8         -0.2610    1.1720    0.7290 c1        1 BRF     -0.112000
     11 C9         -0.0990   -1.2170    0.7720 c1        1 BRF     -0.122500
     12 O1         -0.9370    1.3730   -5.4210 o         1 BRF     -0.546500
     13 O2         -1.1140   -0.9830   -5.5000 o         1 BRF     -0.546500
     14 C10         2.2230    0.1210   -5.0080 c1        1 BRF     -0.100000
     15 C11         3.8070    0.1580   -2.7290 c1        1 BRF     -0.101000
     16 C12        -0.7390    1.1820    2.0350 c1        1 BRF     -0.112000
     17 C13        -0.5870   -1.2060    2.1060 c1        1 BRF     -0.122500
     18 C14         3.6450    0.1000   -5.1070 c1        1 BRF      0.068000
     19 C15         4.4140    0.1180   -3.9640 c1        1 BRF     -0.168000
     20 C16        -0.9000   -0.0060    2.7190 c1        1 BRF     -0.033000
     21 F1          4.4370    0.1060   -6.3020 f         1 BRF     -0.113000
     22 C17        -1.3280   -0.0860    4.0660 c1        1 BRF     -0.033000
     23 C18        -2.6500   -0.3050    4.3530 c1        1 BRF      0.068000
     24 C19        -0.4200    0.0030    5.0650 c1        1 BRF     -0.112000
     25 C20        -3.0570   -0.4340    5.6750 c1        1 BRF     -0.168000
     26 C21        -2.1260   -0.3430    6.6960 c1        1 BRF     -0.122500
     27 C22        -0.8260   -0.1280    6.4010 c1        1 BRF     -0.122500
     28 F2         -3.6300   -0.1660    3.3150 f         1 BRF     -0.113000
     29 H1C1       -2.3730   -0.3930   -3.1760 hc        1 BRF      0.090333
     30 H1C2       -2.1590   -0.4170   -1.5560 hc        1 BRF      0.090333
     31 H1C3       -2.1930    0.9690   -2.2220 hc        1 BRF      0.090333
     32 H8         -0.1430    2.0430    0.2280 ha        1 BRF      0.137000
     33 H9         -0.0200   -2.0390    0.3090 ha        1 BRF      0.134750
     34 H10         1.7010    0.1090   -5.7820 ha        1 BRF      0.196000
     35 H11         4.3370    0.1710   -1.9350 ha        1 BRF      0.134000
     36 H12        -0.9800    2.1080    2.5070 ha        1 BRF      0.137000
     37 H13        -0.7090   -2.0990    2.6220 ha        1 BRF      0.134750
     38 H15         5.3650    0.2110   -4.0320 ha        1 BRF      0.135000
     39 H19         0.5880    0.1710    4.8380 ha        1 BRF      0.137000
     40 H20        -4.0770   -0.5600    5.9020 ha        1 BRF      0.135000
     41 H21        -2.4290   -0.3270    7.6490 ha        1 BRF      0.134750
     42 H22        -0.2060   -0.0860    7.0730 ha        1 BRF      0.134750
@<TRIPOS>BOND
     1    1    2 1   
     2    1   29 1   
     3    1   30 1   
     4    1   31 1   
     5    2    3 1   
     6    2    4 1   
     7    3    5 1   
     8    4    8 1   
     9    6   12 1   
    10    6   13 1   
    11    7   10 1   
    12    8    9 1   
    13    8   14 1   
    14    9   15 1   
    15   10   32 1   
    16   11   17 1   
    17   11   33 1   
    18   14   34 1   
    19   15   35 1   
    20   16   20 1   
    21   16   36 1   
    22   17   37 1   
    23   18   19 1   
    24   18   21 1   
    25   19   38 1   
    26   22   24 1   
    27   23   25 1   
    28   23   28 1   
    29   24   39 1   
    30   25   40 1   
    31   26   27 1   
    32   26   41 1   
    33   27   42 1   
@<TRIPOS>SUBSTRUCTURE
     1 BRF         1 TEMP              0 ****  ****    0 ROOT
