@<TRIPOS>MOLECULE
BRF
   42    45     1     0     0
SMALL
bcc


@<TRIPOS>ATOM
      1 C1          2.3820    0.2350   -0.8360 c3        1 BRF     -0.058800
      2 C2          1.1060    0.0860   -1.5730 ca        1 BRF     -0.176600
      3 C3         -0.1400   -0.0360   -0.8660 cp        1 BRF      0.452800
      4 C4          1.0850    0.0760   -2.9580 ca        1 BRF     -0.058600
      5 N1         -1.3290   -0.1240   -1.4680 nb        1 BRF     -0.689000
      6 C5          2.3660    0.2120   -3.7860 c         1 BRF      0.908200
      7 C23        -0.1380   -0.0640    0.6150 cp        1 BRF     -0.101500
      8 C6         -0.1670   -0.0540   -3.6290 ca        1 BRF     -0.107300
      9 C7         -1.3570   -0.1320   -2.8430 ca        1 BRF      0.372600
     10 C8         -0.9030    0.8550    1.3430 ca        1 BRF     -0.109500
     11 C9          0.6120   -1.0280    1.3010 ca        1 BRF     -0.109500
     12 O1          3.0210    1.2840   -3.6770 o         1 BRF     -0.811800
     13 O2          2.6790   -0.7520   -4.5350 o         1 BRF     -0.811800
     14 C10        -0.2490   -0.1080   -5.0450 ca        1 BRF     -0.100000
     15 C11        -2.6200   -0.2310   -3.5180 ca        1 BRF     -0.166300
     16 C12        -0.9140    0.8140    2.7350 ca        1 BRF     -0.120000
     17 C13         0.5930   -1.0740    2.6910 ca        1 BRF     -0.120000
     18 C14        -1.4840   -0.2080   -5.6590 ca        1 BRF      0.073900
     19 C15        -2.6830   -0.2640   -4.8840 ca        1 BRF     -0.164000
     20 C16        -0.1720   -0.1530    3.4240 cp        1 BRF     -0.063000
     21 F1         -1.5890   -0.2580   -7.0130 f         1 BRF     -0.159900
     22 C17        -0.2050   -0.2360    4.8830 cp        1 BRF     -0.044000
     23 C18        -0.1230    0.9060    5.7130 ca        1 BRF      0.130900
     24 C19        -0.3240   -1.4910    5.4980 ca        1 BRF     -0.103000
     25 C20        -0.1580    0.7740    7.1160 ca        1 BRF     -0.172000
     26 C21        -0.2760   -0.4850    7.6920 ca        1 BRF     -0.116000
     27 C22        -0.3590   -1.6180    6.8830 ca        1 BRF     -0.148000
     28 F2         -0.0020    2.1490    5.1880 f         1 BRF     -0.136900
     29 H1C1        2.8360   -0.7710   -0.6480 hc        1 BRF      0.051700
     30 H1C2        3.1070    0.8390   -1.4440 hc        1 BRF      0.051700
     31 H1C3        2.2260    0.7410    0.1480 hc        1 BRF      0.051700
     32 H8         -1.5010    1.6100    0.8100 ha        1 BRF      0.147000
     33 H9          1.2210   -1.7480    0.7310 ha        1 BRF      0.147000
     34 H10         0.6910   -0.0890   -5.6270 ha        1 BRF      0.195000
     35 H11        -3.5410   -0.2810   -2.9180 ha        1 BRF      0.134000
     36 H12        -1.5090    1.5480    3.3000 ha        1 BRF      0.129000
     37 H13         1.1890   -1.8320    3.2200 ha        1 BRF      0.129000
     38 H15        -3.6450   -0.3390   -5.4090 ha        1 BRF      0.128000
     39 H19        -0.3940   -2.3880    4.8630 ha        1 BRF      0.143000
     40 H20        -0.0880    1.6760    7.7400 ha        1 BRF      0.142000
     41 H21        -0.3030   -0.5840    8.7870 ha        1 BRF      0.129000
     42 H22        -0.4550   -2.6140    7.3400 ha        1 BRF      0.130000
@<TRIPOS>BOND
     1    1    2 1   
     2    1   29 1   
     3    1   30 1   
     4    1   31 1   
     5    2    3 ar  
     6    2    4 ar  
     7    3    5 ar  
     8    3    7 1   
     9    4    6 1   
    10    4    8 ar  
    11    5    9 ar  
    12    6   12 1   
    13    6   13 1   
    14    7   10 ar  
    15    7   11 ar  
    16    8    9 ar  
    17    8   14 ar  
    18    9   15 ar  
    19   10   16 ar  
    20   10   32 1   
    21   11   17 ar  
    22   11   33 1   
    23   14   18 ar  
    24   14   34 1   
    25   15   19 ar  
    26   15   35 1   
    27   16   20 ar  
    28   16   36 1   
    29   17   20 ar  
    30   17   37 1   
    31   18   19 ar  
    32   18   21 1   
    33   19   38 1   
    34   20   22 1   
    35   22   23 ar  
    36   22   24 ar  
    37   23   25 ar  
    38   23   28 1   
    39   24   27 ar  
    40   24   39 1   
    41   25   26 ar  
    42   25   40 1   
    43   26   27 ar  
    44   26   41 1   
    45   27   42 1   
@<TRIPOS>SUBSTRUCTURE
     1 BRF         1 TEMP              0 ****  ****    0 ROOT
