@<TRIPOS>MOLECULE
BRF
   42    45     1     0     0
SMALL
bcc


@<TRIPOS>ATOM
      1 C1          0.0200   -0.2020   -0.0910 c3        1 BRF     -0.058800
      2 C2          1.4950   -0.0880   -0.0500 ca        1 BRF     -0.176600
      3 C3          2.1950   -0.0480    1.2060 cp        1 BRF      0.452800
      4 C4          2.2340   -0.0350   -1.2210 ca        1 BRF     -0.058600
      5 N1          3.5250    0.0040    1.3120 nb        1 BRF     -0.689000
      6 C5          1.5680   -0.0840   -2.5990 c         1 BRF      0.908200
      7 C23         1.4230   -0.0680    2.4700 cp        1 BRF     -0.101500
      8 C6          3.6550    0.0590   -1.1380 ca        1 BRF     -0.107300
      9 C7          4.2650    0.0560    0.1540 ca        1 BRF      0.372600
     10 C8          1.6770   -1.0440    3.4400 ca        1 BRF     -0.109500
     11 C9          0.4480    0.9070    2.7160 ca        1 BRF     -0.109500
     12 O1          0.9270   -1.1260   -2.9010 o         1 BRF     -0.811800
     13 O2          1.7130    0.9180   -3.3510 o         1 BRF     -0.811800
     14 C10         4.4630    0.1550   -2.3000 ca        1 BRF     -0.100000
     15 C11         5.6960    0.1170    0.2380 ca        1 BRF     -0.166300
     16 C12         0.9640   -1.0490    4.6360 ca        1 BRF     -0.120000
     17 C13        -0.2580    0.9070    3.9150 ca        1 BRF     -0.120000
     18 C14         5.8400    0.2170   -2.1790 ca        1 BRF      0.073900
     19 C15         6.4610    0.1930   -0.8930 ca        1 BRF     -0.164000
     20 C16        -0.0070   -0.0710    4.8890 cp        1 BRF     -0.063000
     21 F1          6.6340    0.3070   -3.2780 f         1 BRF     -0.159900
     22 C17        -0.7350   -0.0380    6.1560 cp        1 BRF     -0.044000
     23 C18        -1.2630   -1.2020    6.7630 ca        1 BRF      0.130900
     24 C19        -0.9260    1.1900    6.8080 ca        1 BRF     -0.103000
     25 C20        -1.9600   -1.1170    7.9850 ca        1 BRF     -0.172000
     26 C21        -2.1300    0.1150    8.6030 ca        1 BRF     -0.116000
     27 C22        -1.6130    1.2700    8.0150 ca        1 BRF     -0.148000
     28 F2         -1.1210   -2.4200    6.1870 f         1 BRF     -0.136900
     29 H1C1       -0.2960   -0.7510   -1.0170 hc        1 BRF      0.051700
     30 H1C2       -0.4420    0.8180   -0.1140 hc        1 BRF      0.051700
     31 H1C3       -0.3700   -0.7460    0.8040 hc        1 BRF      0.051700
     32 H8          2.4480   -1.8080    3.2560 ha        1 BRF      0.147000
     33 H9          0.2410    1.6730    1.9520 ha        1 BRF      0.147000
     34 H10         3.9630    0.1990   -3.2850 ha        1 BRF      0.195000
     35 H11         6.1710    0.1050    1.2310 ha        1 BRF      0.134000
     36 H12         1.1610   -1.8270    5.3890 ha        1 BRF      0.129000
     37 H13        -1.0250    1.6740    4.0960 ha        1 BRF      0.129000
     38 H15         7.5570    0.2390   -0.8390 ha        1 BRF      0.128000
     39 H19        -0.5150    2.1030    6.3490 ha        1 BRF      0.143000
     40 H20        -2.3650   -2.0350    8.4340 ha        1 BRF      0.142000
     41 H21        -2.6740    0.1770    9.5570 ha        1 BRF      0.129000
     42 H22        -1.7470    2.2440    8.5050 ha        1 BRF      0.130000
@<TRIPOS>BOND
     1    1    2 1   
     2    1   29 1   
     3    1   30 1   
     4    1   31 1   
     5    2    3 ar  
     6    2    4 ar  
     7    3    5 ar  
     8    3    7 1   
     9    4    6 1   
    10    4    8 ar  
    11    5    9 ar  
    12    6   12 1   
    13    6   13 1   
    14    7   10 ar  
    15    7   11 ar  
    16    8    9 ar  
    17    8   14 ar  
    18    9   15 ar  
    19   10   16 ar  
    20   10   32 1   
    21   11   17 ar  
    22   11   33 1   
    23   14   18 ar  
    24   14   34 1   
    25   15   19 ar  
    26   15   35 1   
    27   16   20 ar  
    28   16   36 1   
    29   17   20 ar  
    30   17   37 1   
    31   18   19 ar  
    32   18   21 1   
    33   19   38 1   
    34   20   22 1   
    35   22   23 ar  
    36   22   24 ar  
    37   23   25 ar  
    38   23   28 1   
    39   24   27 ar  
    40   24   39 1   
    41   25   26 ar  
    42   25   40 1   
    43   26   27 ar  
    44   26   41 1   
    45   27   42 1   
@<TRIPOS>SUBSTRUCTURE
     1 BRF         1 TEMP              0 ****  ****    0 ROOT
