@<TRIPOS>MOLECULE
BRG
   16    13     1     0     0
SMALL
bcc


@<TRIPOS>ATOM
      1 N9         -2.4130    0.0020    0.4090 n2        1 BRG     -0.080000
      2 C4         -1.0590    0.0020    0.4090 c1        1 BRG      0.040000
      3 N3         -0.0830    0.0020    1.4920 n1        1 BRG     -0.186000
      4 C2          1.3280    0.0020    1.1940 c1        1 BRG      0.205000
      5 N2          2.2760    0.0020    2.2490 n2        1 BRG     -0.320000
      6 N1          1.7700    0.0020   -0.1590 n         1 BRG     -0.332000
      7 C6          0.8350    0.0020   -1.2000 c2        1 BRG      0.385000
      8 O6          1.2110   -0.0450   -2.3540 o         1 BRG     -0.353000
      9 C5         -0.6390    0.0020   -0.8870 c2        1 BRG     -0.227000
     10 N7         -1.7350    0.0020   -1.6800 n2        1 BRG     -0.143000
     11 C8         -2.8330    0.0020   -0.8810 c1        1 BRG     -0.108000
     12 BR         -4.7440    0.0120   -0.8300 br        1 BRG      0.164000
     13 H21         1.9940    0.0080    3.1160 hn        1 BRG      0.211000
     14 H22         3.1690   -0.0030    2.0600 hn        1 BRG      0.211000
     15 H1          2.6620    0.0020   -0.3470 hn        1 BRG      0.254000
     16 H7         -1.7370    0.0020   -2.5920 DU        1 BRG      0.281000
@<TRIPOS>BOND
     1    1    2 1   
     2    1   11 1   
     3    2    9 1   
     4    3    4 1   
     5    4    6 1   
     6    5   13 1   
     7    5   14 1   
     8    6    7 1   
     9    6   15 1   
    10    7    8 1   
    11    7    9 1   
    12    9   10 1   
    13   10   11 1   
@<TRIPOS>SUBSTRUCTURE
     1 BRG         1 TEMP              0 ****  ****    0 ROOT
