@<TRIPOS>MOLECULE
BRG
   17    18     1     0     0
SMALL
bcc


@<TRIPOS>ATOM
      1 N9         -0.0850   -0.0020    0.0870 nc        1 BRG     -0.552000
      2 C4          1.3160   -0.0010    0.0110 cc        1 BRG      0.517300
      3 N3          2.2420   -0.0010    1.0460 nc        1 BRG     -0.551700
      4 C2          3.5140    0.0010    0.6590 cd        1 BRG      0.489800
      5 N2          4.5180    0.0010    1.7740 nz        1 BRG     -0.794600
      6 N1          4.0170    0.0030   -0.6510 ns        1 BRG     -0.493400
      7 C6          3.1270    0.0030   -1.7630 c         1 BRG      0.749100
      8 O6          3.5990    0.0040   -2.9020 o         1 BRG     -0.534500
      9 C5          1.7250    0.0010   -1.3760 cd        1 BRG     -0.257200
     10 N7          0.5710    0.0010   -2.1300 na        1 BRG     -0.232900
     11 C8         -0.4990   -0.0020   -1.2120 cd        1 BRG      0.489700
     12 Br         -2.2700   -0.0030   -1.7540 br        1 BRG      0.006800
     13 H21         5.1010    0.8440    1.7120 hn        1 BRG      0.484467
     14 H22         5.1040   -0.8400    1.7100 hn        1 BRG      0.484467
     15 H1          4.9960    0.0040   -0.8450 hn        1 BRG      0.355500
     16 H7          0.5140    0.0010   -3.1230 hn        1 BRG      0.354700
     17 H23         4.0230   -0.0010    2.6820 hn        1 BRG      0.484467
@<TRIPOS>BOND
     1    1    2 1   
     2    1   11 2   
     3    2    3 1   
     4    2    9 2   
     5    3    4 2   
     6    4    5 1   
     7    4    6 1   
     8    5   13 1   
     9    5   14 1   
    10    5   17 1   
    11    6    7 1   
    12    6   15 1   
    13    7    8 2   
    14    7    9 1   
    15    9   10 1   
    16   10   11 1   
    17   10   16 1   
    18   11   12 1   
@<TRIPOS>SUBSTRUCTURE
     1 BRG         1 TEMP              0 ****  ****    0 ROOT
