@<TRIPOS>MOLECULE
BRG
   16    17     1     0     0
SMALL
bcc


@<TRIPOS>ATOM
      1 N9          1.2480    0.0210   -0.4330 nc        1 BRG     -0.606000
      2 C4          0.7880    0.0070    0.8950 cc        1 BRG      0.587300
      3 N3          1.5270    0.0090    2.0670 nc        1 BRG     -0.692700
      4 C2          0.8100   -0.0370    3.2080 cd        1 BRG      0.651800
      5 N2          1.4970   -0.1750    4.4420 nh        1 BRG     -0.881800
      6 N1         -0.6060   -0.0170    3.2780 n         1 BRG     -0.492400
      7 C6         -1.4140   -0.0190    2.1250 c         1 BRG      0.748100
      8 O6         -2.6530   -0.0290    2.2360 o         1 BRG     -0.628500
      9 C5         -0.6550    0.0020    0.8920 cd        1 BRG     -0.337200
     10 N7         -1.0600    0.0090   -0.4350 na        1 BRG     -0.256900
     11 C8          0.1160    0.0200   -1.1930 cd        1 BRG      0.474700
     12 BR          0.0990    0.0350   -3.0500 br        1 BRG     -0.067200
     13 H21         2.4930   -0.1410    4.3540 hn        1 BRG      0.415800
     14 H22         1.1490    0.4060    5.1750 hn        1 BRG      0.415800
     15 H1         -1.0660   -0.1000    4.1590 hn        1 BRG      0.340500
     16 H7         -1.9940    0.0040   -0.7590 hn        1 BRG      0.330700
@<TRIPOS>BOND
     1    1    2 1   
     2    1   11 2   
     3    2    3 1   
     4    2    9 2   
     5    3    4 2   
     6    4    5 1   
     7    4    6 1   
     8    5   13 1   
     9    5   14 1   
    10    6    7 1   
    11    6   15 1   
    12    7    8 2   
    13    7    9 1   
    14    9   10 1   
    15   10   11 1   
    16   10   16 1   
    17   11   12 1   
@<TRIPOS>SUBSTRUCTURE
     1 BRG         1 TEMP              0 ****  ****    0 ROOT
