@<TRIPOS>MOLECULE
BRH
   19    17     1     0     0
SMALL
bcc


@<TRIPOS>ATOM
      1 O1         -1.0240   -0.2020   -3.4930 o         1 BRH     -0.832800
      2 C1          0.0200    0.2350   -2.9330 c         1 BRH      0.890600
      3 O2          1.0980    0.2670   -3.5630 o         1 BRH     -0.832800
      4 C2         -0.0120    0.6260   -1.4860 c3        1 BRH      0.019500
      5 N1         -0.9990    1.6360   -1.2860 n3        1 BRH     -0.889800
      6 C3         -0.3510   -0.5720   -0.6540 c3        1 BRH     -0.035200
      7 C4          0.3110   -0.4630    0.6570 c2        1 BRH      0.090800
      8 C5         -0.1830   -0.9180    1.8430 c1        1 BRH     -0.280900
      9 BR1        -1.8650   -1.7910    2.0990 br        1 BRH      0.108000
     10 C6          0.7430   -0.6570    2.8140 c1        1 BRH      0.272400
     11 O3          0.6560   -1.0370    4.1400 o         1 BRH     -0.214000
     12 N2          1.8000   -0.0460    2.2290 n2        1 BRH     -0.450900
     13 O4          1.5330    0.0750    0.8900 os        1 BRH      0.011400
     14 H2          0.8880    0.9790   -1.2140 h1        1 BRH      0.056700
     15 H3         -1.4270    1.8040   -2.0720 hn        1 BRH      0.336300
     16 H4         -0.5990    2.3990   -0.9890 hn        1 BRH      0.336300
     17 H5         -1.3240   -0.6170   -0.5250 hc        1 BRH      0.092700
     18 H6         -0.0400   -1.3920   -1.1150 hc        1 BRH      0.092700
     19 H7          0.7760   -0.3270    4.6580 ho        1 BRH      0.228000
@<TRIPOS>BOND
     1    1    2 1   
     2    2    3 1   
     3    2    4 1   
     4    4    5 1   
     5    4    6 1   
     6    4   14 1   
     7    5   15 1   
     8    5   16 1   
     9    6    7 1   
    10    6   17 1   
    11    6   18 1   
    12    7    8 2   
    13    7   13 1   
    14    8   10 2   
    15   10   12 2   
    16   11   19 1   
    17   12   13 1   
@<TRIPOS>SUBSTRUCTURE
     1 BRH         1 TEMP              0 ****  ****    0 ROOT
