@<TRIPOS>MOLECULE
BRH
   20    20     1     0     0
SMALL
bcc


@<TRIPOS>ATOM
      1 O1          0.1050    0.4940    0.0940 o         1 BRH     -0.744800
      2 C1          1.2650    0.1030   -0.0940 c         1 BRH      0.943600
      3 O2          1.8660   -0.2460   -1.1410 o         1 BRH     -0.744800
      4 C2          2.1680    0.0190    1.2510 c3        1 BRH     -0.083500
      5 N1          3.5410   -0.4450    0.8960 nz        1 BRH     -0.842600
      6 C3          2.1320    1.3820    1.9170 c3        1 BRH     -0.142700
      7 C4          2.8480    1.4220    3.2000 cc        1 BRH      0.311000
      8 C5          4.1830    1.5460    3.5690 cd        1 BRH     -0.328500
      9 Br1         5.6520    1.7240    2.4990 br        1 BRH     -0.003100
     10 C6          4.1320    1.5250    5.0370 cd        1 BRH      0.567600
     11 O3          5.2520    1.6180    5.8000 oh        1 BRH     -0.569300
     12 N2          2.8450    1.3920    5.4460 nc        1 BRH     -0.422300
     13 O4          2.0770    1.3300    4.3710 os        1 BRH     -0.082100
     14 H2          1.6920   -0.7550    1.9120 hx        1 BRH      0.100700
     15 H3          4.2530    0.2400    1.1670 hn        1 BRH      0.448133
     16 H4          3.5450   -0.5640   -0.1460 hn        1 BRH      0.448133
     17 H5          1.0360    1.6220    2.0690 hc        1 BRH      0.122700
     18 H6          2.5520    2.1720    1.2350 hc        1 BRH      0.122700
     19 H7          4.9920    1.6280    6.7390 ho        1 BRH      0.452000
     20 H13         3.7450   -1.3400    1.3330 hn        1 BRH      0.448133
@<TRIPOS>BOND
     1    1    2 1   
     2    2    3 1   
     3    2    4 1   
     4    4    5 1   
     5    4    6 1   
     6    4   14 1   
     7    5   15 1   
     8    5   16 1   
     9    5   20 1   
    10    6    7 1   
    11    6   17 1   
    12    6   18 1   
    13    7    8 2   
    14    7   13 1   
    15    8    9 1   
    16    8   10 1   
    17   10   11 1   
    18   10   12 2   
    19   11   19 1   
    20   12   13 1   
@<TRIPOS>SUBSTRUCTURE
     1 BRH         1 TEMP              0 ****  ****    0 ROOT
