@<TRIPOS>MOLECULE
BRH
   20    20     1     0     0
SMALL
bcc


@<TRIPOS>ATOM
      1 O1          0.0560    0.3160    0.1850 o         1 BRH     -0.744800
      2 C1          1.2180   -0.0680   -0.0080 c         1 BRH      0.943600
      3 O2          1.7990   -0.4700   -1.0460 o         1 BRH     -0.744800
      4 C2          2.1540   -0.0590    1.3170 c3        1 BRH     -0.083500
      5 N1          3.5250   -0.5240    0.9570 n4        1 BRH     -0.842600
      6 C3          2.1120    1.3420    1.9010 c3        1 BRH     -0.142700
      7 C4          2.8570    1.4700    3.1610 cc        1 BRH      0.311000
      8 C5          4.1990    1.6340    3.4890 cd        1 BRH     -0.328500
      9 BR1         5.6390    1.7660    2.3750 br        1 BRH     -0.003100
     10 C6          4.1830    1.7020    4.9570 cd        1 BRH      0.567600
     11 O3          5.3190    1.8560    5.6850 oh        1 BRH     -0.569300
     12 N2          2.9080    1.5760    5.4050 nc        1 BRH     -0.422300
     13 O4          2.1150    1.4380    4.3540 os        1 BRH     -0.082100
     14 H2          1.7060   -0.7970    2.0350 hx        1 BRH      0.100700
     15 H3          4.2320    0.1870    1.1700 hn        1 BRH      0.448133
     16 H4          3.5070   -0.7030   -0.0760 hn        1 BRH      0.448133
     17 H5          1.0170    1.5750    2.0650 hc        1 BRH      0.122700
     18 H6          2.5040    2.0950    1.1630 hc        1 BRH      0.122700
     19 H7          5.0810    1.9190    6.6280 ho        1 BRH      0.452000
     20 H13         3.7530   -1.3880    1.4400 hn        1 BRH      0.448133
@<TRIPOS>BOND
     1    1    2 1   
     2    2    3 1   
     3    2    4 1   
     4    4    5 1   
     5    4    6 1   
     6    4   14 1   
     7    5   15 1   
     8    5   16 1   
     9    5   20 1   
    10    6    7 1   
    11    6   17 1   
    12    6   18 1   
    13    7    8 2   
    14    7   13 1   
    15    8    9 1   
    16    8   10 1   
    17   10   11 1   
    18   10   12 2   
    19   11   19 1   
    20   12   13 1   
@<TRIPOS>SUBSTRUCTURE
     1 BRH         1 TEMP              0 ****  ****    0 ROOT
