@<TRIPOS>MOLECULE
BRH
   19    19     1     0     0
SMALL
bcc


@<TRIPOS>ATOM
      1 O1          3.8550    0.6990    1.1890 o         1 BRH     -0.831800
      2 C1          3.5630    0.0800    0.1310 c         1 BRH      0.891600
      3 O2          4.3200   -0.7280   -0.4740 o         1 BRH     -0.831800
      4 C2          2.1480    0.3480   -0.4950 c3        1 BRH      0.020500
      5 N1          1.7370   -0.6170   -1.5030 n3        1 BRH     -0.890800
      6 C3          1.1490    0.4650    0.6620 c3        1 BRH     -0.134700
      7 C4         -0.1760    0.9250    0.2340 cc        1 BRH      0.419000
      8 C5         -1.4490    0.3610    0.2120 cd        1 BRH     -0.390500
      9 BR1        -1.9940   -1.3040    0.7210 br        1 BRH     -0.045100
     10 C6         -2.2920    1.4290   -0.3390 cd        1 BRH      0.543600
     11 O3         -3.6380    1.3940   -0.5660 oh        1 BRH     -0.584300
     12 N2         -1.5380    2.5240   -0.5990 nc        1 BRH     -0.401300
     13 O4         -0.2860    2.2390   -0.2610 os        1 BRH     -0.111100
     14 H2          2.2090    1.3530   -1.0070 h1        1 BRH      0.056700
     15 H3          2.4890   -0.6870   -2.1690 hn        1 BRH      0.337300
     16 H4          1.6600   -1.5200   -1.0690 hn        1 BRH      0.337300
     17 H5          1.0420   -0.5240    1.1820 hc        1 BRH      0.092700
     18 H6          1.5940    1.1990    1.3950 hc        1 BRH      0.092700
     19 H7         -3.9120    0.4780   -0.3920 ho        1 BRH      0.430000
@<TRIPOS>BOND
     1    1    2 1   
     2    2    3 1   
     3    2    4 1   
     4    4    5 1   
     5    4    6 1   
     6    4   14 1   
     7    5   15 1   
     8    5   16 1   
     9    6    7 1   
    10    6   17 1   
    11    6   18 1   
    12    7    8 2   
    13    7   13 1   
    14    8    9 1   
    15    8   10 1   
    16   10   11 1   
    17   10   12 2   
    18   11   19 1   
    19   12   13 1   
@<TRIPOS>SUBSTRUCTURE
     1 BRH         1 TEMP              0 ****  ****    0 ROOT
