@<TRIPOS>MOLECULE
BRI
   25    25     1     0     0
SMALL
bcc


@<TRIPOS>ATOM
      1 OGL         0.8950   -0.3300   -2.6020 oh        1 BRI     -0.635800
      2 C1          0.5690    0.7090   -1.7030 c3        1 BRI      0.339900
      3 C2          1.4940    0.6160   -0.4960 c3        1 BRI     -0.127400
      4 C3          1.1620   -0.6160    0.3340 c3        1 BRI      0.117100
      5 O3          1.9150   -0.6670    1.5350 oh        1 BRI     -0.599800
      6 C4         -0.3310   -0.6020    0.7120 c3        1 BRI      0.118100
      7 O4         -0.6730    0.5570    1.4630 os        1 BRI     -0.406600
      8 CME        -0.5040    0.4020    2.8640 c3        1 BRI      0.112700
      9 C5         -1.1420   -0.5710   -0.5980 c3        1 BRI      0.149100
     10 O1         -0.8070    0.5530   -1.4170 os        1 BRI     -0.439600
     11 C6         -2.6320   -0.4740   -0.3370 c3        1 BRI     -0.089100
     12 HOG         0.2450   -0.3080   -3.3150 ho        1 BRI      0.417000
     13 H1          0.6350    1.7200   -2.2000 h2        1 BRI      0.071700
     14 H21         2.5550    0.5750   -0.8470 hc        1 BRI      0.071700
     15 H22         1.3490    1.5340    0.1320 hc        1 BRI      0.071700
     16 H3          1.3690   -1.5440   -0.2740 h1        1 BRI      0.051700
     17 HO3         2.8440   -0.5910    1.2840 ho        1 BRI      0.404000
     18 H4         -0.5810   -1.5330    1.2890 h1        1 BRI      0.058700
     19 H41        -0.8090    1.3940    3.2840 h1        1 BRI      0.039367
     20 H42        -1.1710   -0.4080    3.2510 h1        1 BRI      0.039367
     21 H43         0.5610    0.1760    3.1150 h1        1 BRI      0.039367
     22 H5         -0.8950   -1.5090   -1.1740 h1        1 BRI      0.045700
     23 H61        -3.1850   -0.4070   -1.3040 hc        1 BRI      0.050367
     24 H62        -2.9690   -1.3780    0.2220 hc        1 BRI      0.050367
     25 H63        -2.8540    0.4390    0.2670 hc        1 BRI      0.050367
@<TRIPOS>BOND
     1    1    2 1   
     2    1   12 1   
     3    2    3 1   
     4    2   10 1   
     5    2   13 1   
     6    3    4 1   
     7    3   14 1   
     8    3   15 1   
     9    4    5 1   
    10    4    6 1   
    11    4   16 1   
    12    5   17 1   
    13    6    7 1   
    14    6    9 1   
    15    6   18 1   
    16    7    8 1   
    17    8   19 1   
    18    8   20 1   
    19    8   21 1   
    20    9   10 1   
    21    9   11 1   
    22    9   22 1   
    23   11   23 1   
    24   11   24 1   
    25   11   25 1   
@<TRIPOS>SUBSTRUCTURE
     1 BRI         1 TEMP              0 ****  ****    0 ROOT
