@<TRIPOS>MOLECULE
BRJ
    9     8     1     0     0
SMALL
bcc


@<TRIPOS>ATOM
      1 OB1         0.1690    0.4310   -0.3480 oh        1 BRJ     -0.592800
      2 CB1         1.5210    0.1080   -0.1030 c3        1 BRJ      0.130400
      3 CB          1.8210   -0.0600    1.3720 c3        1 BRJ     -0.058000
      4 BR1         1.2140   -1.7310    2.1140 br        1 BRJ     -0.175400
      5 HB1        -0.3670   -0.3180   -0.0590 ho        1 BRJ      0.407000
      6 HB11        2.0910    0.9960   -0.4970 h1        1 BRJ      0.058700
      7 HB12        1.8180   -0.8060   -0.6840 h1        1 BRJ      0.058700
      8 HB1A        1.3240    0.7470    1.9600 h1        1 BRJ      0.085200
      9 HB2         2.9220   -0.0220    1.5420 h1        1 BRJ      0.085200
@<TRIPOS>BOND
     1    1    2 1   
     2    1    5 1   
     3    2    3 1   
     4    2    6 1   
     5    2    7 1   
     6    3    4 1   
     7    3    8 1   
     8    3    9 1   
@<TRIPOS>SUBSTRUCTURE
     1 BRJ         1 TEMP              0 ****  ****    0 ROOT
