@<TRIPOS>MOLECULE
BRJ
    9     8     1     0     0
SMALL
bcc


@<TRIPOS>ATOM
      1 OB1        -1.3380   -0.0080   -0.6090 oh        1 BRJ     -0.592800
      2 CB1         0.0720   -0.0370   -0.5980 c3        1 BRJ      0.130400
      3 CB          0.5640   -0.0930    0.8310 c3        1 BRJ     -0.058000
      4 BR1        -0.4240    1.1520    1.8940 br        1 BRJ     -0.175400
      5 HB1        -1.6300   -0.0960   -1.4450 ho        1 BRJ      0.407000
      6 HB11        0.3860   -0.8290   -1.0830 h1        1 BRJ      0.058700
      7 HB12        0.4190    0.7690   -1.0320 h1        1 BRJ      0.058700
      8 HB1A        0.4370   -0.9960    1.1850 h1        1 BRJ      0.085200
      9 HB2         1.5140    0.1370    0.8580 h1        1 BRJ      0.085200
@<TRIPOS>BOND
     1    1    2 1   
     2    1    5 1   
     3    2    3 1   
     4    2    6 1   
     5    2    7 1   
     6    3    4 1   
     7    3    8 1   
     8    3    9 1   
@<TRIPOS>SUBSTRUCTURE
     1 BRJ         1 TEMP              0 ****  ****    0 ROOT
