@<TRIPOS>MOLECULE
BRJ
    9     8     1     0     0
SMALL
bcc


@<TRIPOS>ATOM
      1 OB1         0.5490    0.1920    2.6170 oh        1 BRJ     -0.592800
      2 CB1        -0.5690   -0.4080    1.9970 c3        1 BRJ      0.130400
      3 CB         -0.9370    0.2600    0.6890 c3        1 BRJ     -0.058000
      4 BR1         0.2160   -0.2000   -0.7840 br        1 BRJ     -0.175400
      5 HB1         1.3090    0.0620    2.0360 ho        1 BRJ      0.407000
      6 HB11       -0.3950   -1.5090    1.8540 h1        1 BRJ      0.058700
      7 HB12       -1.4050   -0.2600    2.7360 h1        1 BRJ      0.058700
      8 HB1A       -1.9670   -0.0390    0.3870 h1        1 BRJ      0.085200
      9 HB2        -0.8860    1.3690    0.7960 h1        1 BRJ      0.085200
@<TRIPOS>BOND
     1    1    2 1   
     2    1    5 1   
     3    2    3 1   
     4    2    6 1   
     5    2    7 1   
     6    3    4 1   
     7    3    8 1   
     8    3    9 1   
@<TRIPOS>SUBSTRUCTURE
     1 BRJ         1 TEMP              0 ****  ****    0 ROOT
