@<TRIPOS>MOLECULE
BRK
   42    44     1     0     0
SMALL
bcc


@<TRIPOS>ATOM
      1 CAB         0.4180   -0.0720   -0.4790 c3        1 BRK      0.112700
      2 OAP         1.6920    0.3500   -0.0070 os        1 BRK     -0.324900
      3 CAU         1.9450    0.1470    1.3340 ca        1 BRK      0.144100
      4 CAJ         3.2250    0.5520    1.7620 ca        1 BRK     -0.190500
      5 CAL         3.5750    0.3900    3.0950 ca        1 BRK     -0.057500
      6 CAI         1.0340   -0.4150    2.2360 ca        1 BRK     -0.190500
      7 CAK         1.4010   -0.5610    3.5740 ca        1 BRK     -0.057500
      8 CAW         2.6630   -0.1540    4.0140 ca        1 BRK     -0.189600
      9 CAR         3.0860   -0.3070    5.4250 c         1 BRK      0.647900
     10 OAD         4.2610   -0.6270    5.6970 o         1 BRK     -0.601100
     11 CAY         2.1040   -0.0320    6.4460 cc        1 BRK     -0.344600
     12 SAQ         0.5320    0.5520    6.1200 ss        1 BRK     -0.089800
     13 CAV         2.3280   -0.1400    7.8290 cd        1 BRK      0.417000
     14 NAC         3.4510   -0.6770    8.4150 nv        1 BRK     -0.831600
     15 NAM         1.2470    0.3210    8.6000 na        1 BRK     -0.724000
     16 CAX         0.1190    0.6910    7.8190 cc        1 BRK      0.632100
     17 NAN        -0.9880    1.0390    8.4110 nf        1 BRK     -0.641100
     18 CAS        -2.1360    1.4690    7.7370 ca        1 BRK      0.130400
     19 CAE        -3.3560    1.4300    8.4650 ca        1 BRK     -0.105500
     20 CAG        -4.5390    1.8640    7.8940 ca        1 BRK     -0.171000
     21 CAT        -4.5410    2.3560    6.5740 ca        1 BRK      0.117100
     22 OAO        -5.7770    2.7560    6.1040 os        1 BRK     -0.325900
     23 CAA        -5.8030    3.2860    4.7840 c3        1 BRK      0.113700
     24 CAH        -3.3530    2.4130    5.8410 ca        1 BRK     -0.171000
     25 CAF        -2.1650    1.9720    6.4190 ca        1 BRK     -0.105500
     26 HAB1        0.2870   -1.1710   -0.3330 h1        1 BRK      0.046033
     27 HAB2       -0.3990    0.4920    0.0330 h1        1 BRK      0.046033
     28 HAB3        0.4490    0.1810   -1.5700 h1        1 BRK      0.046033
     29 HAJ         3.9270    0.9840    1.0350 ha        1 BRK      0.147000
     30 HAL         4.5780    0.6820    3.4450 ha        1 BRK      0.151500
     31 HAI         0.0400   -0.7450    1.9080 ha        1 BRK      0.147000
     32 HAK         0.6860   -1.0220    4.2790 ha        1 BRK      0.151500
     33 HAC1        4.2220   -0.8380    7.7960 hn        1 BRK      0.447300
     34 HAC2        3.6660   -0.4390    9.3540 hn        1 BRK      0.447300
     35 HAM         1.1860    0.1950    9.5830 hn        1 BRK      0.466800
     36 HAE        -3.3630    1.0510    9.4990 ha        1 BRK      0.144500
     37 HAG        -5.4840    1.8310    8.4560 ha        1 BRK      0.144500
     38 HAA1       -6.8810    3.5470    4.6300 h1        1 BRK      0.044033
     39 HAA2       -5.4740    2.5160    4.0440 h1        1 BRK      0.044033
     40 HAA3       -5.1620    4.1970    4.7110 h1        1 BRK      0.044033
     41 HAH        -3.3380    2.8030    4.8140 ha        1 BRK      0.144500
     42 HAF        -1.2390    2.0530    5.8250 ha        1 BRK      0.144500
@<TRIPOS>BOND
     1    1    2 1   
     2    1   26 1   
     3    1   27 1   
     4    1   28 1   
     5    2    3 1   
     6    3    4 ar  
     7    3    6 ar  
     8    4    5 ar  
     9    4   29 1   
    10    5    8 ar  
    11    5   30 1   
    12    6    7 ar  
    13    6   31 1   
    14    7    8 ar  
    15    7   32 1   
    16    8    9 1   
    17    9   10 2   
    18    9   11 1   
    19   11   12 1   
    20   11   13 2   
    21   12   16 1   
    22   13   14 1   
    23   13   15 1   
    24   14   33 1   
    25   14   34 1   
    26   15   16 1   
    27   15   35 1   
    28   16   17 2   
    29   17   18 1   
    30   18   19 ar  
    31   18   25 ar  
    32   19   20 ar  
    33   19   36 1   
    34   20   21 ar  
    35   20   37 1   
    36   21   22 1   
    37   21   24 ar  
    38   22   23 1   
    39   23   38 1   
    40   23   39 1   
    41   23   40 1   
    42   24   25 ar  
    43   24   41 1   
    44   25   42 1   
@<TRIPOS>SUBSTRUCTURE
     1 BRK         1 TEMP              0 ****  ****    0 ROOT
