@<TRIPOS>MOLECULE
BRK
   43    45     1     0     0
SMALL
bcc


@<TRIPOS>ATOM
      1 CAB         0.5470   -0.1290   -0.5760 c3        1 BRK      0.105700
      2 OAP         1.8460    0.2040   -0.0840 os        1 BRK     -0.304900
      3 CAU         2.0500    0.0800    1.2640 ca        1 BRK      0.194100
      4 CAJ         3.3570    0.3910    1.6990 ca        1 BRK     -0.194000
      5 CAL         3.6640    0.2950    3.0450 ca        1 BRK     -0.033000
      6 CAI         1.0710   -0.3260    2.1860 ca        1 BRK     -0.194000
      7 CAK         1.3930   -0.4050    3.5350 ca        1 BRK     -0.033000
      8 CAW         2.6820   -0.0860    3.9830 ca        1 BRK     -0.241600
      9 CAR         3.0780   -0.1720    5.3860 c         1 BRK      0.642900
     10 OAD         4.2500   -0.4270    5.7300 o         1 BRK     -0.588100
     11 CAY         2.0690    0.0900    6.4340 cc        1 BRK     -0.142600
     12 SAQ         0.5380    0.7200    6.1270 ss        1 BRK      0.030200
     13 CAV         2.2740   -0.0760    7.7950 cd        1 BRK      0.099000
     14 NAC         3.5230   -0.5390    8.3950 n4        1 BRK     -0.706400
     15 NAM         1.2210    0.3580    8.6250 na        1 BRK     -0.672000
     16 CAX         0.0770    0.7310    7.8410 cc        1 BRK      0.566100
     17 NAN        -1.0440    1.0060    8.4180 nf        1 BRK     -0.546100
     18 CAS        -2.1990    1.4600    7.7740 ca        1 BRK      0.074400
     19 CAE        -3.3990    1.4460    8.5360 ca        1 BRK     -0.072500
     20 CAG        -4.5880    1.8890    7.9870 ca        1 BRK     -0.178500
     21 CAT        -4.6150    2.3690    6.6600 ca        1 BRK      0.164100
     22 OAO        -5.8480    2.7790    6.2180 os        1 BRK     -0.309900
     23 CAA        -5.9110    3.3090    4.8960 c3        1 BRK      0.107700
     24 CAH        -3.4410    2.4000    5.8960 ca        1 BRK     -0.178500
     25 CAF        -2.2480    1.9490    6.4510 ca        1 BRK     -0.072500
     26 HAB1       -0.2230    0.5480   -0.1340 h1        1 BRK      0.059033
     27 HAB2        0.6440    0.0440   -1.6790 h1        1 BRK      0.059033
     28 HAB3        0.3100   -1.1980   -0.3610 h1        1 BRK      0.059033
     29 HAJ         4.1130    0.6990    0.9600 ha        1 BRK      0.165000
     30 HAL         4.6860    0.5180    3.3960 ha        1 BRK      0.151500
     31 HAI         0.0570   -0.5890    1.8510 ha        1 BRK      0.165000
     32 HAK         0.6220   -0.7570    4.2430 ha        1 BRK      0.151500
     33 HAC1        4.2090   -0.7320    7.6310 hn        1 BRK      0.481467
     34 HAC2        3.9060    0.1910    9.0100 hn        1 BRK      0.481467
     35 HAM         1.0810   -0.0400    9.5300 hn        1 BRK      0.461800
     36 HAE        -3.3860    1.0800    9.5760 ha        1 BRK      0.142000
     37 HAG        -5.5200    1.8780    8.5730 ha        1 BRK      0.159500
     38 HAA1       -5.2630    4.2140    4.8040 h1        1 BRK      0.054700
     39 HAA2       -5.6190    2.5330    4.1490 h1        1 BRK      0.054700
     40 HAA3       -6.9920    3.5820    4.7830 h1        1 BRK      0.054700
     41 HAH        -3.4490    2.7830    4.8660 ha        1 BRK      0.159500
     42 HAF        -1.3360    2.0170    5.8320 ha        1 BRK      0.142000
     43 HAC3        3.3630   -1.3950    8.9360 hn        1 BRK      0.481467
@<TRIPOS>BOND
     1    1    2 1   
     2    1   26 1   
     3    1   27 1   
     4    1   28 1   
     5    2    3 1   
     6    3    4 ar  
     7    3    6 ar  
     8    4    5 ar  
     9    4   29 1   
    10    5    8 ar  
    11    5   30 1   
    12    6    7 ar  
    13    6   31 1   
    14    7    8 ar  
    15    7   32 1   
    16    8    9 1   
    17    9   10 2   
    18    9   11 1   
    19   11   12 1   
    20   11   13 2   
    21   12   16 1   
    22   13   14 1   
    23   13   15 1   
    24   14   33 1   
    25   14   34 1   
    26   14   43 1   
    27   15   16 1   
    28   15   35 1   
    29   16   17 2   
    30   17   18 1   
    31   18   19 ar  
    32   18   25 ar  
    33   19   20 ar  
    34   19   36 1   
    35   20   21 ar  
    36   20   37 1   
    37   21   22 1   
    38   21   24 ar  
    39   22   23 1   
    40   23   38 1   
    41   23   39 1   
    42   23   40 1   
    43   24   25 ar  
    44   24   41 1   
    45   25   42 1   
@<TRIPOS>SUBSTRUCTURE
     1 BRK         1 TEMP              0 ****  ****    0 ROOT
