@<TRIPOS>MOLECULE
BRK
   42    44     1     0     0
SMALL
bcc


@<TRIPOS>ATOM
      1 CAB         3.4270    4.7730   -0.5160 c3        1 BRK      0.112700
      2 OAP         4.1460    3.8030    0.2380 os        1 BRK     -0.324900
      3 CAU         3.7470    2.4910    0.0840 ca        1 BRK      0.144100
      4 CAJ         4.4970    1.5550    0.8240 ca        1 BRK     -0.190500
      5 CAL         4.1730    0.2090    0.7360 ca        1 BRK     -0.057500
      6 CAI         2.6900    2.0740   -0.7340 ca        1 BRK     -0.190500
      7 CAK         2.3740    0.7180   -0.8020 ca        1 BRK     -0.057500
      8 CAW         3.1020   -0.2200   -0.0650 ca        1 BRK     -0.189600
      9 CAR         2.7980   -1.6690   -0.1250 c         1 BRK      0.647900
     10 OAD         3.7240   -2.5050   -0.1060 o         1 BRK     -0.601100
     11 CAY         1.4080   -2.0540   -0.1620 cc        1 BRK     -0.344600
     12 SAQ         0.1120   -0.9490   -0.0390 ss        1 BRK     -0.089800
     13 CAV         0.9420   -3.3770   -0.2340 cd        1 BRK      0.417000
     14 NAC         1.7250   -4.4890   -0.4460 nh        1 BRK     -0.831600
     15 NAM        -0.4560   -3.4770   -0.1160 na        1 BRK     -0.724000
     16 CAX        -1.1040   -2.2130   -0.0620 cc        1 BRK      0.632100
     17 NAN        -2.4060   -2.1570   -0.0560 nf        1 BRK     -0.641100
     18 CAS        -3.1390   -0.9690    0.0480 ca        1 BRK      0.130400
     19 CAE        -4.5020   -1.0250   -0.3510 ca        1 BRK     -0.105500
     20 CAG        -5.3160    0.0900   -0.2580 ca        1 BRK     -0.171000
     21 CAT        -4.7940    1.2980    0.2440 ca        1 BRK      0.117100
     22 OAO        -5.6930    2.3460    0.2880 os        1 BRK     -0.325900
     23 CAA        -5.2000    3.5710    0.8180 c3        1 BRK      0.113700
     24 CAH        -3.4600    1.3750    0.6510 ca        1 BRK     -0.171000
     25 CAF        -2.6430    0.2510    0.5510 ca        1 BRK     -0.105500
     26 HAB1        3.5280    4.5760   -1.6110 h1        1 BRK      0.046033
     27 HAB2        2.3500    4.7850   -0.2180 h1        1 BRK      0.046033
     28 HAB3        3.9250    5.7370   -0.2390 h1        1 BRK      0.046033
     29 HAJ         5.3280    1.9030    1.4530 ha        1 BRK      0.147000
     30 HAL         4.7600   -0.5400    1.2910 ha        1 BRK      0.151500
     31 HAI         2.1100    2.7960   -1.3240 ha        1 BRK      0.147000
     32 HAK         1.5510    0.3910   -1.4620 ha        1 BRK      0.151500
     33 HAC1        1.3800   -5.3800   -0.1780 hn        1 BRK      0.447300
     34 HAC2        2.7120   -4.3380   -0.3680 hn        1 BRK      0.447300
     35 HAM        -0.9580   -4.3180   -0.2770 hn        1 BRK      0.466800
     36 HAE        -4.9200   -1.9670   -0.7410 ha        1 BRK      0.144500
     37 HAG        -6.3700    0.0480   -0.5700 ha        1 BRK      0.144500
     38 HAA1       -6.0880    4.2520    0.7660 h1        1 BRK      0.044033
     39 HAA2       -4.8660    3.4390    1.8750 h1        1 BRK      0.044033
     40 HAA3       -4.3650    3.9650    0.1890 h1        1 BRK      0.044033
     41 HAH        -3.0420    2.3090    1.0520 ha        1 BRK      0.144500
     42 HAF        -1.6010    0.3350    0.9050 ha        1 BRK      0.144500
@<TRIPOS>BOND
     1    1    2 1   
     2    1   26 1   
     3    1   27 1   
     4    1   28 1   
     5    2    3 1   
     6    3    4 ar  
     7    3    6 ar  
     8    4    5 ar  
     9    4   29 1   
    10    5    8 ar  
    11    5   30 1   
    12    6    7 ar  
    13    6   31 1   
    14    7    8 ar  
    15    7   32 1   
    16    8    9 1   
    17    9   10 2   
    18    9   11 1   
    19   11   12 1   
    20   11   13 2   
    21   12   16 1   
    22   13   14 1   
    23   13   15 1   
    24   14   33 1   
    25   14   34 1   
    26   15   16 1   
    27   15   35 1   
    28   16   17 2   
    29   17   18 1   
    30   18   19 ar  
    31   18   25 ar  
    32   19   20 ar  
    33   19   36 1   
    34   20   21 ar  
    35   20   37 1   
    36   21   22 1   
    37   21   24 ar  
    38   22   23 1   
    39   23   38 1   
    40   23   39 1   
    41   23   40 1   
    42   24   25 ar  
    43   24   41 1   
    44   25   42 1   
@<TRIPOS>SUBSTRUCTURE
     1 BRK         1 TEMP              0 ****  ****    0 ROOT
