@<TRIPOS>MOLECULE
BRK
   42    37     1     0     0
SMALL
bcc


@<TRIPOS>ATOM
      1 CAB         4.8860   -1.0080   -5.7380 c3        1 BRK     -0.078000
      2 OAP         4.4060    0.3340   -5.9190 os        1 BRK     -0.208000
      3 CAU         3.4380    0.7440   -4.9430 c2        1 BRK      0.099000
      4 CAJ         3.8290    0.9520   -3.6150 c2        1 BRK     -0.211000
      5 CAL         2.9230    1.4580   -2.6960 c1        1 BRK     -0.069000
      6 CAI         2.1600    1.0400   -5.3340 c1        1 BRK     -0.166000
      7 CAK         1.2490    1.5480   -4.4120 c1        1 BRK     -0.050000
      8 CAW         1.6370    1.7550   -3.0900 c1        1 BRK     -0.169000
      9 CAR         0.6530    2.4040   -2.0920 c2        1 BRK      0.368000
     10 OAD         0.2890    3.5280   -2.2620 o         1 BRK     -0.362000
     11 CAY         0.0480    1.5640   -0.9560 c2        1 BRK     -0.581000
     12 SAQ        -1.3810    1.0430   -0.8990 ss        1 BRK      0.467000
     13 CAV         0.6580    1.3070    0.3150 c1        1 BRK      0.260000
     14 NAC         1.9680    1.7020    0.7040 n2        1 BRK     -0.348000
     15 NAM        -0.3990    0.5960    1.2380 n2        1 BRK     -0.327000
     16 CAX        -1.6000    0.4450    0.5100 c2        1 BRK     -0.037000
     17 NAN        -2.7220   -0.1180    0.9600 n1        1 BRK     -0.198000
     18 CAS        -2.7750   -0.6210    2.2640 c1        1 BRK     -0.021000
     19 CAE        -3.1610    0.2000    3.3000 c2        1 BRK     -0.144000
     20 CAG        -3.3420   -0.3280    4.5800 c1        1 BRK     -0.191000
     21 CAT        -3.1340   -1.6800    4.8100 c1        1 BRK      0.067000
     22 OAO        -3.2290   -2.1920    6.1140 os        1 BRK     -0.209000
     23 CAA        -4.4970   -2.6160    6.4570 c3        1 BRK     -0.076000
     24 CAH        -2.7490   -2.4990    3.7790 c1        1 BRK     -0.145000
     25 CAF        -2.5670   -1.9700    2.4930 c1        1 BRK     -0.089000
     26 HAB1        5.4180   -1.0570   -4.9130 h1        1 BRK      0.086000
     27 HAB2        4.1140   -1.6290   -5.6740 h1        1 BRK      0.086000
     28 HAB3        5.4420   -1.2590   -6.4980 h1        1 BRK      0.086000
     29 HAJ         4.7170    0.7480   -3.3430 ha        1 BRK      0.142000
     30 HAL         3.2020    1.6050   -1.7500 ha        1 BRK      0.151000
     31 HAI         1.8970    0.8990   -6.2270 ha        1 BRK      0.153000
     32 HAK         0.3550    1.7540   -4.6860 ha        1 BRK      0.152000
     33 HAC1        2.4790    1.1450    1.1570 hn        1 BRK      0.245000
     34 HAC2        2.3040    2.5570    0.4520 hn        1 BRK      0.245000
     35 HAM        -0.2600    0.3240    2.1040 DU        1 BRK      0.255000
     36 HAE        -3.3110    1.1720    3.1370 ha        1 BRK      0.131000
     37 HAG        -3.6200    0.2620    5.3220 ha        1 BRK      0.137000
     38 HAA1       -4.8330   -3.2540    5.7650 h1        1 BRK      0.083333
     39 HAA2       -5.1140   -1.8220    6.5080 h1        1 BRK      0.083333
     40 HAA3       -4.4660   -3.0790    7.3590 h1        1 BRK      0.083333
     41 HAH        -2.6070   -3.4250    3.9360 ha        1 BRK      0.151000
     42 HAF        -2.3020   -2.5330    1.7850 ha        1 BRK      0.149000
@<TRIPOS>BOND
     1    1    2 1   
     2    1   26 1   
     3    1   27 1   
     4    1   28 1   
     5    2    3 1   
     6    3    4 1   
     7    3    6 1   
     8    4    5 1   
     9    4   29 1   
    10    5   30 1   
    11    6   31 1   
    12    7    8 1   
    13    7   32 1   
    14    8    9 1   
    15    9   10 1   
    16    9   11 1   
    17   11   12 1   
    18   11   13 1   
    19   12   16 1   
    20   13   15 1   
    21   14   33 1   
    22   14   34 1   
    23   15   16 1   
    24   16   17 1   
    25   18   19 1   
    26   18   25 1   
    27   19   20 1   
    28   19   36 1   
    29   20   37 1   
    30   21   22 1   
    31   21   24 1   
    32   22   23 1   
    33   23   38 1   
    34   23   39 1   
    35   23   40 1   
    36   24   41 1   
    37   25   42 1   
@<TRIPOS>SUBSTRUCTURE
     1 BRK         1 TEMP              0 ****  ****    0 ROOT
