@<TRIPOS>MOLECULE
BRL
   44    46     1     0     0
SMALL
bcc


@<TRIPOS>ATOM
      1 S1         -0.9970   -0.8240    4.4760 ss        1 BRL     -0.169700
      2 O2         -1.9100   -0.8850    7.0070 o         1 BRL     -0.551500
      3 O4          2.0000    1.2350    5.8060 o         1 BRL     -0.573500
      4 O13         0.5380   -0.7160   -2.1280 os        1 BRL     -0.312900
      5 N3          0.0790    0.2250    6.6040 n         1 BRL     -0.616500
      6 N16         1.1710   -0.5440   -5.1090 nh        1 BRL     -0.754300
      7 N18        -1.1980   -0.9190   -4.9670 nb        1 BRL     -0.709000
      8 C2         -1.0430   -0.5200    6.2070 c         1 BRL      0.714100
      9 C4          0.9780    0.5740    5.5900 c         1 BRL      0.699500
     10 C5          0.5600    0.0430    4.2260 c3        1 BRL     -0.079600
     11 C6          0.4550    1.1610    3.2080 c3        1 BRL     -0.014100
     12 C7          0.5010    0.6470    1.8120 ca        1 BRL     -0.138300
     13 C8         -0.6610    0.6080    1.0300 ca        1 BRL     -0.085500
     14 C9         -0.6200    0.1500   -0.2800 ca        1 BRL     -0.180500
     15 C10         0.6080   -0.2780   -0.8220 ca        1 BRL      0.135100
     16 C11         1.7770   -0.2420   -0.0510 ca        1 BRL     -0.180500
     17 C12         1.7130    0.2220    1.2610 ca        1 BRL     -0.085500
     18 C14         1.7730   -1.1340   -2.7150 c3        1 BRL      0.091400
     19 C15         1.4460   -1.5850   -4.1480 c3        1 BRL      0.203800
     20 C16         2.2300    0.4150   -5.3020 c3        1 BRL      0.182100
     21 C17        -0.1550   -0.0820   -5.2870 ca        1 BRL      0.654200
     22 C19        -2.4420   -0.5020   -5.2340 ca        1 BRL      0.433200
     23 C20        -2.7630    0.7370   -5.8140 ca        1 BRL     -0.293300
     24 C21        -1.7090    1.5920   -6.1310 ca        1 BRL     -0.063000
     25 C22        -0.3990    1.2000   -5.8700 ca        1 BRL     -0.301300
     26 HN3         0.2220    0.4980    7.5490 hn        1 BRL      0.354500
     27 H5          1.3270   -0.7050    3.8880 h1        1 BRL      0.125700
     28 H61         1.3170    1.8670    3.3740 hc        1 BRL      0.074700
     29 H62        -0.4920    1.7390    3.3790 hc        1 BRL      0.074700
     30 H8         -1.6200    0.9430    1.4570 ha        1 BRL      0.137000
     31 H9         -1.5260    0.1130   -0.9020 ha        1 BRL      0.147000
     32 H11         2.7410   -0.5720   -0.4630 ha        1 BRL      0.147000
     33 H12         2.6310    0.2580    1.8670 ha        1 BRL      0.137000
     34 H141        2.1870   -2.0030   -2.1400 h1        1 BRL      0.042700
     35 H142        2.5060   -0.2850   -2.7010 h1        1 BRL      0.042700
     36 H151        0.5870   -2.3110   -4.1040 h1        1 BRL      0.079200
     37 H152        2.3560   -2.1420   -4.5210 h1        1 BRL      0.079200
     38 H161        3.2170   -0.0760   -5.0910 h1        1 BRL      0.040033
     39 H162        2.2260    0.7550   -6.3720 h1        1 BRL      0.040033
     40 H163        2.1290    1.3140   -4.6350 h1        1 BRL      0.040033
     41 H19        -3.2390   -1.2190   -4.9580 h4        1 BRL      0.019100
     42 H20        -3.8060    1.0140   -6.0050 ha        1 BRL      0.142000
     43 H21        -1.9050    2.5750   -6.5830 ha        1 BRL      0.134000
     44 H22         0.4220    1.8850   -6.1170 ha        1 BRL      0.140000
@<TRIPOS>BOND
     1    1    8 1   
     2    1   10 1   
     3    2    8 2   
     4    3    9 2   
     5    4   15 1   
     6    4   18 1   
     7    5    8 1   
     8    5    9 1   
     9    5   26 1   
    10    6   19 1   
    11    6   20 1   
    12    6   21 1   
    13    7   21 ar  
    14    7   22 ar  
    15    9   10 1   
    16   10   11 1   
    17   10   27 1   
    18   11   12 1   
    19   11   28 1   
    20   11   29 1   
    21   12   13 ar  
    22   12   17 ar  
    23   13   14 ar  
    24   13   30 1   
    25   14   15 ar  
    26   14   31 1   
    27   15   16 ar  
    28   16   17 ar  
    29   16   32 1   
    30   17   33 1   
    31   18   19 1   
    32   18   34 1   
    33   18   35 1   
    34   19   36 1   
    35   19   37 1   
    36   20   38 1   
    37   20   39 1   
    38   20   40 1   
    39   21   25 ar  
    40   22   23 ar  
    41   22   41 1   
    42   23   24 ar  
    43   23   42 1   
    44   24   25 ar  
    45   24   43 1   
    46   25   44 1   
@<TRIPOS>SUBSTRUCTURE
     1 BRL         1 TEMP              0 ****  ****    0 ROOT
