@<TRIPOS>MOLECULE
BRL
   45    47     1     0     0
SMALL
bcc


@<TRIPOS>ATOM
      1 S1          0.6300   -0.1900    0.2520 ss        1 BRL     -0.197700
      2 O2          3.2390    0.2040   -0.2720 o         1 BRL     -0.530500
      3 O4          1.4050    0.7300    3.9290 o         1 BRL     -0.562500
      4 O13        -5.8930   -1.8760    0.8850 os        1 BRL     -0.379900
      5 N3          2.5140    0.5290    1.9050 n         1 BRL     -0.609500
      6 N16        -8.5250   -2.3880    0.0690 n4        1 BRL     -0.659100
      7 N18       -10.2390   -2.0710   -1.6310 nb        1 BRL     -0.652000
      8 C2          2.3250    0.2030    0.5530 c         1 BRL      0.725100
      9 C4          1.3790    0.4770    2.7200 c         1 BRL      0.700500
     10 C5          0.1200    0.0890    1.9520 c3        1 BRL     -0.082600
     11 C6         -0.5430   -1.1200    2.5770 c3        1 BRL     -0.027100
     12 C7         -1.9510   -1.2840    2.1190 ca        1 BRL     -0.090300
     13 C8         -2.2880   -2.2980    1.2150 ca        1 BRL     -0.087000
     14 C9         -3.6040   -2.4640    0.7910 ca        1 BRL     -0.155500
     15 C10        -4.5890   -1.6040    1.2970 ca        1 BRL      0.091100
     16 C11        -4.2750   -0.5880    2.2050 ca        1 BRL     -0.155500
     17 C12        -2.9500   -0.4350    2.6100 ca        1 BRL     -0.087000
     18 C14        -6.7600   -0.7440    0.8290 c3        1 BRL      0.105400
     19 C15        -7.8460   -1.0750   -0.1990 c3        1 BRL      0.109800
     20 C16        -9.4480   -2.3070    1.2330 c3        1 BRL      0.092100
     21 C17        -9.2400   -2.8650   -1.1450 ca        1 BRL      0.452200
     22 C19       -10.8820   -2.5070   -2.7220 ca        1 BRL      0.431200
     23 C20       -10.5790   -3.7240   -3.3750 ca        1 BRL     -0.188300
     24 C21        -9.5570   -4.5160   -2.8640 ca        1 BRL     -0.070000
     25 C22        -8.8600   -4.0930   -1.7230 ca        1 BRL     -0.203300
     26 HN3         3.4080    0.7770    2.2660 hn        1 BRL      0.363500
     27 H5         -0.5840    0.9630    1.9700 h1        1 BRL      0.120700
     28 H61        -0.5290   -0.9900    3.6980 hc        1 BRL      0.084700
     29 H62         0.0520   -2.0440    2.3410 hc        1 BRL      0.084700
     30 H8         -1.5060   -2.9710    0.8270 ha        1 BRL      0.155000
     31 H9         -3.8730   -3.2570    0.0810 ha        1 BRL      0.144000
     32 H11        -5.0520    0.0780    2.6030 ha        1 BRL      0.144000
     33 H12        -2.6900    0.3580    3.3300 ha        1 BRL      0.155000
     34 H141       -6.2170    0.1770    0.4840 h1        1 BRL      0.080200
     35 H142       -7.1920   -0.5680    1.8500 h1        1 BRL      0.080200
     36 H151       -7.3800   -1.1420   -1.2240 hx        1 BRL      0.118700
     37 H152       -8.6230   -0.2580   -0.2000 hx        1 BRL      0.118700
     38 H161       -9.9610   -3.2960    1.3650 hx        1 BRL      0.105700
     39 H162       -8.8470   -2.0630    2.1500 hx        1 BRL      0.105700
     40 H163      -10.2180   -1.5090    1.0580 hx        1 BRL      0.105700
     41 H19       -11.6880   -1.8410   -3.0930 h4        1 BRL      0.063100
     42 H20       -11.1470   -4.0260   -4.2690 ha        1 BRL      0.184000
     43 H21        -9.2870   -5.4720   -3.3440 ha        1 BRL      0.179000
     44 H22        -8.0470   -4.7120   -1.3120 ha        1 BRL      0.169000
     45 H164       -7.7860   -3.0780    0.2830 hn        1 BRL      0.470800
@<TRIPOS>BOND
     1    1    8 1   
     2    1   10 1   
     3    2    8 2   
     4    3    9 2   
     5    4   15 1   
     6    4   18 1   
     7    5    8 1   
     8    5    9 1   
     9    5   26 1   
    10    6   19 1   
    11    6   20 1   
    12    6   21 1   
    13    6   45 1   
    14    7   21 ar  
    15    7   22 ar  
    16    9   10 1   
    17   10   11 1   
    18   10   27 1   
    19   11   12 1   
    20   11   28 1   
    21   11   29 1   
    22   12   13 ar  
    23   12   17 ar  
    24   13   14 ar  
    25   13   30 1   
    26   14   15 ar  
    27   14   31 1   
    28   15   16 ar  
    29   16   17 ar  
    30   16   32 1   
    31   17   33 1   
    32   18   19 1   
    33   18   34 1   
    34   18   35 1   
    35   19   36 1   
    36   19   37 1   
    37   20   38 1   
    38   20   39 1   
    39   20   40 1   
    40   21   25 ar  
    41   22   23 ar  
    42   22   41 1   
    43   23   24 ar  
    44   23   42 1   
    45   24   25 ar  
    46   24   43 1   
    47   25   44 1   
@<TRIPOS>SUBSTRUCTURE
     1 BRL         1 TEMP              0 ****  ****    0 ROOT
