@<TRIPOS>MOLECULE
BRL
   44    42     1     0     0
SMALL
bcc


@<TRIPOS>ATOM
      1 S1         -1.8280    4.5260   -2.6440 ss        1 BRL      0.179000
      2 O2         -1.4870    6.6530   -3.8910 o         1 BRL     -0.276000
      3 O4         -5.5310    4.4510   -2.9270 o         1 BRL     -0.296000
      4 O13        -0.7420   -2.0350   -0.2500 os        1 BRL     -0.222000
      5 N3         -3.7120    6.1300   -3.0020 n         1 BRL     -0.395000
      6 N16         1.8250   -2.7530    1.7210 n3        1 BRL     -0.230000
      7 N18         4.0680   -1.8480    1.4210 n1        1 BRL     -0.198000
      8 C2         -2.2400    5.8720   -3.3510 c2        1 BRL      0.190000
      9 C4         -4.3760    4.7050   -2.8130 c2        1 BRL      0.307000
     10 C5         -3.2010    3.6570   -2.4210 c3        1 BRL     -0.247000
     11 C6         -3.3430    3.0500   -0.9730 c3        1 BRL     -0.100000
     12 C7         -2.6040    1.7340   -0.9060 c2        1 BRL     -0.132000
     13 C8         -3.2350    0.5580   -1.3250 c2        1 BRL     -0.086000
     14 C9         -2.6040   -0.6780   -1.1420 c1        1 BRL     -0.161000
     15 C10        -1.3520   -0.7360   -0.5440 c1        1 BRL      0.092000
     16 C11        -0.7220    0.4420   -0.1250 c1        1 BRL     -0.201000
     17 C12        -1.3510    1.6740   -0.3070 c1        1 BRL     -0.088000
     18 C14         0.6880   -2.0380   -0.3410 c3        1 BRL     -0.055000
     19 C15         1.2590   -3.2370    0.4770 c3        1 BRL     -0.043000
     20 C16         0.9460   -2.3530    2.8140 c3        1 BRL     -0.104000
     21 C17         3.2710   -2.8120    1.9340 c2        1 BRL      0.096000
     22 C19         5.4290   -1.8670    1.6690 c1        1 BRL     -0.127000
     23 C20         5.9790   -2.8760    2.4450 c1        1 BRL     -0.127000
     24 C21         5.1710   -3.8560    2.9680 c1        1 BRL     -0.074000
     25 C22         3.8240   -3.8350    2.7210 c2        1 BRL     -0.197000
     26 HN3        -4.1830    6.8740   -3.2870 hn        1 BRL      0.268000
     27 H5         -3.2240    2.8460   -2.9830 h1        1 BRL      0.167000
     28 H61        -2.9620    3.6690   -0.3210 hc        1 BRL      0.114000
     29 H62        -4.3090    2.9020   -0.7670 hc        1 BRL      0.114000
     30 H8         -4.1150    0.5990   -1.7440 ha        1 BRL      0.137000
     31 H9         -3.0470   -1.5040   -1.4380 ha        1 BRL      0.150000
     32 H11         0.1460    0.4020    0.2910 ha        1 BRL      0.145000
     33 H12        -0.8980    2.5180   -0.0070 ha        1 BRL      0.143000
     34 H141        1.0330   -1.2130    0.0140 h1        1 BRL      0.095500
     35 H142        0.9560   -2.1270   -1.2870 h1        1 BRL      0.095500
     36 H151        0.5400   -3.8700    0.6720 h1        1 BRL      0.112500
     37 H152        1.9600   -3.6880   -0.0470 h1        1 BRL      0.112500
     38 H161        1.0310   -1.3790    2.9650 h1        1 BRL      0.084333
     39 H162        1.2000   -2.8360    3.6330 h1        1 BRL      0.084333
     40 H163        0.0030   -2.5720    2.5790 h1        1 BRL      0.084333
     41 H19         5.9930   -1.1820    1.3030 ha        1 BRL      0.150000
     42 H20         6.9070   -2.8890    2.6140 ha        1 BRL      0.150000
     43 H21         5.5610   -4.5770    3.5230 ha        1 BRL      0.138000
     44 H22         3.2740   -4.5000    3.0760 ha        1 BRL      0.148000
@<TRIPOS>BOND
     1    1    8 1   
     2    1   10 1   
     3    2    8 1   
     4    3    9 1   
     5    4   15 1   
     6    4   18 1   
     7    5    8 1   
     8    5    9 1   
     9    5   26 1   
    10    6   19 1   
    11    6   20 1   
    12    6   21 1   
    13    7   21 1   
    14    9   10 1   
    15   10   11 1   
    16   10   27 1   
    17   11   12 1   
    18   11   28 1   
    19   11   29 1   
    20   12   13 1   
    21   12   17 1   
    22   13   14 1   
    23   13   30 1   
    24   14   31 1   
    25   15   16 1   
    26   16   32 1   
    27   17   33 1   
    28   18   19 1   
    29   18   34 1   
    30   18   35 1   
    31   19   36 1   
    32   19   37 1   
    33   20   38 1   
    34   20   39 1   
    35   20   40 1   
    36   21   25 1   
    37   22   23 1   
    38   22   41 1   
    39   23   42 1   
    40   24   25 1   
    41   24   43 1   
    42   25   44 1   
@<TRIPOS>SUBSTRUCTURE
     1 BRL         1 TEMP              0 ****  ****    0 ROOT
