@<TRIPOS>MOLECULE
BRL
   44    46     1     0     0
SMALL
bcc


@<TRIPOS>ATOM
      1 S1          0.3790    0.3150    0.0920 ss        1 BRL     -0.169700
      2 O2          3.0030    0.7700   -0.2860 o         1 BRL     -0.551500
      3 O4          1.2480   -0.5430    3.7660 o         1 BRL     -0.573500
      4 O13        -6.2640   -1.0360    0.2700 os        1 BRL     -0.312900
      5 N3          2.3130    0.1240    1.8250 n         1 BRL     -0.616500
      6 N16        -9.2230   -1.7800    0.3300 nh        1 BRL     -0.754300
      7 N18        -8.5500   -1.9760   -1.9690 nb        1 BRL     -0.709000
      8 C2          2.0880    0.4460    0.4770 c         1 BRL      0.714100
      9 C4          1.1840   -0.2310    2.5710 c         1 BRL      0.699500
     10 C5         -0.1000   -0.1730    1.7570 c3        1 BRL     -0.079600
     11 C6         -0.8360   -1.4970    1.7940 c3        1 BRL     -0.014100
     12 C7         -2.2660   -1.3500    1.4110 ca        1 BRL     -0.138300
     13 C8         -2.7170   -1.7940    0.1600 ca        1 BRL     -0.085500
     14 C9         -4.0550   -1.6780   -0.1930 ca        1 BRL     -0.180500
     15 C10        -4.9630   -1.1060    0.7200 ca        1 BRL      0.135100
     16 C11        -4.5250   -0.6600    1.9740 ca        1 BRL     -0.180500
     17 C12        -3.1780   -0.7870    2.3080 ca        1 BRL     -0.085500
     18 C14        -7.2150   -0.4850    1.1840 c3        1 BRL      0.091400
     19 C15        -8.5740   -0.4980    0.4650 c3        1 BRL      0.203800
     20 C16        -9.5010   -2.4660    1.5660 c3        1 BRL      0.182100
     21 C17        -8.9670   -2.5830   -0.8070 ca        1 BRL      0.654200
     22 C19        -8.4080   -2.7390   -3.0600 ca        1 BRL      0.433200
     23 C20        -8.6470   -4.1230   -3.1040 ca        1 BRL     -0.293300
     24 C21        -9.0600   -4.7430   -1.9270 ca        1 BRL     -0.063000
     25 C22        -9.2210   -3.9900   -0.7680 ca        1 BRL     -0.301300
     26 HN3         3.2230    0.1370    2.2240 hn        1 BRL      0.354500
     27 H5         -0.7540    0.6340    2.1840 h1        1 BRL      0.125700
     28 H61        -0.7710   -1.9050    2.8430 hc        1 BRL      0.074700
     29 H62        -0.3260   -2.2320    1.1150 hc        1 BRL      0.074700
     30 H8         -2.0060   -2.2400   -0.5520 ha        1 BRL      0.137000
     31 H9         -4.4200   -2.0210   -1.1720 ha        1 BRL      0.147000
     32 H11        -5.2230   -0.2140    2.6950 ha        1 BRL      0.147000
     33 H12        -2.8320   -0.4430    3.2950 ha        1 BRL      0.137000
     34 H141       -6.9350    0.5750    1.4240 h1        1 BRL      0.042700
     35 H142       -7.2340   -1.0950    2.1240 h1        1 BRL      0.042700
     36 H151       -9.2630    0.1550    1.0770 h1        1 BRL      0.079200
     37 H152       -8.4450   -0.0180   -0.5460 h1        1 BRL      0.079200
     38 H161      -10.4530   -3.0510    1.4550 h1        1 BRL      0.040033
     39 H162       -8.6770   -3.1670    1.8700 h1        1 BRL      0.040033
     40 H163       -9.6460   -1.7110    2.3840 h1        1 BRL      0.040033
     41 H19        -8.0740   -2.1950   -3.9630 h4        1 BRL      0.019100
     42 H20        -8.5090   -4.6860   -4.0340 ha        1 BRL      0.142000
     43 H21        -9.2570   -5.8250   -1.9070 ha        1 BRL      0.134000
     44 H22        -9.5390   -4.4900    0.1550 ha        1 BRL      0.140000
@<TRIPOS>BOND
     1    1    8 1   
     2    1   10 1   
     3    2    8 2   
     4    3    9 2   
     5    4   15 1   
     6    4   18 1   
     7    5    8 1   
     8    5    9 1   
     9    5   26 1   
    10    6   19 1   
    11    6   20 1   
    12    6   21 1   
    13    7   21 ar  
    14    7   22 ar  
    15    9   10 1   
    16   10   11 1   
    17   10   27 1   
    18   11   12 1   
    19   11   28 1   
    20   11   29 1   
    21   12   13 ar  
    22   12   17 ar  
    23   13   14 ar  
    24   13   30 1   
    25   14   15 ar  
    26   14   31 1   
    27   15   16 ar  
    28   16   17 ar  
    29   16   32 1   
    30   17   33 1   
    31   18   19 1   
    32   18   34 1   
    33   18   35 1   
    34   19   36 1   
    35   19   37 1   
    36   20   38 1   
    37   20   39 1   
    38   20   40 1   
    39   21   25 ar  
    40   22   23 ar  
    41   22   41 1   
    42   23   24 ar  
    43   23   42 1   
    44   24   25 ar  
    45   24   43 1   
    46   25   44 1   
@<TRIPOS>SUBSTRUCTURE
     1 BRL         1 TEMP              0 ****  ****    0 ROOT
