@<TRIPOS>MOLECULE
BRL
   44    46     1     0     0
SMALL
bcc


@<TRIPOS>ATOM
      1 S1          0.3760    0.3250    0.0910 ss        1 BRL     -0.169700
      2 O2          2.9990    0.7860   -0.2880 o         1 BRL     -0.551500
      3 O4          1.2480   -0.5360    3.7630 o         1 BRL     -0.573500
      4 O13        -6.2640   -1.0400    0.2710 os        1 BRL     -0.312900
      5 N3          2.3120    0.1360    1.8230 ns        1 BRL     -0.616500
      6 N16        -9.2230   -1.7860    0.3320 nh        1 BRL     -0.754300
      7 N18        -8.5500   -1.9800   -1.9670 nb        1 BRL     -0.709000
      8 C2          2.0860    0.4590    0.4750 c         1 BRL      0.714100
      9 C4          1.1830   -0.2220    2.5690 c         1 BRL      0.699500
     10 C5         -0.1010   -0.1660    1.7550 c3        1 BRL     -0.079600
     11 C6         -0.8340   -1.4920    1.7910 c3        1 BRL     -0.014100
     12 C7         -2.2650   -1.3470    1.4090 ca        1 BRL     -0.138300
     13 C8         -2.7160   -1.7900    0.1580 ca        1 BRL     -0.085500
     14 C9         -4.0540   -1.6760   -0.1940 ca        1 BRL     -0.180500
     15 C10        -4.9630   -1.1080    0.7210 ca        1 BRL      0.135100
     16 C11        -4.5250   -0.6630    1.9740 ca        1 BRL     -0.180500
     17 C12        -3.1780   -0.7880    2.3080 ca        1 BRL     -0.085500
     18 C14        -7.2150   -0.4900    1.1860 c3        1 BRL      0.091400
     19 C15        -8.5740   -0.5030    0.4670 c3        1 BRL      0.203800
     20 C16        -9.5010   -2.4730    1.5680 c3        1 BRL      0.182100
     21 C17        -8.9670   -2.5880   -0.8060 ca        1 BRL      0.654200
     22 C19        -8.4070   -2.7420   -3.0590 ca        1 BRL      0.433200
     23 C20        -8.6470   -4.1270   -3.1040 ca        1 BRL     -0.293300
     24 C21        -9.0600   -4.7480   -1.9270 ca        1 BRL     -0.063000
     25 C22        -9.2200   -3.9950   -0.7680 ca        1 BRL     -0.301300
     26 HN3         3.2220    0.1500    2.2220 hn        1 BRL      0.354500
     27 H5         -0.7570    0.6390    2.1830 h1        1 BRL      0.125700
     28 H61        -0.3230   -2.2250    1.1110 hc        1 BRL      0.074700
     29 H62        -0.7680   -1.9010    2.8390 hc        1 BRL      0.074700
     30 H8         -2.0040   -2.2330   -0.5550 ha        1 BRL      0.137000
     31 H9         -4.4190   -2.0190   -1.1730 ha        1 BRL      0.147000
     32 H11        -5.2230   -0.2190    2.6970 ha        1 BRL      0.147000
     33 H12        -2.8310   -0.4440    3.2950 ha        1 BRL      0.137000
     34 H141       -6.9360    0.5690    1.4270 h1        1 BRL      0.042700
     35 H142       -7.2330   -1.1020    2.1260 h1        1 BRL      0.042700
     36 H151       -8.4460   -0.0240   -0.5430 h1        1 BRL      0.079200
     37 H152       -9.2640    0.1490    1.0800 h1        1 BRL      0.079200
     38 H161       -9.6450   -1.7180    2.3860 h1        1 BRL      0.040033
     39 H162       -8.6760   -3.1740    1.8700 h1        1 BRL      0.040033
     40 H163      -10.4530   -3.0580    1.4570 h1        1 BRL      0.040033
     41 H19        -8.0730   -2.1980   -3.9620 h4        1 BRL      0.019100
     42 H20        -8.5090   -4.6900   -4.0340 ha        1 BRL      0.142000
     43 H21        -9.2560   -5.8300   -1.9070 ha        1 BRL      0.134000
     44 H22        -9.5390   -4.4960    0.1550 ha        1 BRL      0.140000
@<TRIPOS>BOND
     1    1    8 1   
     2    1   10 1   
     3    2    8 2   
     4    3    9 2   
     5    4   15 1   
     6    4   18 1   
     7    5    8 1   
     8    5    9 1   
     9    5   26 1   
    10    6   19 1   
    11    6   20 1   
    12    6   21 1   
    13    7   21 ar  
    14    7   22 ar  
    15    9   10 1   
    16   10   11 1   
    17   10   27 1   
    18   11   12 1   
    19   11   28 1   
    20   11   29 1   
    21   12   13 ar  
    22   12   17 ar  
    23   13   14 ar  
    24   13   30 1   
    25   14   15 ar  
    26   14   31 1   
    27   15   16 ar  
    28   16   17 ar  
    29   16   32 1   
    30   17   33 1   
    31   18   19 1   
    32   18   34 1   
    33   18   35 1   
    34   19   36 1   
    35   19   37 1   
    36   20   38 1   
    37   20   39 1   
    38   20   40 1   
    39   21   25 ar  
    40   22   23 ar  
    41   22   41 1   
    42   23   24 ar  
    43   23   42 1   
    44   24   25 ar  
    45   24   43 1   
    46   25   44 1   
@<TRIPOS>SUBSTRUCTURE
     1 BRL         1 TEMP              0 ****  ****    0 ROOT
