@<TRIPOS>MOLECULE
BRM
    7     6     1     0     0
SMALL
bcc


@<TRIPOS>ATOM
      1 C1         -0.0200    0.0110    0.0890 c         1 BRM      0.918600
      2 O1          1.0420   -0.6610    0.1960 o         1 BRM     -0.826300
      3 O2         -0.5440    0.6880    1.0150 o         1 BRM     -0.826300
      4 C2         -0.7720   -0.0570   -1.2540 c3        1 BRM     -0.094000
      5 BR2        -0.2630    1.3130   -2.5250 br        1 BRM     -0.267400
      6 H21        -1.8620    0.0790   -1.0870 h1        1 BRM      0.047700
      7 H22        -0.5640   -1.0250   -1.7570 h1        1 BRM      0.047700
@<TRIPOS>BOND
     1    1    2 1   
     2    1    3 1   
     3    1    4 1   
     4    4    5 1   
     5    4    6 1   
     6    4    7 1   
@<TRIPOS>SUBSTRUCTURE
     1 BRM         1 TEMP              0 ****  ****    0 ROOT
