@<TRIPOS>MOLECULE
BRM
    7     6     1     0     0
SMALL
bcc


@<TRIPOS>ATOM
      1 C1         -1.4380   -1.5220    0.7290 c         1 BRM      0.918600
      2 O1         -1.0180   -2.6130    0.2550 o         1 BRM     -0.826300
      3 O2         -2.2120   -1.4130    1.7180 o         1 BRM     -0.826300
      4 C2         -1.0320   -0.2270   -0.0020 c3        1 BRM     -0.094000
      5 BR2         0.5970    0.5860    0.6610 br        1 BRM     -0.267400
      6 H21        -0.8460   -0.4390   -1.0760 h1        1 BRM      0.047700
      7 H22        -1.8230    0.5430    0.1220 h1        1 BRM      0.047700
@<TRIPOS>BOND
     1    1    2 1   
     2    1    3 1   
     3    1    4 1   
     4    4    5 1   
     5    4    6 1   
     6    4    7 1   
@<TRIPOS>SUBSTRUCTURE
     1 BRM         1 TEMP              0 ****  ****    0 ROOT
