@<TRIPOS>MOLECULE
BRM
    7     6     1     0     0
SMALL
bcc


@<TRIPOS>ATOM
      1 C1         -0.0370    0.0230    0.0970 c         1 BRM      0.918600
      2 O1          1.1450   -0.4060    0.1860 o         1 BRM     -0.826300
      3 O2         -0.7170    0.4770    1.0580 o         1 BRM     -0.826300
      4 C2         -0.7310   -0.0850   -1.2750 c3        1 BRM     -0.094000
      5 Br2        -0.5170    1.4760   -2.4010 br        1 BRM     -0.267400
      6 H21        -1.8260   -0.2080   -1.1380 h1        1 BRM      0.047700
      7 H22        -0.3020   -0.9310   -1.8510 h1        1 BRM      0.047700
@<TRIPOS>BOND
     1    1    2 1   
     2    1    3 1   
     3    1    4 1   
     4    4    5 1   
     5    4    6 1   
     6    4    7 1   
@<TRIPOS>SUBSTRUCTURE
     1 BRM         1 TEMP              0 ****  ****    0 ROOT
