@<TRIPOS>MOLECULE
BRM
    7     5     1     0     0
SMALL
bcc


@<TRIPOS>ATOM
      1 C1          0.3300   -0.0350    0.8130 c1        1 BRM      0.338000
      2 O1          1.5890   -0.0350    0.8130 o         1 BRM     -0.561000
      3 O2         -0.3000   -0.0350    1.9030 os        1 BRM     -0.561000
      4 C2         -0.4270   -0.0350   -0.4970 c3        1 BRM     -0.250000
      5 BR2         0.7530    0.4680   -1.9150 br        1 BRM     -0.140000
      6 H21        -0.7790   -0.9290   -0.6700 h1        1 BRM      0.087000
      7 H22        -1.1650    0.6020   -0.4470 h1        1 BRM      0.087000
@<TRIPOS>BOND
     1    1    2 1   
     2    1    4 1   
     3    4    5 1   
     4    4    6 1   
     5    4    7 1   
@<TRIPOS>SUBSTRUCTURE
     1 BRM         1 TEMP              0 ****  ****    0 ROOT
