@<TRIPOS>MOLECULE
BRN
   38    39     1     0     0
SMALL
bcc


@<TRIPOS>ATOM
      1 C1         -0.3520   -0.6090    0.6150 ca        1 BRN      0.231600
      2 C2          0.9380   -1.2040    0.6470 ca        1 BRN     -0.161000
      3 C3          1.9020   -0.7360    1.5260 ca        1 BRN     -0.055000
      4 C4          1.6150    0.3280    2.3910 ca        1 BRN     -0.299900
      5 C5          0.3470    0.9200    2.3700 ca        1 BRN     -0.055000
      6 C6         -0.6310    0.4610    1.4960 ca        1 BRN     -0.161000
      7 C7          2.6600    0.8750    3.2770 ce        1 BRN      0.592800
      8 NA          3.2670    1.9980    3.2820 n2        1 BRN     -0.702100
      9 NB          3.0470   -0.0980    4.3630 nz        1 BRN     -0.824600
     10 N1         -1.2970   -1.1380   -0.2850 nu        1 BRN     -0.448700
     11 N          -2.4850   -0.5620   -0.4700 n2        1 BRN      0.008300
     12 N1'        -3.1590   -0.9930   -1.4230 ne        1 BRN     -0.320400
     13 C1'        -4.4750   -0.4970   -1.6610 ca        1 BRN      0.200400
     14 C2'        -4.8630   -0.3500   -3.0140 ca        1 BRN     -0.109500
     15 C3'        -6.1640    0.0210   -3.3290 ca        1 BRN     -0.084500
     16 C4'        -7.0970    0.2520   -2.3100 ca        1 BRN     -0.263900
     17 C5'        -6.7220    0.1180   -0.9690 ca        1 BRN     -0.084500
     18 C6'        -5.4190   -0.2510   -0.6440 ca        1 BRN     -0.109500
     19 C7'        -8.4690    0.6890   -2.6420 ce        1 BRN      0.587800
     20 NA'        -9.0740    1.7970   -2.4570 n2        1 BRN     -0.699100
     21 NB'        -9.2590   -0.4030   -3.3170 nz        1 BRN     -0.823600
     22 H2          1.1910   -2.0370   -0.0310 ha        1 BRN      0.171500
     23 H3          2.9040   -1.1950    1.5130 ha        1 BRN      0.152000
     24 H5          0.1130    1.7610    3.0430 ha        1 BRN      0.152000
     25 H6         -1.6190    0.9500    1.5030 ha        1 BRN      0.171500
     26 HA          3.0490    2.6680    2.5740 hn        1 BRN      0.492400
     27 HB1         3.3000   -0.9880    3.9210 hn        1 BRN      0.471800
     28 HB2         2.2350   -0.2430    4.9720 hn        1 BRN      0.471800
     29 HN1        -0.9590   -1.8680   -0.8980 hn        1 BRN      0.459800
     30 H2'        -4.1370   -0.5270   -3.8270 ha        1 BRN      0.174000
     31 H3'        -6.4430    0.1540   -4.3870 ha        1 BRN      0.153000
     32 H5'        -7.4490    0.3070   -0.1620 ha        1 BRN      0.153000
     33 H6'        -5.1410   -0.3540    0.4180 ha        1 BRN      0.174000
     34 HA'        -8.5840    2.5510   -2.0210 hn        1 BRN      0.492400
     35 HB'1       -9.3890   -1.1690   -2.6480 hn        1 BRN      0.472800
     36 HB'2       -8.7180   -0.7430   -4.1190 hn        1 BRN      0.472800
     37 HB3         3.8370    0.2440    4.9260 hn        1 BRN      0.471800
     38 HB'3      -10.1800   -0.0720   -3.6380 hn        1 BRN      0.472800
@<TRIPOS>BOND
     1    1    2 ar  
     2    1    6 ar  
     3    1   10 1   
     4    2    3 ar  
     5    2   22 1   
     6    3    4 ar  
     7    3   23 1   
     8    4    5 ar  
     9    4    7 1   
    10    5    6 ar  
    11    5   24 1   
    12    6   25 1   
    13    7    8 2   
    14    7    9 1   
    15    8   26 1   
    16    9   27 1   
    17    9   28 1   
    18    9   37 1   
    19   10   11 1   
    20   10   29 1   
    21   11   12 2   
    22   12   13 1   
    23   13   14 ar  
    24   13   18 ar  
    25   14   15 ar  
    26   14   30 1   
    27   15   16 ar  
    28   15   31 1   
    29   16   17 ar  
    30   16   19 1   
    31   17   18 ar  
    32   17   32 1   
    33   18   33 1   
    34   19   20 2   
    35   19   21 1   
    36   20   34 1   
    37   21   35 1   
    38   21   36 1   
    39   21   38 1   
@<TRIPOS>SUBSTRUCTURE
     1 BRN         1 TEMP              0 ****  ****    0 ROOT
