@<TRIPOS>MOLECULE
BRN
   38    39     1     0     0
SMALL
bcc


@<TRIPOS>ATOM
      1 C1         -0.2400   -0.2220    0.4370 ca        1 BRN      0.234600
      2 C2          1.1450   -0.5150    0.3240 ca        1 BRN     -0.162000
      3 C3          1.9850   -0.3530    1.4140 ca        1 BRN     -0.054000
      4 C4          1.4780    0.1050    2.6370 ca        1 BRN     -0.300900
      5 C5          0.1150    0.4020    2.7580 ca        1 BRN     -0.054000
      6 C6         -0.7400    0.2450    1.6750 ca        1 BRN     -0.162000
      7 C7          2.3560    0.2140    3.8170 ce        1 BRN      0.593800
      8 NA          2.3970   -0.4450    4.9090 n2        1 BRN     -0.702100
      9 NB          3.3690    1.3210    3.6670 n4        1 BRN     -0.824600
     10 N1         -1.0480   -0.4200   -0.6990 nh        1 BRN     -0.451700
     11 N          -2.3620   -0.2060   -0.6740 n2        1 BRN      0.010300
     12 N1'        -2.9580   -0.3450   -1.7570 ne        1 BRN     -0.322400
     13 C1'        -4.3740   -0.1880   -1.8290 ca        1 BRN      0.200400
     14 C2'        -4.8890    0.3930   -3.0130 ca        1 BRN     -0.109500
     15 C3'        -6.2620    0.4760   -3.2070 ca        1 BRN     -0.085000
     16 C4'        -7.1430   -0.0130   -2.2340 ca        1 BRN     -0.263900
     17 C5'        -6.6450   -0.5800   -1.0560 ca        1 BRN     -0.085000
     18 C6'        -5.2700   -0.6650   -0.8510 ca        1 BRN     -0.109500
     19 C7'        -8.6020    0.1140   -2.4220 ce        1 BRN      0.587800
     20 NA'        -9.4760    0.8290   -1.8270 n2        1 BRN     -0.699100
     21 NB'        -9.1070   -0.7850   -3.5220 n4        1 BRN     -0.823600
     22 H2          1.5670   -0.8850   -0.6270 ha        1 BRN      0.171500
     23 H3          3.0510   -0.6130    1.3100 ha        1 BRN      0.152500
     24 H5         -0.2940    0.7580    3.7180 ha        1 BRN      0.152500
     25 H6         -1.8080    0.4860    1.8030 ha        1 BRN      0.171500
     26 HA          1.7510   -1.1950    5.0460 hn        1 BRN      0.492400
     27 HB1         4.0390    1.3420    4.4470 hn        1 BRN      0.471800
     28 HB2         2.8680    2.2150    3.6270 hn        1 BRN      0.471800
     29 HN1        -0.5670   -0.7060   -1.5410 hn        1 BRN      0.461800
     30 H2'        -4.2050    0.7830   -3.7870 ha        1 BRN      0.174000
     31 H3'        -6.6460    0.9510   -4.1240 ha        1 BRN      0.153000
     32 H5'        -7.3320   -0.9580   -0.2810 ha        1 BRN      0.153000
     33 H6'        -4.8960   -1.1180    0.0820 ha        1 BRN      0.174000
     34 HA'        -9.1820    1.4450   -1.0960 hn        1 BRN      0.492400
     35 HB'1      -10.1050   -0.6290   -3.7220 hn        1 BRN      0.473133
     36 HB'2       -8.9680   -1.7590   -3.2350 hn        1 BRN      0.473133
     37 HB3         3.8730    1.1770    2.7860 hn        1 BRN      0.471800
     38 HB'3       -8.5550   -0.5990   -4.3660 hn        1 BRN      0.473133
@<TRIPOS>BOND
     1    1    2 ar  
     2    1    6 ar  
     3    1   10 1   
     4    2    3 ar  
     5    2   22 1   
     6    3    4 ar  
     7    3   23 1   
     8    4    5 ar  
     9    4    7 1   
    10    5    6 ar  
    11    5   24 1   
    12    6   25 1   
    13    7    8 2   
    14    7    9 1   
    15    8   26 1   
    16    9   27 1   
    17    9   28 1   
    18    9   37 1   
    19   10   11 1   
    20   10   29 1   
    21   11   12 2   
    22   12   13 1   
    23   13   14 ar  
    24   13   18 ar  
    25   14   15 ar  
    26   14   30 1   
    27   15   16 ar  
    28   15   31 1   
    29   16   17 ar  
    30   16   19 1   
    31   17   18 ar  
    32   17   32 1   
    33   18   33 1   
    34   19   20 2   
    35   19   21 1   
    36   20   34 1   
    37   21   35 1   
    38   21   36 1   
    39   21   38 1   
@<TRIPOS>SUBSTRUCTURE
     1 BRN         1 TEMP              0 ****  ****    0 ROOT
