@<TRIPOS>MOLECULE
BRN
   36    37     1     0     0
SMALL
bcc


@<TRIPOS>ATOM
      1 C1         -0.7580    0.3200    2.3690 ca        1 BRN      0.177600
      2 C2         -1.5960    0.2780    3.5080 ca        1 BRN     -0.168500
      3 C3         -1.0470    0.1060    4.7720 ca        1 BRN     -0.077500
      4 C4          0.3340   -0.0410    4.9340 ca        1 BRN     -0.224900
      5 C5          1.1660   -0.0060    3.8120 ca        1 BRN     -0.077500
      6 C6          0.6350    0.1750    2.5390 ca        1 BRN     -0.168500
      7 C7          0.9010   -0.2090    6.3090 ce        1 BRN      0.642800
      8 NA          0.6140    0.5630    7.3160 n2        1 BRN     -0.835100
      9 NB          1.8460   -1.2510    6.4240 nh        1 BRN     -0.893800
     10 N1         -1.3580    0.5620    1.1070 nh        1 BRN     -0.446700
     11 N          -0.6880    0.3160   -0.0200 n2        1 BRN     -0.019700
     12 N1'        -1.3570    0.2580   -1.0680 ne        1 BRN     -0.330400
     13 C1'        -0.6910    0.1080   -2.3220 ca        1 BRN      0.148400
     14 C2'        -1.4390   -0.4780   -3.3670 ca        1 BRN     -0.122500
     15 C3'        -0.8850   -0.6070   -4.6360 ca        1 BRN     -0.100000
     16 C4'         0.4110   -0.1500   -4.8930 ca        1 BRN     -0.136900
     17 C5'         1.1620    0.4240   -3.8640 ca        1 BRN     -0.100000
     18 C6'         0.6200    0.5530   -2.5880 ca        1 BRN     -0.122500
     19 C7'         0.9920   -0.2910   -6.2660 ce        1 BRN      0.650800
     20 NA'         0.9330   -1.4510   -6.8460 n2        1 BRN     -0.824100
     21 NB'         1.6180    0.8790   -6.7530 nh        1 BRN     -0.958800
     22 H2         -2.6870    0.3860    3.4080 ha        1 BRN      0.147500
     23 H3         -1.7120    0.0800    5.6500 ha        1 BRN      0.148000
     24 H5          2.2560   -0.1130    3.9320 ha        1 BRN      0.148000
     25 H6          1.3180    0.2060    1.6760 ha        1 BRN      0.147500
     26 HA          0.0150    1.3260    7.0870 hn        1 BRN      0.394400
     27 HB1         2.1150   -1.4820    7.3560 hn        1 BRN      0.398300
     28 HB2         1.6210   -2.0460    5.8680 hn        1 BRN      0.398300
     29 HN1        -2.3680    0.5800    1.1190 hn        1 BRN      0.428800
     30 H2'        -2.4620   -0.8410   -3.1820 ha        1 BRN      0.148500
     31 H3'        -1.4710   -1.0830   -5.4390 ha        1 BRN      0.149500
     32 H5'         2.1920    0.7660   -4.0520 ha        1 BRN      0.149500
     33 H6'         1.2310    1.0090   -1.7930 ha        1 BRN      0.148500
     34 HA'         1.3290   -1.5140   -7.7600 hn        1 BRN      0.383400
     35 HB'1        1.7360    0.9460   -7.7370 hn        1 BRN      0.399800
     36 HB'2        1.3390    1.7260   -6.3160 hn        1 BRN      0.399800
@<TRIPOS>BOND
     1    1    2 ar  
     2    1    6 ar  
     3    1   10 1   
     4    2    3 ar  
     5    2   22 1   
     6    3    4 ar  
     7    3   23 1   
     8    4    5 ar  
     9    4    7 1   
    10    5    6 ar  
    11    5   24 1   
    12    6   25 1   
    13    7    8 2   
    14    7    9 1   
    15    8   26 1   
    16    9   27 1   
    17    9   28 1   
    18   10   11 1   
    19   10   29 1   
    20   11   12 2   
    21   12   13 1   
    22   13   14 ar  
    23   13   18 ar  
    24   14   15 ar  
    25   14   30 1   
    26   15   16 ar  
    27   15   31 1   
    28   16   17 ar  
    29   16   19 1   
    30   17   18 ar  
    31   17   32 1   
    32   18   33 1   
    33   19   20 2   
    34   19   21 1   
    35   20   34 1   
    36   21   35 1   
    37   21   36 1   
@<TRIPOS>SUBSTRUCTURE
     1 BRN         1 TEMP              0 ****  ****    0 ROOT
