@<TRIPOS>MOLECULE
BRN
   39    40     1     0     0
SMALL
bcc


@<TRIPOS>ATOM
      1 C1         -0.2870    0.9450    0.5400 ca        1 BRN      0.005600
      2 C2          0.6350   -0.0600    0.1990 ca        1 BRN     -0.085500
      3 C3          1.4300   -0.6250    1.1970 ca        1 BRN     -0.071500
      4 C4          1.3000   -0.2010    2.5250 ca        1 BRN     -0.199900
      5 C5          0.3650    0.7830    2.8630 ca        1 BRN     -0.071500
      6 C6         -0.4360    1.3590    1.8750 ca        1 BRN     -0.085500
      7 C7          2.0990   -0.8600    3.5920 ce        1 BRN      0.558800
      8 NA          1.8520   -1.9000    4.2860 n2        1 BRN     -0.656100
      9 NB          3.4010   -0.1640    3.8720 n4        1 BRN     -0.818600
     10 N1         -1.0770    1.6030   -0.5210 n4        1 BRN     -0.397500
     11 N          -2.5070    1.2910   -0.4880 n2        1 BRN     -0.047700
     12 N1'        -2.9450    0.6840   -1.4520 ne        1 BRN     -0.193400
     13 C1'        -4.3110    0.3740   -1.7000 ca        1 BRN      0.118400
     14 C2'        -4.5860   -0.2410   -2.9450 ca        1 BRN     -0.047000
     15 C3'        -5.9060   -0.5120   -3.3020 ca        1 BRN     -0.100000
     16 C4'        -6.9540   -0.1830   -2.4360 ca        1 BRN     -0.176900
     17 C5'        -6.6850    0.3950   -1.1900 ca        1 BRN     -0.100000
     18 C6'        -5.3710    0.6750   -0.8160 ca        1 BRN     -0.047000
     19 C7'        -8.3660   -0.3520   -2.8700 ce        1 BRN      0.557800
     20 NA'        -9.2370    0.5170   -3.2040 n2        1 BRN     -0.658100
     21 NB'        -8.8060   -1.7890   -2.9180 n4        1 BRN     -0.818600
     22 H2          0.7560   -0.4130   -0.8420 ha        1 BRN      0.187500
     23 H3          2.1510   -1.4150    0.9220 ha        1 BRN      0.187000
     24 H5          0.2390    1.1110    3.9110 ha        1 BRN      0.187000
     25 H6         -1.1710    2.1330    2.1630 ha        1 BRN      0.187500
     26 HA          1.0040   -2.4130    4.1530 hn        1 BRN      0.502400
     27 HB1         3.9680   -0.1560    3.0170 hn        1 BRN      0.483467
     28 HB2         3.9320   -0.6420    4.6210 hn        1 BRN      0.483467
     29 HN1        -0.6090    1.4190   -1.4300 hn        1 BRN      0.475300
     30 H2'        -3.7730   -0.4960   -3.6490 ha        1 BRN      0.187000
     31 H3'        -6.1070   -0.9610   -4.2910 ha        1 BRN      0.180500
     32 H5'        -7.5070    0.6510   -0.4970 ha        1 BRN      0.180500
     33 H6'        -5.1880    1.1410    0.1680 ha        1 BRN      0.187000
     34 HA'        -9.0130    1.4920   -3.2000 hn        1 BRN      0.504400
     35 HB'1       -8.1560   -2.3150   -3.5110 hn        1 BRN      0.481467
     36 HB'2       -9.7620   -1.8790   -3.3010 hn        1 BRN      0.481467
     37 HB3         3.2090    0.8000    4.1650 hn        1 BRN      0.483467
     38 H12        -1.0530    2.6260   -0.3410 hn        1 BRN      0.475300
     39 HB'3       -8.7920   -2.1740   -1.9670 hn        1 BRN      0.481467
@<TRIPOS>BOND
     1    1    2 ar  
     2    1    6 ar  
     3    1   10 1   
     4    2    3 ar  
     5    2   22 1   
     6    3    4 ar  
     7    3   23 1   
     8    4    5 ar  
     9    4    7 1   
    10    5    6 ar  
    11    5   24 1   
    12    6   25 1   
    13    7    8 2   
    14    7    9 1   
    15    8   26 1   
    16    9   27 1   
    17    9   28 1   
    18    9   37 1   
    19   10   11 1   
    20   10   29 1   
    21   10   38 1   
    22   11   12 2   
    23   12   13 1   
    24   13   14 ar  
    25   13   18 ar  
    26   14   15 ar  
    27   14   30 1   
    28   15   16 ar  
    29   15   31 1   
    30   16   17 ar  
    31   16   19 1   
    32   17   18 ar  
    33   17   32 1   
    34   18   33 1   
    35   19   20 2   
    36   19   21 1   
    37   20   34 1   
    38   21   35 1   
    39   21   36 1   
    40   21   39 1   
@<TRIPOS>SUBSTRUCTURE
     1 BRN         1 TEMP              0 ****  ****    0 ROOT
