@<TRIPOS>MOLECULE
BRN
   36    29     1     0     0
SMALL
bcc


@<TRIPOS>ATOM
      1 C1          1.6040    0.2810    0.7990 c1        1 BRN      0.100000
      2 C2          0.9880   -0.2380    1.9280 c1        1 BRN     -0.136000
      3 C3          1.6900   -0.3280    3.1210 c1        1 BRN     -0.136000
      4 C4          3.0080    0.1000    3.1850 c1        1 BRN     -0.125000
      5 C5          3.6240    0.6190    2.0570 c1        1 BRN     -0.091000
      6 C6          2.9230    0.7100    0.8640 c1        1 BRN     -0.153000
      7 C7          3.7860   -0.0390    4.4750 c2        1 BRN      0.115000
      8 NA          4.4130   -1.1530    4.7420 n1        1 BRN     -0.299500
      9 NB          3.8340    1.0390    5.3940 n3        1 BRN     -0.330500
     10 N1          0.9050    0.3110   -0.4430 n3        1 BRN     -0.310000
     11 N           1.3310    1.1510   -1.4540 n2        1 BRN      0.122000
     12 N1'         0.5870    1.3840   -2.4280 n1        1 BRN     -0.107000
     13 C1'        -0.7060    0.7830   -2.4990 c1        1 BRN     -0.058000
     14 C2'        -0.8220   -0.5750   -2.7540 c2        1 BRN     -0.154000
     15 C3'        -2.0710   -1.1350   -2.9840 c1        1 BRN     -0.089000
     16 C4'        -3.2050   -0.3360   -2.9570 c1        1 BRN     -0.125000
     17 C5'        -3.0910    1.0210   -2.7020 c1        1 BRN     -0.091000
     18 C6'        -1.8410    1.5820   -2.4720 c1        1 BRN     -0.101000
     19 C7'        -4.5780   -0.9610   -3.1430 c2        1 BRN      0.115000
     20 NA'        -5.1330   -0.9820   -4.3280 n1        1 BRN     -0.299500
     21 NB'        -5.2580   -1.5220   -2.0300 n3        1 BRN     -0.330500
     22 H2          0.0610   -0.5390    1.8830 ha        1 BRN      0.138000
     23 H3          1.2570   -0.6930    3.9150 ha        1 BRN      0.138000
     24 H5          4.5500    0.9200    2.1020 ha        1 BRN      0.149500
     25 H6          3.3560    1.0740    0.0700 ha        1 BRN      0.160000
     26 HA          4.3820   -1.8470    4.1500 DU        1 BRN      0.151500
     27 HB1         3.3690    1.8060    5.2230 hn        1 BRN      0.193500
     28 HB2         4.3100    0.9580    6.1700 hn        1 BRN      0.193500
     29 HN1         0.1950   -0.2440   -0.5810 hn        1 BRN      0.216000
     30 H2'        -0.0250   -1.1380   -2.7730 ha        1 BRN      0.145000
     31 H3'        -2.1520   -2.0920   -3.1640 ha        1 BRN      0.155000
     32 H5'        -3.8880    1.5840   -2.6830 ha        1 BRN      0.149500
     33 H6'        -1.7600    2.5370   -2.2930 ha        1 BRN      0.154000
     34 HA'        -4.6950   -0.6210   -5.0430 DU        1 BRN      0.151500
     35 HB'1       -4.9230   -1.4130   -1.1880 hn        1 BRN      0.193500
     36 HB'2       -6.0240   -2.0060   -2.1590 hn        1 BRN      0.193500
@<TRIPOS>BOND
     1    1    6 1   
     2    1   10 1   
     3    2    3 1   
     4    2   22 1   
     5    3   23 1   
     6    4    5 1   
     7    4    7 1   
     8    5   24 1   
     9    6   25 1   
    10    7    8 1   
    11    7    9 1   
    12    9   27 1   
    13    9   28 1   
    14   10   11 1   
    15   10   29 1   
    16   11   12 1   
    17   13   14 1   
    18   13   18 1   
    19   14   15 1   
    20   14   30 1   
    21   15   31 1   
    22   16   17 1   
    23   16   19 1   
    24   17   32 1   
    25   18   33 1   
    26   19   20 1   
    27   19   21 1   
    28   21   35 1   
    29   21   36 1   
@<TRIPOS>SUBSTRUCTURE
     1 BRN         1 TEMP              0 ****  ****    0 ROOT
