@<TRIPOS>MOLECULE
BRP
   10     9     1     0     0
SMALL
bcc


@<TRIPOS>ATOM
      1 C1          0.0440   -0.0970   -0.0300 c2        1 BRP     -0.155000
      2 C2          1.3670   -0.0130    0.1070 c2        1 BRP     -0.120500
      3 C3          2.0250    0.1070    1.4480 c3        1 BRP      0.170600
      4 BR          2.5110   -0.0190   -1.3870 br        1 BRP     -0.094700
      5 O           2.6710   -1.0810    1.8580 oh        1 BRP     -0.587800
      6 H11        -0.6250   -0.1010    0.8440 ha        1 BRP      0.130500
      7 H12        -0.4620   -0.1680   -1.0020 ha        1 BRP      0.130500
      8 H31         2.7570    0.9620    1.4410 h1        1 BRP      0.059200
      9 H32         1.2540    0.2900    2.2480 h1        1 BRP      0.059200
     10 H           3.3350   -1.2990    1.1920 ho        1 BRP      0.406000
@<TRIPOS>BOND
     1    1    2 2   
     2    1    6 1   
     3    1    7 1   
     4    2    3 1   
     5    2    4 1   
     6    3    5 1   
     7    3    8 1   
     8    3    9 1   
     9    5   10 1   
@<TRIPOS>SUBSTRUCTURE
     1 BRP         1 TEMP              0 ****  ****    0 ROOT
