@<TRIPOS>MOLECULE
BRP
   10     9     1     0     0
SMALL
bcc


@<TRIPOS>ATOM
      1 C1         -1.9000   -0.3170    0.6910 c2        1 BRP     -0.155000
      2 C2         -0.6380    0.1100    0.7460 c2        1 BRP     -0.120500
      3 C3         -0.0260    0.6310    2.0110 c3        1 BRP      0.170600
      4 BR          0.4660    0.1100   -0.7770 br        1 BRP     -0.094700
      5 O           0.8950   -0.2680    2.5930 oh        1 BRP     -0.587800
      6 H11        -2.3760   -0.6860   -0.2280 ha        1 BRP      0.130500
      7 H12        -2.5450   -0.3240    1.5830 ha        1 BRP      0.130500
      8 H31        -0.8160    0.7640    2.8030 h1        1 BRP      0.059200
      9 H32         0.4700    1.6220    1.8180 h1        1 BRP      0.059200
     10 H           1.5910   -0.4370    1.9450 ho        1 BRP      0.406000
@<TRIPOS>BOND
     1    1    2 2   
     2    1    6 1   
     3    1    7 1   
     4    2    3 1   
     5    2    4 1   
     6    3    5 1   
     7    3    8 1   
     8    3    9 1   
     9    5   10 1   
@<TRIPOS>SUBSTRUCTURE
     1 BRP         1 TEMP              0 ****  ****    0 ROOT
