@<TRIPOS>MOLECULE
BRP
   10     7     1     0     0
SMALL
bcc


@<TRIPOS>ATOM
      1 C1         -1.5940    0.0000   -0.6170 c1        1 BRP     -0.199000
      2 C2         -0.2470    0.0000   -0.6170 c1        1 BRP     -0.186000
      3 C3          0.5100    0.0000    0.6930 c2        1 BRP      0.019000
      4 BR          0.7090    0.0000   -2.2730 br        1 BRP      0.067000
      5 O           1.8970   -0.0000    0.4350 oh        1 BRP     -0.310000
      6 H11        -2.0820    0.0000    0.2280 DU        1 BRP      0.121000
      7 H12        -2.0820    0.0000   -1.4630 ha        1 BRP      0.135000
      8 H31         0.2740   -0.7970    1.2050 h4        1 BRP      0.074000
      9 H32         0.2740    0.7970    1.2050 h4        1 BRP      0.074000
     10 H           2.3410   -0.0000    1.2040 ho        1 BRP      0.204000
@<TRIPOS>BOND
     1    1    2 1   
     2    1    7 1   
     3    2    4 1   
     4    3    5 1   
     5    3    8 1   
     6    3    9 1   
     7    5   10 1   
@<TRIPOS>SUBSTRUCTURE
     1 BRP         1 TEMP              0 ****  ****    0 ROOT
