@<TRIPOS>MOLECULE
BRQ
   35    37     1     0     0
SMALL
bcc


@<TRIPOS>ATOM
      1 CAL        -4.3680    1.6260   -4.2760 ca        1 BRQ     -0.123000
      2 CAS        -5.1050    1.8690   -5.4390 ca        1 BRQ      0.034400
      3 CL         -6.0540    3.2650   -5.5380 cl        1 BRQ     -0.030400
      4 CAF        -5.0630    0.9730   -6.5130 ca        1 BRQ     -0.095000
      5 CAE        -4.2810   -0.1760   -6.4190 ca        1 BRQ     -0.098000
      6 CAI        -3.5400   -0.4450   -5.2710 ca        1 BRQ     -0.149000
      7 CAT        -3.5790    0.4610   -4.1920 ca        1 BRQ     -0.061200
      8 NAN        -2.8690    0.1930   -2.9900 nh        1 BRQ     -0.270200
      9 CAV        -1.5300   -0.0270   -2.9360 cc        1 BRQ      0.256700
     10 SAO        -0.6750   -0.4190   -1.5140 ss        1 BRQ      0.286200
     11 NAM        -0.7010   -0.0110   -4.0570 na        1 BRQ     -0.312400
     12 CAR         0.6500   -0.2980   -3.7200 cc        1 BRQ      0.331900
     13 NAA         1.6380   -0.3570   -4.6430 nh        1 BRQ     -0.819600
     14 CAW         0.7870   -0.5150   -2.3330 cd        1 BRQ     -0.402600
     15 CAP         2.0530   -0.7380   -1.6460 c         1 BRQ      0.646900
     16 OAB         3.1290   -0.7940   -2.2560 o         1 BRQ     -0.534100
     17 CAU         1.9530   -0.8300   -0.1750 ca        1 BRQ     -0.192600
     18 CAJ         0.8950   -1.5140    0.4390 ca        1 BRQ     -0.078000
     19 CAG         0.7930   -1.5530    1.8250 ca        1 BRQ     -0.159000
     20 CAQ         1.7670   -0.9040    2.6120 ca        1 BRQ      0.170900
     21 F           1.6660   -0.9300    3.9570 f         1 BRQ     -0.112900
     22 CAH         2.8470   -0.2400    1.9980 ca        1 BRQ     -0.159000
     23 CAK         2.9370   -0.2140    0.6110 ca        1 BRQ     -0.078000
     24 HAL        -4.4180    2.3410   -3.4380 ha        1 BRQ      0.165000
     25 HAF        -5.6500    1.1710   -7.4260 ha        1 BRQ      0.176000
     26 HAE        -4.2580   -0.8900   -7.2590 ha        1 BRQ      0.165000
     27 HAI        -2.9620   -1.3800   -5.2070 ha        1 BRQ      0.148000
     28 HAM        -1.0230    0.1900   -4.9790 hn        1 BRQ      0.340700
     29 H1          2.5650   -0.5560   -4.3140 hn        1 BRQ      0.485800
     30 H2          1.4940   -0.1180   -5.5940 hn        1 BRQ      0.485800
     31 HAJ         0.1770   -2.1070   -0.1570 ha        1 BRQ      0.153500
     32 HAK         3.7870    0.2880    0.1200 ha        1 BRQ      0.153500
     33 HAG        -0.0270   -2.0980    2.3180 ha        1 BRQ      0.170000
     34 HAH         3.6150    0.2450    2.6220 ha        1 BRQ      0.170000
     35 HAN        -3.3660    0.3110   -2.1290 hn        1 BRQ      0.334700
@<TRIPOS>BOND
     1    1    2 ar  
     2    1    7 ar  
     3    1   24 1   
     4    2    3 1   
     5    2    4 ar  
     6    4    5 ar  
     7    4   25 1   
     8    5    6 ar  
     9    5   26 1   
    10    6    7 ar  
    11    6   27 1   
    12    7    8 1   
    13    8    9 2   
    14    8   35 1   
    15    9   10 1   
    16    9   11 1   
    17   10   14 1   
    18   11   12 1   
    19   11   28 1   
    20   12   13 1   
    21   12   14 2   
    22   13   29 1   
    23   13   30 1   
    24   14   15 1   
    25   15   16 2   
    26   15   17 1   
    27   17   18 ar  
    28   17   23 ar  
    29   18   19 ar  
    30   18   31 1   
    31   19   20 ar  
    32   19   33 1   
    33   20   21 1   
    34   20   22 ar  
    35   22   23 ar  
    36   22   34 1   
    37   23   32 1   
@<TRIPOS>SUBSTRUCTURE
     1 BRQ         1 TEMP              0 ****  ****    0 ROOT
