@<TRIPOS>MOLECULE
BRQ
   35    37     1     0     0
SMALL
bcc


@<TRIPOS>ATOM
      1 CAL        -0.0290    0.0430    0.1550 ca        1 BRQ     -0.123000
      2 CAS         1.3630    0.1410    0.2420 ca        1 BRQ      0.034400
      3 CL          2.2550    0.5110   -1.1450 cl        1 BRQ     -0.030400
      4 CAF         2.0190   -0.0620    1.4620 ca        1 BRQ     -0.095000
      5 CAE         1.2740   -0.3720    2.5990 ca        1 BRQ     -0.098000
      6 CAI        -0.1130   -0.4790    2.5380 ca        1 BRQ     -0.149000
      7 CAT        -0.7720   -0.2680    1.3100 ca        1 BRQ     -0.061200
      8 NAN        -2.1820   -0.4140    1.2070 nh        1 BRQ     -0.270200
      9 CAV        -3.0710    0.2810    1.9610 cc        1 BRQ      0.256700
     10 SAO        -4.7620    0.0670    1.8990 ss        1 BRQ      0.286200
     11 NAM        -2.6990    1.2200    2.9210 na        1 BRQ     -0.312400
     12 CAR        -3.8280    1.7780    3.5820 cc        1 BRQ      0.331900
     13 NAA        -3.7180    2.7000    4.5670 nh        1 BRQ     -0.819600
     14 CAW        -5.0270    1.2320    3.0770 cd        1 BRQ     -0.402600
     15 CAP        -6.3650    1.6560    3.4690 c         1 BRQ      0.646900
     16 OAB        -6.5500    2.5270    4.3300 o         1 BRQ     -0.534100
     17 CAU        -7.4630    1.0120    2.7220 ca        1 BRQ     -0.192600
     18 CAJ        -7.4190   -0.3510    2.3960 ca        1 BRQ     -0.078000
     19 CAG        -8.4410   -0.9300    1.6530 ca        1 BRQ     -0.159000
     20 CAQ        -9.5300   -0.1380    1.2350 ca        1 BRQ      0.170900
     21 F         -10.5200   -0.6940    0.5050 f         1 BRQ     -0.112900
     22 CAH        -9.5930    1.2250    1.5850 ca        1 BRQ     -0.159000
     23 CAK        -8.5630    1.7880    2.3310 ca        1 BRQ     -0.078000
     24 HAL        -0.5270    0.2020   -0.8160 ha        1 BRQ      0.165000
     25 HAF         3.1180    0.0140    1.5230 ha        1 BRQ      0.176000
     26 HAE         1.7900   -0.5460    3.5580 ha        1 BRQ      0.165000
     27 HAI        -0.6730   -0.7640    3.4420 ha        1 BRQ      0.148000
     28 HAM        -1.7520    1.4730    3.1090 hn        1 BRQ      0.340700
     29 H1         -2.8500    3.1040    4.8250 hn        1 BRQ      0.485800
     30 H2         -4.5690    3.0480    4.9700 hn        1 BRQ      0.485800
     31 HAJ        -6.6230   -1.0060    2.7950 ha        1 BRQ      0.153500
     32 HAK        -8.6100    2.8500    2.6260 ha        1 BRQ      0.153500
     33 HAG        -8.4220   -2.0020    1.4030 ha        1 BRQ      0.170000
     34 HAH       -10.4590    1.8300    1.2720 ha        1 BRQ      0.170000
     35 HAN        -2.5310   -0.9580    0.4420 hn        1 BRQ      0.334700
@<TRIPOS>BOND
     1    1    2 ar  
     2    1    7 ar  
     3    1   24 1   
     4    2    3 1   
     5    2    4 ar  
     6    4    5 ar  
     7    4   25 1   
     8    5    6 ar  
     9    5   26 1   
    10    6    7 ar  
    11    6   27 1   
    12    7    8 1   
    13    8    9 2   
    14    8   35 1   
    15    9   10 1   
    16    9   11 1   
    17   10   14 1   
    18   11   12 1   
    19   11   28 1   
    20   12   13 1   
    21   12   14 2   
    22   13   29 1   
    23   13   30 1   
    24   14   15 1   
    25   15   16 2   
    26   15   17 1   
    27   17   18 ar  
    28   17   23 ar  
    29   18   19 ar  
    30   18   31 1   
    31   19   20 ar  
    32   19   33 1   
    33   20   21 1   
    34   20   22 ar  
    35   22   23 ar  
    36   22   34 1   
    37   23   32 1   
@<TRIPOS>SUBSTRUCTURE
     1 BRQ         1 TEMP              0 ****  ****    0 ROOT
