@<TRIPOS>MOLECULE
BRQ
   35    29     1     0     0
SMALL
bcc


@<TRIPOS>ATOM
      1 CAL         3.6450    0.2870    1.8670 c1        1 BRQ     -0.121000
      2 CAS         4.9610    0.7150    1.9570 c1        1 BRQ     -0.045000
      3 CL          6.2620   -0.3850    1.5840 cl        1 BRQ      0.048000
      4 CAF         5.2410    2.0240    2.3130 c1        1 BRQ     -0.094000
      5 CAE         4.2060    2.9070    2.5780 c1        1 BRQ     -0.123000
      6 CAI         2.8900    2.4800    2.4880 c1        1 BRQ     -0.123000
      7 CAT         2.6100    1.1700    2.1320 c1        1 BRQ     -0.018000
      8 NAN         1.2660    0.7160    2.1030 n3        1 BRQ     -0.212000
      9 CAV         0.5310    0.7530    0.8900 c2        1 BRQ     -0.058000
     10 SAO         0.0770   -0.4720    0.0670 ss        1 BRQ      0.748000
     11 NAM         0.0020    1.9240    0.2650 n2        1 BRQ     -0.252000
     12 CAR        -0.8210    1.4810   -0.9980 c1        1 BRQ      0.279000
     13 NAA        -1.5040    2.3480   -1.8900 n2        1 BRQ     -0.329000
     14 CAW        -0.7620    0.0430   -1.0970 c1        1 BRQ     -0.624000
     15 CAP        -1.3580   -0.7970   -2.2030 c1        1 BRQ      0.369000
     16 OAB        -0.9410   -0.6910   -3.3390 o         1 BRQ     -0.296000
     17 CAU        -2.4550   -1.7910   -1.8900 c2        1 BRQ     -0.172000
     18 CAJ        -3.7820   -1.3930   -1.9240 c2        1 BRQ     -0.042000
     19 CAG        -4.7870   -2.3080   -1.6530 c1        1 BRQ     -0.157000
     20 CAQ        -4.4660   -3.6210   -1.3470 c1        1 BRQ      0.137000
     21 F          -5.4370   -4.5050   -1.0880 f         1 BRQ     -0.078000
     22 CAH        -3.1380   -4.0190   -1.3120 c1        1 BRQ     -0.161000
     23 CAK        -2.1330   -3.1040   -1.5840 c1        1 BRQ     -0.114000
     24 HAL         3.4480   -0.6350    1.6160 ha        1 BRQ      0.165000
     25 HAF         6.1670    2.3250    2.3760 ha        1 BRQ      0.176000
     26 HAE         4.4030    3.8290    2.8290 ha        1 BRQ      0.156500
     27 HAI         2.1610    3.1010    2.6750 ha        1 BRQ      0.156500
     28 HAM         0.1210    2.7810    0.5500 DU        1 BRQ      0.291000
     29 H1         -1.7770    3.1730   -1.6060 hn        1 BRQ      0.281000
     30 H2         -1.6620    2.0850   -2.7510 hn        1 BRQ      0.281000
     31 HAJ        -4.0090   -0.4680   -2.1400 ha        1 BRQ      0.167000
     32 HAK        -1.1980   -3.3850   -1.5590 ha        1 BRQ      0.140000
     33 HAG        -5.7220   -2.0270   -1.6770 ha        1 BRQ      0.173000
     34 HAH        -2.9120   -4.9440   -1.0960 ha        1 BRQ      0.165000
     35 HAN         0.8740    0.4040    2.8650 hn        1 BRQ      0.286000
@<TRIPOS>BOND
     1    1    7 1   
     2    1   24 1   
     3    2    3 1   
     4    2    4 1   
     5    4   25 1   
     6    5    6 1   
     7    5   26 1   
     8    6   27 1   
     9    7    8 1   
    10    8    9 1   
    11    8   35 1   
    12    9   10 1   
    13    9   11 1   
    14   10   14 1   
    15   11   12 1   
    16   12   14 1   
    17   13   29 1   
    18   13   30 1   
    19   15   16 1   
    20   15   17 1   
    21   17   18 1   
    22   17   23 1   
    23   18   19 1   
    24   18   31 1   
    25   19   33 1   
    26   20   21 1   
    27   20   22 1   
    28   22   34 1   
    29   23   32 1   
@<TRIPOS>SUBSTRUCTURE
     1 BRQ         1 TEMP              0 ****  ****    0 ROOT
