@<TRIPOS>MOLECULE
BRQ
   37    39     1     0     0
SMALL
bcc


@<TRIPOS>ATOM
      1 CAL        -0.1800    0.8840    0.8320 ca        1 BRQ     -0.155000
      2 CAS         1.2020    0.8380    1.0330 ca        1 BRQ      0.038400
      3 CL          2.1540    2.1330    0.5480 cl        1 BRQ      0.055600
      4 CAF         1.7950   -0.2950    1.6260 ca        1 BRQ     -0.027000
      5 CAE         1.0010   -1.3680    2.0260 ca        1 BRQ     -0.079000
      6 CAI        -0.3830   -1.3460    1.8410 ca        1 BRQ     -0.087000
      7 CAT        -0.9630   -0.2170    1.2360 ca        1 BRQ     -0.135400
      8 NAN        -2.3980   -0.2290    0.9040 n4        1 BRQ     -0.492800
      9 CAV        -3.2540    0.5180    1.8300 cc        1 BRQ     -0.027800
     10 SAO        -4.9760    0.4250    1.8990 ss        1 BRQ      0.604200
     11 NAM        -2.7170    1.3970    2.7530 na        1 BRQ     -0.068100
     12 CAR        -3.7320    1.9910    3.5140 cc        1 BRQ      0.058300
     13 NAA        -3.5380    2.9650    4.5780 n4        1 BRQ     -0.703000
     14 CAW        -4.9800    1.5220    3.1150 cd        1 BRQ     -0.245700
     15 CAP        -6.3890    1.7860    3.5490 c         1 BRQ      0.640300
     16 OAB        -6.6600    2.5640    4.4430 o         1 BRQ     -0.382100
     17 CAU        -7.1920    0.9150    2.6580 ca        1 BRQ     -0.389600
     18 CAJ        -7.6920   -0.3180    3.1720 ca        1 BRQ     -0.010500
     19 CAG        -8.6880   -1.0040    2.5120 ca        1 BRQ     -0.185000
     20 CAQ        -9.2870   -0.4400    1.3500 ca        1 BRQ      0.313900
     21 F         -10.2740   -1.0820    0.7300 f         1 BRQ     -0.029900
     22 CAH        -8.8380    0.8200    0.8640 ca        1 BRQ     -0.185000
     23 CAK        -7.8420    1.4980    1.5310 ca        1 BRQ     -0.010500
     24 HAL        -0.6200    1.7510    0.3100 ha        1 BRQ      0.168000
     25 HAF         2.8960   -0.3380    1.7580 ha        1 BRQ      0.220000
     26 HAE         1.4730   -2.2620    2.4810 ha        1 BRQ      0.212000
     27 HAI        -0.9780   -2.2240    2.1470 ha        1 BRQ      0.173000
     28 HAM        -1.7240    1.5690    2.8580 hn        1 BRQ      0.377700
     29 H1         -4.4840    3.2170    4.9530 hn        1 BRQ      0.518800
     30 H2         -2.9710    2.5730    5.3510 hn        1 BRQ      0.518800
     31 HAJ        -7.2930   -0.7200    4.1200 ha        1 BRQ      0.174000
     32 HAK        -7.5600    2.5130    1.1990 ha        1 BRQ      0.174000
     33 HAG        -9.0690   -1.9700    2.8980 ha        1 BRQ      0.218000
     34 HAH        -9.3360    1.2620   -0.0220 ha        1 BRQ      0.218000
     35 HAN        -2.7190   -1.2160    0.8870 hn        1 BRQ      0.505300
     36 HAN2       -2.5080    0.1800   -0.0460 hn        1 BRQ      0.505300
     37 HAA3       -3.0850    3.8270    4.2230 hn        1 BRQ      0.518800
@<TRIPOS>BOND
     1    1    2 ar  
     2    1    7 ar  
     3    1   24 1   
     4    2    3 1   
     5    2    4 ar  
     6    4    5 ar  
     7    4   25 1   
     8    5    6 ar  
     9    5   26 1   
    10    6    7 ar  
    11    6   27 1   
    12    7    8 1   
    13    8    9 1   
    14    8   35 1   
    15    8   36 1   
    16    9   10 1   
    17    9   11 2   
    18   10   14 1   
    19   11   12 1   
    20   11   28 1   
    21   12   13 1   
    22   12   14 2   
    23   13   29 1   
    24   13   30 1   
    25   13   37 1   
    26   14   15 1   
    27   15   16 2   
    28   15   17 1   
    29   17   18 ar  
    30   17   23 ar  
    31   18   19 ar  
    32   18   31 1   
    33   19   20 ar  
    34   19   33 1   
    35   20   21 1   
    36   20   22 ar  
    37   22   23 ar  
    38   22   34 1   
    39   23   32 1   
@<TRIPOS>SUBSTRUCTURE
     1 BRQ         1 TEMP              0 ****  ****    0 ROOT
