@<TRIPOS>MOLECULE
BRQ
   35    37     1     0     0
SMALL
bcc


@<TRIPOS>ATOM
      1 CAL        -0.0110   -0.0510    0.2170 ca        1 BRQ     -0.123000
      2 CAS         1.3810    0.0360    0.3200 ca        1 BRQ      0.034400
      3 Cl          2.2940    0.3590   -1.0670 cl        1 BRQ     -0.030400
      4 CAF         2.0200   -0.1400    1.5530 ca        1 BRQ     -0.095000
      5 CAE         1.2590   -0.4100    2.6880 ca        1 BRQ     -0.098000
      6 CAI        -0.1290   -0.5050    2.6130 ca        1 BRQ     -0.149000
      7 CAT        -0.7700   -0.3220    1.3720 ca        1 BRQ     -0.061200
      8 NAN        -2.1810   -0.4580    1.2550 nu        1 BRQ     -0.270200
      9 CAV        -3.0720    0.2670    1.9790 cc        1 BRQ      0.256700
     10 SAO        -4.7640    0.0680    1.9020 ss        1 BRQ      0.286200
     11 NAM        -2.7020    1.2290    2.9170 na        1 BRQ     -0.312400
     12 CAR        -3.8320    1.8160    3.5480 cc        1 BRQ      0.331900
     13 NAA        -3.7250    2.7640    4.5090 nv        1 BRQ     -0.819600
     14 CAW        -5.0310    1.2680    3.0440 cd        1 BRQ     -0.402600
     15 CAP        -6.3690    1.7160    3.4080 c         1 BRQ      0.646900
     16 OAB        -6.5560    2.6120    4.2420 o         1 BRQ     -0.534100
     17 CAU        -7.4650    1.0630    2.6650 ca        1 BRQ     -0.192600
     18 CAJ        -7.4310   -0.3090    2.3770 ca        1 BRQ     -0.078000
     19 CAG        -8.4500   -0.8990    1.6380 ca        1 BRQ     -0.159000
     20 CAQ        -9.5260   -0.1080    1.1850 ca        1 BRQ      0.171900
     21 F         -10.5120   -0.6730    0.4580 f         1 BRQ     -0.112900
     22 CAH        -9.5790    1.2650    1.4970 ca        1 BRQ     -0.159000
     23 CAK        -8.5520    1.8380    2.2400 ca        1 BRQ     -0.078000
     24 HAL        -0.4950    0.0860   -0.7640 ha        1 BRQ      0.165000
     25 HAF         3.1190   -0.0730    1.6250 ha        1 BRQ      0.176000
     26 HAE         1.7620   -0.5630    3.6580 ha        1 BRQ      0.165000
     27 HAI        -0.7030   -0.7590    3.5180 ha        1 BRQ      0.148000
     28 HAM        -1.7550    1.4770    3.1090 hn        1 BRQ      0.340700
     29 H1         -4.5770    3.1310    4.8920 hn        1 BRQ      0.485800
     30 H2         -2.8560    3.1660    4.7660 hn        1 BRQ      0.485800
     31 HAJ        -6.6460   -0.9610    2.8040 ha        1 BRQ      0.153500
     32 HAK        -8.5910    2.9090    2.5050 ha        1 BRQ      0.153500
     33 HAG        -8.4390   -1.9770    1.4180 ha        1 BRQ      0.170000
     34 HAH       -10.4340    1.8700    1.1570 ha        1 BRQ      0.170000
     35 HAN        -2.5260   -1.0180    0.5010 hn        1 BRQ      0.334700
@<TRIPOS>BOND
     1    1    2 ar  
     2    1    7 ar  
     3    1   24 1   
     4    2    3 1   
     5    2    4 ar  
     6    4    5 ar  
     7    4   25 1   
     8    5    6 ar  
     9    5   26 1   
    10    6    7 ar  
    11    6   27 1   
    12    7    8 1   
    13    8    9 2   
    14    8   35 1   
    15    9   10 1   
    16    9   11 1   
    17   10   14 1   
    18   11   12 1   
    19   11   28 1   
    20   12   13 1   
    21   12   14 2   
    22   13   29 1   
    23   13   30 1   
    24   14   15 1   
    25   15   16 2   
    26   15   17 1   
    27   17   18 ar  
    28   17   23 ar  
    29   18   19 ar  
    30   18   31 1   
    31   19   20 ar  
    32   19   33 1   
    33   20   21 1   
    34   20   22 ar  
    35   22   23 ar  
    36   22   34 1   
    37   23   32 1   
@<TRIPOS>SUBSTRUCTURE
     1 BRQ         1 TEMP              0 ****  ****    0 ROOT
