@<TRIPOS>MOLECULE
BRR
   28    27     1     0     0
SMALL
bcc


@<TRIPOS>ATOM
      1 C10         0.0990    0.4170   -0.1290 c3        1 BRR     -0.093100
      2 C9          1.5540    0.0410   -0.0210 c3        1 BRR     -0.077400
      3 C8          2.0290    0.0790    1.4160 c3        1 BRR     -0.083400
      4 C7          3.4930   -0.2950    1.5160 c3        1 BRR     -0.074400
      5 C6          3.9770   -0.2640    2.9570 c3        1 BRR     -0.154700
      6 C11         3.4010   -1.4130    3.7490 c         1 BRR      0.637100
      7 O12         3.2310   -1.2760    5.0940 oh        1 BRR     -0.576100
      8 O13         3.0350   -2.5040    3.3100 o         1 BRR     -0.500000
      9 C5          5.5110   -0.3340    2.9780 c3        1 BRR      0.053000
     10 N3          6.0540   -0.2670    4.3400 n         1 BRR     -0.300300
     11 C2          7.4130   -0.6620    4.4850 c         1 BRR      0.616900
     12 O1          8.1940   -0.0170    5.1930 o         1 BRR     -0.550100
     13 O4          5.6760    0.8340    4.9870 oh        1 BRR     -0.430100
     14 H101       -0.0730    1.4500    0.2590 hc        1 BRR      0.035033
     15 H102       -0.2320    0.3810   -1.1950 hc        1 BRR      0.035033
     16 H103       -0.5350   -0.2890    0.4620 hc        1 BRR      0.035033
     17 H91         1.7100   -0.9890   -0.4380 hc        1 BRR      0.040700
     18 H92         2.1720    0.7450   -0.6390 hc        1 BRR      0.040700
     19 H81         1.4210   -0.6360    2.0330 hc        1 BRR      0.048700
     20 H82         1.8690    1.1070    1.8370 hc        1 BRR      0.048700
     21 H71         3.6450   -1.3260    1.0970 hc        1 BRR      0.056700
     22 H72         4.1050    0.4190    0.9050 hc        1 BRR      0.056700
     23 H6          3.6480    0.7010    3.4390 hc        1 BRR      0.084700
     24 H51         5.9070    0.5100    2.3450 h1        1 BRR      0.062700
     25 H52         5.8410   -1.3130    2.5320 h1        1 BRR      0.062700
     26 H2          7.6540   -1.6220    3.9790 h5        1 BRR      0.065200
     27 HO4         6.4340    1.4540    5.0540 ho        1 BRR      0.415000
     28 H31         3.6440   -0.4560    5.4050 ho        1 BRR      0.445000
@<TRIPOS>BOND
     1    1    2 1   
     2    1   14 1   
     3    1   15 1   
     4    1   16 1   
     5    2    3 1   
     6    2   17 1   
     7    2   18 1   
     8    3    4 1   
     9    3   19 1   
    10    3   20 1   
    11    4    5 1   
    12    4   21 1   
    13    4   22 1   
    14    5    6 1   
    15    5    9 1   
    16    5   23 1   
    17    6    7 1   
    18    6    8 2   
    19    7   28 1   
    20    9   10 1   
    21    9   24 1   
    22    9   25 1   
    23   10   11 1   
    24   10   13 1   
    25   11   12 2   
    26   11   26 1   
    27   13   27 1   
@<TRIPOS>SUBSTRUCTURE
     1 BRR         1 TEMP              0 ****  ****    0 ROOT
