@<TRIPOS>MOLECULE
BRR
   28    27     1     0     0
SMALL
bcc


@<TRIPOS>ATOM
      1 C10         0.1080    0.4320   -0.1380 c3        1 BRR     -0.093100
      2 C9          1.5570    0.0330   -0.0250 c3        1 BRR     -0.077400
      3 C8          2.0330    0.0890    1.4120 c3        1 BRR     -0.083400
      4 C7          3.4900   -0.3090    1.5170 c3        1 BRR     -0.074400
      5 C6          3.9760   -0.2610    2.9580 c3        1 BRR     -0.154700
      6 C11         3.3820   -1.3870    3.7700 c         1 BRR      0.637100
      7 O12         3.2140   -1.2230    5.1120 oh        1 BRR     -0.576100
      8 O13         2.9970   -2.4790    3.3490 o         1 BRR     -0.500000
      9 C5          5.5090   -0.3560    2.9790 c3        1 BRR      0.053000
     10 N3          6.0540   -0.2740    4.3400 n         1 BRR     -0.300300
     11 C2          7.4070   -0.6880    4.4910 c         1 BRR      0.616900
     12 O1          8.1970   -0.0430    5.1880 o         1 BRR     -0.550100
     13 O4          5.6940    0.8440    4.9680 oh        1 BRR     -0.430100
     14 H101       -0.2240    0.3820   -1.2030 hc        1 BRR      0.035033
     15 H102       -0.5370   -0.2520    0.4650 hc        1 BRR      0.035033
     16 H103       -0.0450    1.4740    0.2310 hc        1 BRR      0.035033
     17 H91         2.1870    0.7150   -0.6550 hc        1 BRR      0.040700
     18 H92         1.6940   -1.0070   -0.4220 hc        1 BRR      0.040700
     19 H81         1.4140   -0.6050    2.0410 hc        1 BRR      0.048700
     20 H82         1.8910    1.1260    1.8140 hc        1 BRR      0.048700
     21 H71         4.1140    0.3840    0.8940 hc        1 BRR      0.056700
     22 H72         3.6250   -1.3490    1.1170 hc        1 BRR      0.056700
     23 H6          3.6640    0.7180    3.4230 hc        1 BRR      0.084700
     24 H51         5.9180    0.4710    2.3320 h1        1 BRR      0.062700
     25 H52         5.8220   -1.3480    2.5510 h1        1 BRR      0.062700
     26 H2          7.6310   -1.6600    4.0020 h5        1 BRR      0.065200
     27 HO4         6.4620    1.4530    5.0250 ho        1 BRR      0.415000
     28 H31         3.6410   -0.4040    5.4090 ho        1 BRR      0.445000
@<TRIPOS>BOND
     1    1    2 1   
     2    1   14 1   
     3    1   15 1   
     4    1   16 1   
     5    2    3 1   
     6    2   17 1   
     7    2   18 1   
     8    3    4 1   
     9    3   19 1   
    10    3   20 1   
    11    4    5 1   
    12    4   21 1   
    13    4   22 1   
    14    5    6 1   
    15    5    9 1   
    16    5   23 1   
    17    6    7 1   
    18    6    8 2   
    19    7   28 1   
    20    9   10 1   
    21    9   24 1   
    22    9   25 1   
    23   10   11 1   
    24   10   13 1   
    25   11   12 2   
    26   11   26 1   
    27   13   27 1   
@<TRIPOS>SUBSTRUCTURE
     1 BRR         1 TEMP              0 ****  ****    0 ROOT
