@<TRIPOS>MOLECULE
BRR
   27    26     1     0     0
SMALL
bcc


@<TRIPOS>ATOM
      1 C10         0.0830   -0.6590    5.0490 c3        1 BRR     -0.088100
      2 C9          0.5740    0.2430    3.9460 c3        1 BRR     -0.076400
      3 C8          0.2330   -0.3130    2.5800 c3        1 BRR     -0.093400
      4 C7          0.7550    0.5800    1.4740 c3        1 BRR     -0.043400
      5 C6          0.2560    0.1260    0.1120 c3        1 BRR     -0.222700
      6 C11        -1.2490    0.4710   -0.0390 c         1 BRR      0.910600
      7 O12        -2.0860   -0.2580    0.5580 o         1 BRR     -0.839800
      8 O13        -1.5660    1.4630   -0.7620 o         1 BRR     -0.839800
      9 C5          1.0830    0.8050   -0.9790 c3        1 BRR      0.062000
     10 N3          1.0440    0.2060   -2.3160 n         1 BRR     -0.298300
     11 C2         -0.2100    0.1820   -2.9800 c         1 BRR      0.618900
     12 O1         -0.4780   -0.7130   -3.7960 o         1 BRR     -0.616100
     13 O4          1.7990   -0.8810   -2.4410 oh        1 BRR     -0.426100
     14 H101        0.3260   -0.2260    6.0490 hc        1 BRR      0.024033
     15 H102       -1.0240   -0.7930    4.9790 hc        1 BRR      0.024033
     16 H103        0.5600   -1.6660    4.9750 hc        1 BRR      0.024033
     17 H91         0.1110    1.2590    4.0590 hc        1 BRR      0.026700
     18 H92         1.6850    0.3750    4.0350 hc        1 BRR      0.026700
     19 H81         0.6720   -1.3390    2.4730 hc        1 BRR      0.062700
     20 H82        -0.8830   -0.4150    2.4650 hc        1 BRR      0.062700
     21 H71         0.4200    1.6360    1.6510 hc        1 BRR      0.021200
     22 H72         1.8780    0.5770    1.4950 hc        1 BRR      0.021200
     23 H6          0.3620   -0.9900    0.0380 hc        1 BRR      0.041700
     24 H51         0.7070    1.8610   -1.1030 h1        1 BRR      0.060700
     25 H52         2.1680    0.8280   -0.6790 h1        1 BRR      0.060700
     26 H2         -0.8730    1.0460   -2.7250 h5        1 BRR      0.115200
     27 HO4         1.2600   -1.6700   -2.2270 ho        1 BRR      0.382000
@<TRIPOS>BOND
     1    1    2 1   
     2    1   14 1   
     3    1   15 1   
     4    1   16 1   
     5    2    3 1   
     6    2   17 1   
     7    2   18 1   
     8    3    4 1   
     9    3   19 1   
    10    3   20 1   
    11    4    5 1   
    12    4   21 1   
    13    4   22 1   
    14    5    6 1   
    15    5    9 1   
    16    5   23 1   
    17    6    7 1   
    18    6    8 1   
    19    9   10 1   
    20    9   24 1   
    21    9   25 1   
    22   10   11 1   
    23   10   13 1   
    24   11   12 2   
    25   11   26 1   
    26   13   27 1   
@<TRIPOS>SUBSTRUCTURE
     1 BRR         1 TEMP              0 ****  ****    0 ROOT
