@<TRIPOS>MOLECULE
BRR
   27    26     1     0     0
SMALL
bcc


@<TRIPOS>ATOM
      1 C10        -3.3580   -0.4790   -2.4250 c3        1 BRR     -0.088100
      2 C9         -1.8530   -0.3310   -2.3750 c3        1 BRR     -0.076400
      3 C8         -1.3970   -0.3050   -0.9330 c3        1 BRR     -0.089400
      4 C7          0.1110   -0.1860   -0.8830 c3        1 BRR     -0.050400
      5 C6          0.5690   -0.1840    0.5590 c3        1 BRR     -0.200700
      6 C11         0.9910   -1.5810    0.9560 c         1 BRR      0.916600
      7 O12         1.9060   -2.1670    0.3200 o         1 BRR     -0.834800
      8 O13         0.4300   -2.1570    1.9240 o         1 BRR     -0.834800
      9 C5          1.7410    0.7600    0.7140 c3        1 BRR      0.084000
     10 N3          2.1080    0.8390    2.0860 n         1 BRR     -0.313300
     11 C2          1.8200    2.0120    2.8310 c         1 BRR      0.620900
     12 O1          2.1330    2.0790    4.0040 o         1 BRR     -0.618100
     13 O4          2.7330   -0.2180    2.6880 oh        1 BRR     -0.429100
     14 H101       -3.6670   -0.3580   -3.3480 hc        1 BRR      0.023033
     15 H102       -3.6090   -1.3720   -2.1100 hc        1 BRR      0.023033
     16 H103       -3.7720    0.1990   -1.8510 hc        1 BRR      0.023033
     17 H91        -1.4360   -1.0870   -2.8360 hc        1 BRR      0.027700
     18 H92        -1.5920    0.5030   -2.8150 hc        1 BRR      0.027700
     19 H81        -1.8000    0.4600   -0.4770 hc        1 BRR      0.058200
     20 H82        -1.6730   -1.1320   -0.4890 hc        1 BRR      0.058200
     21 H71         0.3860    0.6480   -1.3140 hc        1 BRR      0.025700
     22 H72         0.5140   -0.9440   -1.3520 hc        1 BRR      0.025700
     23 H6         -0.1640    0.1100    1.1320 hc        1 BRR      0.037700
     24 H51         2.5000    0.4270    0.1920 h1        1 BRR      0.066700
     25 H52         1.4890    1.6500    0.3920 h1        1 BRR      0.066700
     26 H2          1.3710    2.7660    2.4000 h5        1 BRR      0.045200
     27 HO4         3.5180    0.0470    3.0120 ho        1 BRR      0.406000
@<TRIPOS>BOND
     1    1    2 1   
     2    1   14 1   
     3    1   15 1   
     4    1   16 1   
     5    2    3 1   
     6    2   17 1   
     7    2   18 1   
     8    3    4 1   
     9    3   19 1   
    10    3   20 1   
    11    4    5 1   
    12    4   21 1   
    13    4   22 1   
    14    5    6 1   
    15    5    9 1   
    16    5   23 1   
    17    6    7 1   
    18    6    8 1   
    19    9   10 1   
    20    9   24 1   
    21    9   25 1   
    22   10   11 1   
    23   10   13 1   
    24   11   12 2   
    25   11   26 1   
    26   13   27 1   
@<TRIPOS>SUBSTRUCTURE
     1 BRR         1 TEMP              0 ****  ****    0 ROOT
