@<TRIPOS>MOLECULE
BRR
   28    27     1     0     0
SMALL
bcc


@<TRIPOS>ATOM
      1 C10         0.1190    0.4850   -0.1400 c3        1 BRR     -0.093100
      2 C9          1.5580    0.0520   -0.0230 c3        1 BRR     -0.077400
      3 C8          2.0390    0.1150    1.4110 c3        1 BRR     -0.083400
      4 C7          3.4850   -0.3190    1.5190 c3        1 BRR     -0.074400
      5 C6          3.9760   -0.2620    2.9580 c3        1 BRR     -0.154700
      6 C11         3.3540   -1.3600    3.7880 c         1 BRR      0.637100
      7 O12         3.1950   -1.1730    5.1280 oh        1 BRR     -0.576100
      8 O13         2.9410   -2.4480    3.3840 o         1 BRR     -0.500000
      9 C5          5.5050   -0.3970    2.9780 c3        1 BRR      0.053000
     10 N3          6.0560   -0.3090    4.3360 n         1 BRR     -0.300300
     11 C2          7.3980   -0.7570    4.4900 c         1 BRR      0.616900
     12 O1          8.2070   -0.1230    5.1760 o         1 BRR     -0.550100
     13 O4          5.7270    0.8260    4.9480 oh        1 BRR     -0.430100
     14 H101       -0.5420   -0.1730    0.4750 hc        1 BRR      0.035033
     15 H102       -0.0070    1.5370    0.2150 hc        1 BRR      0.035033
     16 H103       -0.2170    0.4290   -1.2030 hc        1 BRR      0.035033
     17 H91         2.2030    0.7080   -0.6650 hc        1 BRR      0.040700
     18 H92         1.6670   -0.9970   -0.4070 hc        1 BRR      0.040700
     19 H81         1.9240    1.1610    1.7990 hc        1 BRR      0.048700
     20 H82         1.4030   -0.5540    2.0520 hc        1 BRR      0.048700
     21 H71         4.1250    0.3490    0.8850 hc        1 BRR      0.056700
     22 H72         3.5920   -1.3680    1.1340 hc        1 BRR      0.056700
     23 H6          3.6900    0.7310    3.4100 hc        1 BRR      0.084700
     24 H51         5.7920   -1.4030    2.5620 h1        1 BRR      0.062700
     25 H52         5.9350    0.4090    2.3170 h1        1 BRR      0.062700
     26 H2          7.5960   -1.7410    4.0140 h5        1 BRR      0.065200
     27 HO4         6.5110    1.4160    4.9950 ho        1 BRR      0.415000
     28 H31         3.6430   -0.3620    5.4120 ho        1 BRR      0.445000
@<TRIPOS>BOND
     1    1    2 1   
     2    1   14 1   
     3    1   15 1   
     4    1   16 1   
     5    2    3 1   
     6    2   17 1   
     7    2   18 1   
     8    3    4 1   
     9    3   19 1   
    10    3   20 1   
    11    4    5 1   
    12    4   21 1   
    13    4   22 1   
    14    5    6 1   
    15    5    9 1   
    16    5   23 1   
    17    6    7 1   
    18    6    8 2   
    19    7   28 1   
    20    9   10 1   
    21    9   24 1   
    22    9   25 1   
    23   10   11 1   
    24   10   13 1   
    25   11   12 2   
    26   11   26 1   
    27   13   27 1   
@<TRIPOS>SUBSTRUCTURE
     1 BRR         1 TEMP              0 ****  ****    0 ROOT
