@<TRIPOS>MOLECULE
BRS
   33    31     1     0     0
SMALL
bcc


@<TRIPOS>ATOM
      1 N1         -0.9430    1.1310    0.2380 no        1 BRS      0.806400
      2 O2         -0.4410    2.2120    0.0660 o         1 BRS     -0.466200
      3 O3         -1.2870    0.7310    1.3030 o         1 BRS     -0.466200
      4 O5         -4.7600   -1.0590   -3.7140 o         1 BRS     -0.484700
      5 O6         -4.6840   -1.8140   -1.7540 o         1 BRS     -0.484700
      6 C7         -2.4610   -0.2130   -1.1710 c1        1 BRS     -0.033000
      7 C8         -2.8920   -0.5080   -2.4670 c2        1 BRS     -0.264000
      8 C9         -2.1910   -0.0850   -3.5950 c2        1 BRS      0.133000
      9 C10        -0.9050    0.5110   -3.4610 c2        1 BRS     -0.161000
     10 C11        -0.3540    0.7230   -2.2130 c2        1 BRS      0.128000
     11 C12        -1.0630    0.2050   -0.9860 c3        1 BRS     -0.143000
     12 C14         2.4140   -2.4620   -6.3110 c1        1 BRS     -0.532000
     13 C15         3.1850   -3.4520   -6.7070 c2        1 BRS      0.150000
     14 C16        -3.7730   -2.3160   -6.6810 c2        1 BRS     -0.126000
     15 C17        -2.5520   -2.7520   -6.6430 c1        1 BRS     -0.173000
     16 C18        -1.3210   -3.1700   -6.6020 c2        1 BRS     -0.122000
     17 C19         1.6540   -1.5160   -5.9280 c1        1 BRS      0.139000
     18 CL20       -0.9030   -4.8090   -6.4320 cl        1 BRS     -0.042000
     19 C21        -0.1750    0.9190   -4.6960 c3        1 BRS     -0.229000
     20 C22        -1.0510    1.1750   -5.8130 c1        1 BRS     -0.074000
     21 HC7        -0.5280   -0.7610   -0.6750 h1        1 BRS      0.215000
     22 HC9        -2.6230   -0.1490   -4.6210 ha        1 BRS      0.220000
     23 HO13        1.0330    1.7110   -1.3080 ho        1 BRS      0.268000
     24 HC14        3.8430   -4.0010   -6.0100 ha        1 BRS      0.129000
     25 HC16       -4.3220   -2.0140   -5.7720 ha        1 BRS      0.152500
     26 HC17       -4.3290   -2.2130   -7.6260 ha        1 BRS      0.152500
     27 HC19       -0.4420   -2.5100   -6.6700 h4        1 BRS      0.159000
     28 HC21        0.4930    0.0440   -5.0390 hc        1 BRS      0.169500
     29 H221        3.2160   -3.7910   -7.7580 ha        1 BRS      0.129000
     30 H222        0.5350    1.7610   -4.4520 hc        1 BRS      0.169500
     31 H223       -0.6040    1.6990   -6.6700 ha        1 BRS      0.059000
     32 O13         0.9000    1.2330   -2.1480 oh        1 BRS     -0.230000
     33 N4         -4.2140   -1.1690   -2.6430 no        1 BRS      0.852400
@<TRIPOS>BOND
     1    1    2 2   
     2    1    3 2   
     3    1   11 1   
     4    4   33 2   
     5    5   33 2   
     6    6    7 1   
     7    6   11 1   
     8    7    8 1   
     9    7   33 1   
    10    8    9 1   
    11    8   22 1   
    12    9   10 1   
    13    9   19 1   
    14   10   11 1   
    15   10   32 1   
    16   11   21 1   
    17   12   13 1   
    18   12   17 1   
    19   13   24 1   
    20   13   29 1   
    21   14   15 1   
    22   14   25 1   
    23   14   26 1   
    24   15   16 1   
    25   16   18 1   
    26   16   27 1   
    27   19   20 1   
    28   19   28 1   
    29   19   30 1   
    30   20   31 1   
    31   23   32 1   
@<TRIPOS>SUBSTRUCTURE
     1 BRS         1 TEMP              0 ****  ****    0 ROOT
