@<TRIPOS>MOLECULE
BRS
   33    31     1     0     0
SMALL
bcc


@<TRIPOS>ATOM
      1 N1         -0.9160    1.2920    0.1660 no        1 BRS      0.806400
      2 O2         -0.4190    2.3680   -0.0510 o         1 BRS     -0.466200
      3 O3         -1.2510    0.9330    1.2490 o         1 BRS     -0.466200
      4 O5         -4.7530   -1.0600   -3.6690 o         1 BRS     -0.484700
      5 O6         -4.6540   -1.7480   -1.6850 o         1 BRS     -0.484700
      6 C7         -2.4360   -0.1120   -1.1790 c1        1 BRS     -0.033000
      7 C8         -2.8750   -0.4590   -2.4600 c2        1 BRS     -0.264000
      8 C9         -2.1840   -0.0780   -3.6070 c2        1 BRS      0.133000
      9 C10        -0.8990    0.5290   -3.5050 c2        1 BRS     -0.160000
     10 C11        -0.3410    0.7910   -2.2710 c2        1 BRS      0.128000
     11 C12        -1.0400    0.3200   -1.0190 c3        1 BRS     -0.143000
     12 C14         2.3940   -2.5580   -6.2530 c1        1 BRS     -0.532000
     13 C15         3.1580   -3.5670   -6.6130 c2        1 BRS      0.150000
     14 C16        -3.7860   -2.3700   -6.6200 c2        1 BRS     -0.126000
     15 C17        -2.5690   -2.8180   -6.5860 c1        1 BRS     -0.173000
     16 C18        -1.3410   -3.2470   -6.5500 c2        1 BRS     -0.122000
     17 C19         1.6410   -1.5930   -5.9050 c1        1 BRS      0.139000
     18 CL20       -0.9370   -4.8890   -6.3690 cl        1 BRS     -0.042000
     19 C21        -0.1800    0.8910   -4.7610 c3        1 BRS     -0.229000
     20 C22        -1.0640    1.1030   -5.8800 c1        1 BRS     -0.074000
     21 HC7        -0.4990   -0.6320   -0.6750 h1        1 BRS      0.215000
     22 HC9        -2.6220   -0.1840   -4.6270 ha        1 BRS      0.220000
     23 HO13        1.0480    1.8200   -1.4150 ho        1 BRS      0.268000
     24 HC14        3.8020   -4.1040   -5.8950 ha        1 BRS      0.129000
     25 HC16       -4.3250   -2.0550   -5.7090 ha        1 BRS      0.152500
     26 HC17       -4.3460   -2.2700   -7.5620 ha        1 BRS      0.152500
     27 HC19       -0.4570   -2.5970   -6.6300 h4        1 BRS      0.158000
     28 HC21        0.4870    0.0040   -5.0750 hc        1 BRS      0.169500
     29 H221        3.1950   -3.9350   -7.6540 ha        1 BRS      0.129000
     30 H222        0.5310    1.7420   -4.5540 hc        1 BRS      0.169500
     31 H223       -0.6250    1.5950   -6.7600 ha        1 BRS      0.059000
     32 O13         0.9110    1.3090   -2.2340 oh        1 BRS     -0.230000
     33 N4         -4.1960   -1.1310   -2.6000 no        1 BRS      0.852400
@<TRIPOS>BOND
     1    1    2 2   
     2    1    3 2   
     3    1   11 1   
     4    4   33 2   
     5    5   33 2   
     6    6    7 1   
     7    6   11 1   
     8    7    8 1   
     9    7   33 1   
    10    8    9 1   
    11    8   22 1   
    12    9   10 1   
    13    9   19 1   
    14   10   11 1   
    15   10   32 1   
    16   11   21 1   
    17   12   13 1   
    18   12   17 1   
    19   13   24 1   
    20   13   29 1   
    21   14   15 1   
    22   14   25 1   
    23   14   26 1   
    24   15   16 1   
    25   16   18 1   
    26   16   27 1   
    27   19   20 1   
    28   19   28 1   
    29   19   30 1   
    30   20   31 1   
    31   23   32 1   
@<TRIPOS>SUBSTRUCTURE
     1 BRS         1 TEMP              0 ****  ****    0 ROOT
