@<TRIPOS>MOLECULE
BRS
   33    31     1     0     0
SMALL
bcc


@<TRIPOS>ATOM
      1 N1         -0.9440    1.1360    0.2370 no        1 BRS      0.806400
      2 O2         -0.4450    2.2190    0.0640 o         1 BRS     -0.466200
      3 O3         -1.2860    0.7370    1.3040 o         1 BRS     -0.466200
      4 O5         -4.7580   -1.0690   -3.7080 o         1 BRS     -0.484700
      5 O6         -4.6760   -1.8250   -1.7480 o         1 BRS     -0.484700
      6 C7         -2.4580   -0.2150   -1.1690 c1        1 BRS     -0.033000
      7 C8         -2.8890   -0.5130   -2.4640 c2        1 BRS     -0.264000
      8 C9         -2.1900   -0.0900   -3.5930 c2        1 BRS      0.133000
      9 C10        -0.9050    0.5100   -3.4600 c2        1 BRS     -0.160000
     10 C11        -0.3550    0.7250   -2.2130 c2        1 BRS      0.128000
     11 C12        -1.0620    0.2080   -0.9840 c3        1 BRS     -0.143000
     12 C14         2.4130   -2.4650   -6.3050 c1        1 BRS     -0.532000
     13 C15         3.1830   -3.4570   -6.6990 c2        1 BRS      0.150000
     14 C16        -3.7710   -2.3070   -6.6840 c2        1 BRS     -0.126000
     15 C17        -2.5510   -2.7460   -6.6500 c1        1 BRS     -0.173000
     16 C18        -1.3210   -3.1670   -6.6130 c2        1 BRS     -0.122000
     17 C19         1.6540   -1.5170   -5.9240 c1        1 BRS      0.139000
     18 Cl20       -0.9070   -4.8090   -6.4600 cl        1 BRS     -0.042000
     19 C21        -0.1780    0.9180   -4.6960 c3        1 BRS     -0.229000
     20 C22        -1.0540    1.1710   -5.8130 c1        1 BRS     -0.074000
     21 HC7        -0.5240   -0.7560   -0.6730 h1        1 BRS      0.215000
     22 HC9        -2.6220   -0.1570   -4.6190 ha        1 BRS      0.220000
     23 HO13        1.0300    1.7190   -1.3110 ho        1 BRS      0.268000
     24 HC14        3.8360   -4.0090   -6.0000 ha        1 BRS      0.129000
     25 HC16       -4.3180   -2.0120   -5.7710 ha        1 BRS      0.152500
     26 HC17       -4.3260   -2.1930   -7.6280 ha        1 BRS      0.152500
     27 HC19       -0.4400   -2.5100   -6.6760 h4        1 BRS      0.159000
     28 HC21        0.4920    0.0430   -5.0390 hc        1 BRS      0.169500
     29 H221        3.2170   -3.7940   -7.7510 ha        1 BRS      0.129000
     30 H222        0.5320    1.7610   -4.4540 hc        1 BRS      0.169500
     31 H223       -0.6100    1.6950   -6.6710 ha        1 BRS      0.059000
     32 O13         0.8980    1.2390   -2.1500 oh        1 BRS     -0.230000
     33 N4         -4.2100   -1.1780   -2.6380 no        1 BRS      0.852400
@<TRIPOS>BOND
     1    1    2 2   
     2    1    3 2   
     3    1   11 1   
     4    4   33 2   
     5    5   33 2   
     6    6    7 1   
     7    6   11 1   
     8    7    8 1   
     9    7   33 1   
    10    8    9 1   
    11    8   22 1   
    12    9   10 1   
    13    9   19 1   
    14   10   11 1   
    15   10   32 1   
    16   11   21 1   
    17   12   13 1   
    18   12   17 1   
    19   13   24 1   
    20   13   29 1   
    21   14   15 1   
    22   14   25 1   
    23   14   26 1   
    24   15   16 1   
    25   16   18 1   
    26   16   27 1   
    27   19   20 1   
    28   19   28 1   
    29   19   30 1   
    30   20   31 1   
    31   23   32 1   
@<TRIPOS>SUBSTRUCTURE
     1 BRS         1 TEMP              0 ****  ****    0 ROOT
