@<TRIPOS>MOLECULE
BRS
   33    34     1     0     0
SMALL
bcc


@<TRIPOS>ATOM
      1 N1         -3.8710    1.6700    0.7260 no        1 BRS      0.328200
      2 O2         -3.8130    2.8530    0.4910 o         1 BRS     -0.205500
      3 O3         -4.7950    1.1880    1.3170 o         1 BRS     -0.205500
      4 O5         -1.0820   -3.6240    0.0880 o         1 BRS     -0.198500
      5 O6         -2.8970   -3.2880    1.1030 o         1 BRS     -0.198500
      6 C7         -2.8690   -0.5800    0.5750 ca        1 BRS      0.023000
      7 C8         -1.8540   -1.4420    0.1680 ca        1 BRS     -0.225200
      8 C9         -0.7310   -0.9590   -0.5350 ca        1 BRS      0.000000
      9 C10        -0.6200    0.3880   -0.8410 ca        1 BRS     -0.121300
     10 C11        -1.6460    1.2910   -0.4360 ca        1 BRS      0.259100
     11 C12        -2.7680    0.7930    0.2730 ca        1 BRS     -0.287200
     12 C14         2.3660    1.4260    0.0520 ca        1 BRS     -0.116500
     13 C15         1.8470    0.5360   -0.8980 ca        1 BRS     -0.090300
     14 C16         2.5380   -0.6510   -1.1680 ca        1 BRS     -0.116500
     15 C17         3.7240   -0.9500   -0.5010 ca        1 BRS     -0.121000
     16 C18         4.2290   -0.0550    0.4470 ca        1 BRS      0.021400
     17 C19         3.5510    1.1370    0.7250 ca        1 BRS     -0.121000
     18 CL20        5.6740   -0.4140    1.2640 cl        1 BRS     -0.085400
     19 C21         0.5730    0.8910   -1.6050 c3        1 BRS      0.028900
     20 C22         0.5360    0.3750   -3.0340 c3        1 BRS     -0.091100
     21 HC7        -3.7490   -0.9650    1.1310 ha        1 BRS      0.207000
     22 HC9         0.0730   -1.6570   -0.8400 ha        1 BRS      0.187000
     23 HO13       -2.1530    3.1740   -0.4930 ho        1 BRS      0.479000
     24 HC14        1.8360    2.3660    0.2690 ha        1 BRS      0.140000
     25 HC16        2.1540   -1.3590   -1.9190 ha        1 BRS      0.140000
     26 HC17        4.2580   -1.8870   -0.7220 ha        1 BRS      0.151500
     27 HC19        3.9490    1.8430    1.4690 ha        1 BRS      0.151500
     28 HC21        0.5200    2.0200   -1.6560 hc        1 BRS      0.088700
     29 H221        1.4860    0.6390   -3.5570 hc        1 BRS      0.046033
     30 H222        0.4080   -0.7340   -3.0620 hc        1 BRS      0.046033
     31 H223       -0.3170    0.8410   -3.5830 hc        1 BRS      0.046033
     32 O13        -1.4360    2.5840   -0.7850 oh        1 BRS     -0.483100
     33 N4         -1.9510   -2.8930    0.4770 no        1 BRS      0.323200
@<TRIPOS>BOND
     1    1    2 1   
     2    1    3 1   
     3    1   11 1   
     4    4   33 1   
     5    5   33 1   
     6    6    7 ar  
     7    6   11 ar  
     8    6   21 1   
     9    7    8 ar  
    10    7   33 1   
    11    8    9 ar  
    12    8   22 1   
    13    9   10 ar  
    14    9   19 1   
    15   10   11 ar  
    16   10   32 1   
    17   12   13 ar  
    18   12   17 ar  
    19   12   24 1   
    20   13   14 ar  
    21   13   19 1   
    22   14   15 ar  
    23   14   25 1   
    24   15   16 ar  
    25   15   26 1   
    26   16   17 ar  
    27   16   18 1   
    28   17   27 1   
    29   19   20 1   
    30   19   28 1   
    31   20   29 1   
    32   20   30 1   
    33   20   31 1   
    34   23   32 1   
@<TRIPOS>SUBSTRUCTURE
     1 BRS         1 TEMP              0 ****  ****    0 ROOT
