@<TRIPOS>MOLECULE
BRS
   33    26     1     0     0
SMALL
bcc


@<TRIPOS>ATOM
      1 N1          0.2260   -1.3870    3.9610 ne        1 BRS      0.481800
      2 O2         -0.4810   -0.9590    4.8610 o         1 BRS     -0.321800
      3 O3          1.4220   -1.9780    4.2540 os        1 BRS     -0.335500
      4 N4         -0.3270   -3.9110    0.0400 ne        1 BRS      0.481800
      5 O5         -0.8330   -4.0880   -1.2160 os        1 BRS     -0.335500
      6 O6          0.1750   -4.8540    0.6350 o         1 BRS     -0.321800
      7 C7         -0.1550   -2.5090    2.0150 c1        1 BRS      0.069000
      8 C8         -0.3810   -2.6340    0.6530 cg        1 BRS     -0.159000
      9 C9         -0.6410   -1.5080   -0.1130 c1        1 BRS      0.069000
     10 C10        -0.6750   -0.2570    0.4830 c1        1 BRS     -0.087100
     11 C11        -0.4490   -0.1310    1.8450 c1        1 BRS      0.242600
     12 C12        -0.1880   -1.2580    2.6110 cg        1 BRS     -0.159000
     13 O13        -0.5260    1.1340    2.4580 oh        1 BRS     -0.466600
     14 C14         0.7760    2.6700   -0.6200 c1        1 BRS     -0.060000
     15 C15         0.1910    1.4860   -1.0410 c1        1 BRS     -0.056100
     16 C16         0.6810    0.8310   -2.1600 c1        1 BRS     -0.062500
     17 C17         1.7560    1.3590   -2.8580 c1        1 BRS     -0.062500
     18 C18         2.3410    2.5430   -2.4370 c1        1 BRS      0.032900
     19 C19         1.8510    3.1990   -1.3190 c1        1 BRS     -0.060000
     20 CL20        3.6980    3.2030   -3.3090 cl        1 BRS     -0.096900
     21 C21        -1.0420    0.9620   -0.3380 c3        1 BRS     -0.039500
     22 C22        -2.0850    0.5830   -1.3650 c3        1 BRS     -0.091100
     23 HC7         0.0030   -3.3040    2.5580 ha        1 BRS      0.139500
     24 HC9        -0.8010   -1.5960   -1.0710 ha        1 BRS      0.139500
     25 HO13       -1.2710    1.1840    2.9410 ho        1 BRS      0.479000
     26 HC14        0.4310    3.1320    0.1670 ha        1 BRS      0.088500
     27 HC16        0.2700   -0.0030   -2.4560 ha        1 BRS      0.081500
     28 HC17        2.1010    0.8980   -3.6460 ha        1 BRS      0.094500
     29 HC19        2.2630    4.0320   -1.0230 ha        1 BRS      0.088500
     30 HC21       -1.4000    1.6550    0.2500 hc        1 BRS      0.088700
     31 H221       -2.2680    1.3530   -1.9440 hc        1 BRS      0.046033
     32 H222       -2.9090    0.3140   -0.9090 hc        1 BRS      0.046033
     33 H223       -1.7530   -0.1620   -1.9080 hc        1 BRS      0.046033
@<TRIPOS>BOND
     1    1    2 2   
     2    1   12 1   
     3    4    6 2   
     4    4    8 1   
     5    7   12 3   
     6    7   23 1   
     7    8    9 3   
     8    9   24 1   
     9   10   11 3   
    10   10   21 1   
    11   11   13 1   
    12   13   25 1   
    13   14   19 3   
    14   14   26 1   
    15   15   16 3   
    16   15   21 1   
    17   16   27 1   
    18   17   18 3   
    19   17   28 1   
    20   18   20 1   
    21   19   29 1   
    22   21   22 1   
    23   21   30 1   
    24   22   31 1   
    25   22   32 1   
    26   22   33 1   
@<TRIPOS>SUBSTRUCTURE
     1 BRS         1 TEMP              0 ****  ****    0 ROOT
