@<TRIPOS>MOLECULE
BRT
   16    16     1     0     0
SMALL
bcc


@<TRIPOS>ATOM
      1 C2          0.0310   -0.0100    0.0040 ca        1 BRT      0.458200
      2 N3          1.3700   -0.0170   -0.0380 nb        1 BRT     -0.634000
      3 C4          2.0490    0.0060    1.1270 ca        1 BRT      0.505200
      4 C5          1.4150    0.0350    2.3940 ca        1 BRT     -0.160200
      5 BR          2.4200    0.0640    3.9540 br        1 BRT      0.026900
      6 C6          0.0190    0.0420    2.4310 ca        1 BRT      0.020000
      7 C1         -0.7010    0.0190    1.2160 ca        1 BRT     -0.335900
      8 C7         -2.1500    0.0260    1.3050 c         1 BRT      0.583700
      9 O9         -2.8680    0.0480    2.2930 o         1 BRT     -0.406100
     10 N8         -2.9230    0.0050   -0.0060 n4        1 BRT     -0.762400
     11 H2         -0.4520   -0.0300   -0.9900 h4        1 BRT      0.021100
     12 H4          3.1570   -0.0010    1.0340 h4        1 BRT      0.078100
     13 H6         -0.5280    0.0640    3.3930 ha        1 BRT      0.192000
     14 H8N1       -3.9330    0.0140    0.1900 hn        1 BRT      0.470800
     15 H8N2       -2.6830    0.8280   -0.5680 hn        1 BRT      0.470800
     16 H83        -2.6920   -0.8400   -0.5360 hn        1 BRT      0.470800
@<TRIPOS>BOND
     1    1    2 ar  
     2    1    7 ar  
     3    1   11 1   
     4    2    3 ar  
     5    3    4 ar  
     6    3   12 1   
     7    4    5 1   
     8    4    6 ar  
     9    6    7 ar  
    10    6   13 1   
    11    7    8 1   
    12    8    9 2   
    13    8   10 1   
    14   10   14 1   
    15   10   15 1   
    16   10   16 1   
@<TRIPOS>SUBSTRUCTURE
     1 BRT         1 TEMP              0 ****  ****    0 ROOT
