@<TRIPOS>MOLECULE
BRT
   15    12     1     0     0
SMALL
bcc


@<TRIPOS>ATOM
      1 C2          0.4230    0.0080   -1.1420 c1        1 BRT      0.023500
      2 N3          1.7850   -0.0220   -1.0980 n1        1 BRT     -0.464800
      3 C4          2.4300    0.0010    0.1020 c1        1 BRT      0.360300
      4 C5          1.7010    0.0560    1.2790 c1        1 BRT     -0.003200
      5 BR          2.6040    0.0240    2.9640 br        1 BRT     -0.146800
      6 C6          0.3370    0.0860    1.2370 c1        1 BRT      0.041500
      7 C1         -0.3070    0.0630    0.0340 cg        1 BRT     -0.143200
      8 C7         -1.8190    0.0290   -0.0130 c         1 BRT      0.624300
      9 O9         -2.4590    0.0770    1.0180 o         1 BRT     -0.602100
     10 N8         -2.4870   -0.1040   -1.2580 n         1 BRT     -0.670000
     11 H2         -0.0370   -0.0090   -2.0030 ha        1 BRT      0.108500
     12 H4          3.4050   -0.0210    0.1320 ha        1 BRT      0.120500
     13 H6         -0.1770    0.1250    2.0660 ha        1 BRT      0.120500
     14 H8N1       -3.3620   -0.3670   -1.2810 hn        1 BRT      0.316000
     15 H8N2       -2.0360    0.0530   -2.0370 hn        1 BRT      0.316000
@<TRIPOS>BOND
     1    1    7 3   
     2    1   11 1   
     3    2    3 3   
     4    3   12 1   
     5    4    5 1   
     6    4    6 3   
     7    6   13 1   
     8    7    8 1   
     9    8    9 2   
    10    8   10 1   
    11   10   14 1   
    12   10   15 1   
@<TRIPOS>SUBSTRUCTURE
     1 BRT         1 TEMP              0 ****  ****    0 ROOT
