@<TRIPOS>MOLECULE
BRT
   15    15     1     0     0
SMALL
bcc


@<TRIPOS>ATOM
      1 C2         -1.5500   -0.2400    1.7640 ca        1 BRT      0.431200
      2 N3         -2.3280   -0.1790    0.6670 nb        1 BRT     -0.665000
      3 C4         -1.7250   -0.0020   -0.5220 ca        1 BRT      0.442200
      4 C5         -0.3250    0.1120   -0.6720 ca        1 BRT     -0.162200
      5 BR          0.4280    0.3430   -2.3600 br        1 BRT     -0.053100
      6 C6          0.4720    0.0440    0.4740 ca        1 BRT     -0.016000
      7 C1         -0.1470   -0.1230    1.7200 ca        1 BRT     -0.259900
      8 C7          0.7080   -0.2020    2.9350 c         1 BRT      0.675700
      9 O9          1.8670   -0.6630    2.8870 o         1 BRT     -0.602100
     10 N8          0.1950    0.2500    4.1260 n         1 BRT     -0.670000
     11 H2         -2.0910   -0.4070    2.7150 h4        1 BRT      0.029100
     12 H4         -2.4000    0.0470   -1.3980 h4        1 BRT      0.041100
     13 H6          1.5730    0.1080    0.4210 ha        1 BRT      0.178000
     14 H8N1        0.7650    0.2290    4.9350 hn        1 BRT      0.316000
     15 H8N2       -0.6840    0.6950    4.1710 hn        1 BRT      0.316000
@<TRIPOS>BOND
     1    1    2 ar  
     2    1    7 ar  
     3    1   11 1   
     4    2    3 ar  
     5    3    4 ar  
     6    3   12 1   
     7    4    5 1   
     8    4    6 ar  
     9    6    7 ar  
    10    6   13 1   
    11    7    8 1   
    12    8    9 2   
    13    8   10 1   
    14   10   14 1   
    15   10   15 1   
@<TRIPOS>SUBSTRUCTURE
     1 BRT         1 TEMP              0 ****  ****    0 ROOT
