@<TRIPOS>MOLECULE
BRU
   31    32     1     0     0
SMALL
bcc


@<TRIPOS>ATOM
      1 N1          0.4270    1.4730    0.3190 n         1 BRU     -0.366000
      2 C2         -0.2450    1.5500    1.6220 c         1 BRU      0.800500
      3 N3          0.5450    1.6680    2.8500 n         1 BRU     -0.595500
      4 C4          1.9650    1.6460    2.7870 c         1 BRU      0.734700
      5 C5          2.6440    1.5690    1.4780 cc        1 BRU     -0.299500
      6 C6          1.8510    1.4290    0.2530 cd        1 BRU      0.130600
      7 O2         -1.4610    1.5410    1.6800 o         1 BRU     -0.674500
      8 O4          2.6240    1.7620    3.8100 o         1 BRU     -0.652500
      9 BR          4.5340    1.8240    1.3660 br        1 BRU     -0.022700
     10 C1'        -0.3510    1.5650   -0.9020 c3        1 BRU      0.304500
     11 C2'         0.3700    0.7820   -2.0750 c3        1 BRU     -0.132400
     12 C3'        -0.4490   -0.4770   -2.2860 c3        1 BRU      0.156100
     13 C4'        -1.2600   -0.5330   -1.2430 c3        1 BRU      0.049100
     14 O3'        -1.2390   -0.3760   -3.5470 oh        1 BRU     -0.670800
     15 O4'        -1.4730    0.9830   -0.7540 os        1 BRU     -0.436600
     16 C5'        -0.6330   -1.3470   -0.1450 c3        1 BRU      0.229400
     17 O5'        -1.6420   -1.7850    0.7580 os        1 BRU     -0.550200
     18 P          -1.6840   -3.3210    1.1570 p5        1 BRU      1.330900
     19 OP1        -2.5450   -3.4980    2.3890 o         1 BRU     -0.929167
     20 OP2        -0.2830   -3.8050    1.4480 o         1 BRU     -0.929167
     21 OP3        -2.2670   -4.1210    0.0180 o         1 BRU     -0.929167
     22 HN3         0.1230    1.7160    3.6620 hn        1 BRU      0.333500
     23 H6          2.2990    1.3780   -0.6170 h4        1 BRU      0.239000
     24 H1'        -0.4850    2.5040   -1.1520 h2        1 BRU      0.083700
     25 H2'         1.2790    0.5530   -1.8170 hc        1 BRU      0.056200
     26 H2''        0.3760    1.3250   -2.8930 hc        1 BRU      0.056200
     27 H3'         0.1320   -1.2630   -2.3090 h1        1 BRU      0.105700
     28 H4'        -2.1140   -0.9240   -1.5050 h1        1 BRU      0.083700
     29 HO3'       -0.8800   -0.9090   -4.1690 ho        1 BRU      0.502000
     30 H5'         0.0270   -0.7910    0.3430 h1        1 BRU     -0.003800
     31 H5''       -0.1860   -2.1180   -0.5290 h1        1 BRU     -0.003800
@<TRIPOS>BOND
     1    1    2 1   
     2    1    6 1   
     3    1   10 1   
     4    2    3 1   
     5    2    7 2   
     6    3    4 1   
     7    3   22 1   
     8    4    5 1   
     9    4    8 2   
    10    5    6 2   
    11    5    9 1   
    12    6   23 1   
    13   10   11 1   
    14   10   15 1   
    15   10   24 1   
    16   11   12 1   
    17   11   25 1   
    18   11   26 1   
    19   12   13 1   
    20   12   14 1   
    21   12   27 1   
    22   13   15 1   
    23   13   16 1   
    24   13   28 1   
    25   14   29 1   
    26   16   17 1   
    27   16   30 1   
    28   16   31 1   
    29   17   18 1   
    30   18   19 1   
    31   18   20 1   
    32   18   21 1   
@<TRIPOS>SUBSTRUCTURE
     1 BRU         1 TEMP              0 ****  ****    0 ROOT
