@<TRIPOS>MOLECULE
BRU
   31    32     1     0     0
SMALL
bcc


@<TRIPOS>ATOM
      1 N1          1.0430   -0.6720    1.1480 n         1 BRU     -0.366000
      2 C2          1.4650   -1.1450    2.4120 c         1 BRU      0.800500
      3 N3          0.4850   -1.5790    3.3190 n         1 BRU     -0.595500
      4 C4         -0.8970   -1.5440    3.0460 c         1 BRU      0.734700
      5 C5         -1.2720   -1.0270    1.7300 cc        1 BRU     -0.299500
      6 C6         -0.2980   -0.6100    0.8520 cd        1 BRU      0.130600
      7 O2          2.6710   -1.2010    2.7490 o         1 BRU     -0.674500
      8 O4         -1.6590   -1.9500    3.9440 o         1 BRU     -0.652500
      9 BR         -3.0620   -0.9350    1.2510 br        1 BRU     -0.022700
     10 C1'         2.0720   -0.1570    0.2040 c3        1 BRU      0.304500
     11 C2'         2.4150   -1.1430   -0.9270 c3        1 BRU     -0.132400
     12 C3'         1.8120   -0.5250   -2.1990 c3        1 BRU      0.156100
     13 C4'         1.4140    0.9110   -1.8060 c3        1 BRU      0.049100
     14 O3'         2.7990   -0.5240   -3.2040 oh        1 BRU     -0.670800
     15 O4'         1.6140    1.0510   -0.3710 os        1 BRU     -0.436600
     16 C5'        -0.0450    1.2830   -2.1690 c3        1 BRU      0.229400
     17 O5'        -0.0880    1.9360   -3.3670 os        1 BRU     -0.550200
     18 P          -0.6240    0.9250   -4.6920 p5        1 BRU      1.330900
     19 OP1        -1.9300    0.4150   -4.1580 o         1 BRU     -0.929167
     20 OP2        -0.6420    1.8580   -5.8620 o         1 BRU     -0.929167
     21 OP3         0.5010   -0.0890   -4.6360 o         1 BRU     -0.929167
     22 HN3         0.8000   -1.9150    4.2010 hn        1 BRU      0.333500
     23 H6         -0.5360   -0.1890   -0.1600 h4        1 BRU      0.239000
     24 H1'         2.9700    0.1000    0.8410 h2        1 BRU      0.083700
     25 H2'         2.0140   -2.1670   -0.7510 hc        1 BRU      0.056200
     26 H2''        3.5270   -1.2130   -1.0200 hc        1 BRU      0.056200
     27 H3'         0.9140   -1.1040   -2.5550 h1        1 BRU      0.105700
     28 H4'         2.1150    1.6540   -2.2720 h1        1 BRU      0.083700
     29 HO3'        2.3130   -0.3390   -4.0420 ho        1 BRU      0.502000
     30 H5'        -0.6820    0.3510   -2.1930 h1        1 BRU     -0.003800
     31 H5''       -0.4210    1.9620   -1.3470 h1        1 BRU     -0.003800
@<TRIPOS>BOND
     1    1    2 1   
     2    1    6 1   
     3    1   10 1   
     4    2    3 1   
     5    2    7 2   
     6    3    4 1   
     7    3   22 1   
     8    4    5 1   
     9    4    8 2   
    10    5    6 2   
    11    5    9 1   
    12    6   23 1   
    13   10   11 1   
    14   10   15 1   
    15   10   24 1   
    16   11   12 1   
    17   11   25 1   
    18   11   26 1   
    19   12   13 1   
    20   12   14 1   
    21   12   27 1   
    22   13   15 1   
    23   13   16 1   
    24   13   28 1   
    25   14   29 1   
    26   16   17 1   
    27   16   30 1   
    28   16   31 1   
    29   17   18 1   
    30   18   19 1   
    31   18   20 1   
    32   18   21 1   
@<TRIPOS>SUBSTRUCTURE
     1 BRU         1 TEMP              0 ****  ****    0 ROOT
