@<TRIPOS>MOLECULE
BRV
   18    18     1     0     0
SMALL
bcc


@<TRIPOS>ATOM
      1 C10         2.5650   -1.2040   -0.0090 c         1 BRV      0.919200
      2 C7         -2.5640   -1.2060   -0.0070 c         1 BRV      0.919200
      3 C5         -0.0000    1.6700    0.0830 ca        1 BRV      0.135600
      4 C4          1.2130    0.9430    0.0620 ca        1 BRV     -0.069900
      5 C3          1.2240   -0.4560    0.0300 ca        1 BRV     -0.017600
      6 C2          0.0000   -1.1410    0.0170 ca        1 BRV     -0.021900
      7 BR1         0.0010   -3.0240   -0.0280 br        1 BRV     -0.108100
      8 BR3        -2.8460    1.9010    0.0730 br        1 BRV     -0.155100
      9 C1         -1.2240   -0.4570    0.0310 ca        1 BRV     -0.017600
     10 C6         -1.2140    0.9420    0.0630 ca        1 BRV     -0.069900
     11 O8         -3.0710   -1.4410   -1.1390 o         1 BRV     -0.821800
     12 O9         -3.0940   -1.5270    1.0910 o         1 BRV     -0.821800
     13 O11         3.0950   -1.5260    1.0890 o         1 BRV     -0.821800
     14 O12         3.0710   -1.4400   -1.1410 o         1 BRV     -0.821800
     15 HN13        0.8250    3.4840   -0.2220 hn        1 BRV      0.368800
     16 HN1A       -0.8270    3.4840   -0.2210 hn        1 BRV      0.368800
     17 N13        -0.0010    3.0780    0.1700 nh        1 BRV     -0.810200
     18 BR2         2.8450    1.9030    0.0710 br        1 BRV     -0.155100
@<TRIPOS>BOND
     1    1    5 1   
     2    1   13 1   
     3    1   14 1   
     4    2    9 1   
     5    2   11 1   
     6    2   12 1   
     7    3    4 ar  
     8    3   10 ar  
     9    3   17 1   
    10    4    5 ar  
    11    4   18 1   
    12    5    6 ar  
    13    6    7 1   
    14    6    9 ar  
    15    8   10 1   
    16    9   10 ar  
    17   15   17 1   
    18   16   17 1   
@<TRIPOS>SUBSTRUCTURE
     1 BRV         1 TEMP              0 ****  ****    0 ROOT
