@<TRIPOS>MOLECULE
BRV
   19    19     1     0     0
SMALL
bcc


@<TRIPOS>ATOM
      1 C10        -0.1290   -0.0190    0.0240 c2        1 BRV      0.372000
      2 C7          3.2980    0.1500   -3.8210 c2        1 BRV      0.372000
      3 C5          3.8030   -0.4970    0.0490 c3        1 BRV     -0.027000
      4 C4          2.3520   -0.3780    0.4440 c2        1 BRV     -0.081000
      5 C3          1.3590   -0.1080   -0.4470 c2        1 BRV     -0.170000
      6 C2          1.6760    0.1240   -1.8190 c2        1 BRV      0.130000
      7 BR1         0.3320    0.6140   -2.9900 br        1 BRV      0.226000
      8 C1          3.0060   -0.0170   -2.2930 c2        1 BRV     -0.170000
      9 C6          4.0280   -0.2760   -1.4230 c2        1 BRV     -0.081000
     10 O8          3.5710    1.3120   -4.1960 o         1 BRV     -0.498250
     11 O9          3.2310   -0.8980   -4.5000 o         1 BRV     -0.498250
     12 O11        -0.5010    1.1090    0.4180 o         1 BRV     -0.498250
     13 O12        -0.7830   -1.0840   -0.0360 o         1 BRV     -0.498250
     14 HN13        4.0490   -1.6080    0.2100 h1        1 BRV      0.169000
     15 HN1A        4.6290    1.2440    0.6970 hn        1 BRV      0.164000
     16 N13         4.7390    0.2610    0.8600 n3        1 BRV     -0.314000
     17 BR2         1.9930   -0.6860    2.2560 br        1 BRV      0.119000
     18 H133        4.6000    0.0650    1.8320 hn        1 BRV      0.164000
     19 BR3         5.7940   -0.4360   -2.0040 br        1 BRV      0.119000
@<TRIPOS>BOND
     1    1    5 1   
     2    1   12 1   
     3    1   13 1   
     4    2    8 1   
     5    2   10 1   
     6    2   11 1   
     7    3    4 1   
     8    3    9 1   
     9    3   14 1   
    10    3   16 1   
    11    4    5 1   
    12    4   17 1   
    13    5    6 1   
    14    6    7 1   
    15    6    8 1   
    16    8    9 1   
    17    9   19 1   
    18   15   16 1   
    19   16   18 1   
@<TRIPOS>SUBSTRUCTURE
     1 BRV         1 TEMP              0 ****  ****    0 ROOT
