@<TRIPOS>MOLECULE
BRV
   18    13     1     0     0
SMALL
bcc


@<TRIPOS>ATOM
      1 C10        -2.7200    0.0030    0.9500 c1        1 BRV      0.368000
      2 C7          0.6080   -0.0100   -2.8090 c1        1 BRV      0.368000
      3 C5          1.0670    0.0030    0.9500 c1        1 BRV      0.054000
      4 C4         -0.2480    0.0030    1.3900 c1        1 BRV     -0.210000
      5 C3         -1.2860    0.0030    0.4710 c1        1 BRV      0.003000
      6 C2         -1.0090    0.0030   -0.8870 c1        1 BRV     -0.162000
      7 N13         2.1290    0.0040    1.8910 n2        1 BRV     -0.319000
      8 BR1        -2.4410   -0.0220   -2.1540 br        1 BRV      0.032000
      9 BR2        -0.6300   -0.0150    3.2630 br        1 BRV     -0.015000
     10 BR3         3.1030    0.0380   -1.1560 br        1 BRV     -0.015000
     11 C1          0.3060    0.0030   -1.3270 c1        1 BRV      0.003000
     12 C6          1.3440    0.0030   -0.4080 c2        1 BRV     -0.210000
     13 O8          0.7870   -1.1040   -3.4060 o         1 BRV     -0.556500
     14 O9          0.6780    1.0740   -3.4460 o         1 BRV     -0.556500
     15 O11        -3.3120   -1.0880    1.1660 o         1 BRV     -0.556500
     16 O12        -3.3230    1.0930    1.1320 o         1 BRV     -0.556500
     17 HN13        2.4680    0.7950    2.1950 hn        1 BRV      0.164000
     18 HN1A        2.4800   -0.7850    2.1850 hn        1 BRV      0.164000
@<TRIPOS>BOND
     1    1   15 1   
     2    1   16 1   
     3    2   13 1   
     4    2   14 1   
     5    3    4 1   
     6    3   12 1   
     7    4    9 1   
     8    5    6 1   
     9    6   11 1   
    10    7   17 1   
    11    7   18 1   
    12   10   12 1   
    13   11   12 1   
@<TRIPOS>SUBSTRUCTURE
     1 BRV         1 TEMP              0 ****  ****    0 ROOT
