@<TRIPOS>MOLECULE
BRV
   18    18     1     0     0
SMALL
bcc


@<TRIPOS>ATOM
      1 C10        -0.2320    0.0740   -0.0720 c         1 BRV      0.919200
      2 C7          3.2700   -0.0660   -3.8170 c         1 BRV      0.919200
      3 C5          3.6200    0.0230    0.0200 ca        1 BRV      0.135600
      4 C4          2.2600    0.0540    0.4090 ca        1 BRV     -0.069900
      5 C3          1.2310    0.0570   -0.5390 ca        1 BRV     -0.017600
      6 C2          1.5660    0.0270   -1.9010 ca        1 BRV     -0.021900
      7 Br1         0.1910    0.0300   -3.1870 br        1 BRV     -0.108100
      8 Br3         5.7320   -0.0710   -1.8990 br        1 BRV     -0.155100
      9 C1          2.9020   -0.0100   -2.3260 ca        1 BRV     -0.017600
     10 C6          3.9170   -0.0130   -1.3630 ca        1 BRV     -0.069900
     11 O8          3.4020   -1.2050   -4.3440 o         1 BRV     -0.821800
     12 O9          3.4380    1.0250   -4.4260 o         1 BRV     -0.821800
     13 O11        -0.7880    1.1940    0.0920 o         1 BRV     -0.821800
     14 O12        -0.7920   -1.0380    0.1400 o         1 BRV     -0.821800
     15 HN13        5.4960   -0.3490    0.6580 hn        1 BRV      0.368800
     16 HN1A        4.3690   -0.3040    1.8640 hn        1 BRV      0.368800
     17 N13         4.6500    0.0740    0.9820 nv        1 BRV     -0.810200
     18 Br2         1.8450    0.0840    2.2560 br        1 BRV     -0.155100
@<TRIPOS>BOND
     1    1    5 1   
     2    1   13 1   
     3    1   14 1   
     4    2    9 1   
     5    2   11 1   
     6    2   12 1   
     7    3    4 ar  
     8    3   10 ar  
     9    3   17 1   
    10    4    5 ar  
    11    4   18 1   
    12    5    6 ar  
    13    6    7 1   
    14    6    9 ar  
    15    8   10 1   
    16    9   10 ar  
    17   15   17 1   
    18   16   17 1   
@<TRIPOS>SUBSTRUCTURE
     1 BRV         1 TEMP              0 ****  ****    0 ROOT
