@<TRIPOS>MOLECULE
BRW
   32    28     1     0     0
SMALL
bcc


@<TRIPOS>ATOM
      1 C1         -2.0880    0.6310   -1.2830 c1        1 BRW     -0.115000
      2 C2         -0.6020    0.5820   -1.2550 c1        1 BRW     -0.040000
      3 C3         -2.5450    0.6490    0.0440 c2        1 BRW      0.038000
      4 N4         -1.3520    0.6120    0.9490 n3        1 BRW     -0.235000
      5 C5         -3.9140    0.6920    0.3080 c1        1 BRW     -0.155000
      6 C7         -4.8270    0.7160   -0.7450 c1        1 BRW     -0.124500
      7 C9         -4.3700    0.6980   -2.0700 c1        1 BRW     -0.124500
      8 C11        -3.0030    0.6550   -2.3350 c1        1 BRW     -0.054000
      9 C13        -0.1820    0.5710    0.1360 c2        1 BRW      0.164000
     10 C14         1.0910    0.5850    0.5790 c1        1 BRW     -0.170000
     11 C15         1.9630    1.7460    0.6370 c1        1 BRW      0.365000
     12 N16         3.2420    1.3120    1.0900 n3        1 BRW     -0.339000
     13 C17         3.1750   -0.1660    1.3260 c2        1 BRW      0.075000
     14 C18         1.8770   -0.5990    1.0160 c2        1 BRW     -0.072000
     15 C19         4.1290   -1.0830    1.7660 c1        1 BRW     -0.151000
     16 C20         3.7920   -2.4290    1.8990 c1        1 BRW     -0.130000
     17 C21         2.4950   -2.8620    1.5900 c1        1 BRW     -0.141000
     18 C22         1.5410   -1.9460    1.1500 c1        1 BRW     -0.091000
     19 O23         1.6580    2.8850    0.3430 o         1 BRW     -0.311000
     20 N24         0.1860    0.6200   -2.2940 n1        1 BRW      0.034000
     21 O39        -0.3450    0.6250   -3.5550 o         1 BRW     -0.238000
     22 BR21        4.9740   -3.7770    2.5630 br        1 BRW      0.054000
     23 H4         -1.3710    0.6150    1.8610 hn        1 BRW      0.234000
     24 H5         -4.2330    0.7050    1.2310 ha        1 BRW      0.143000
     25 H7         -5.7850    0.7460   -0.5600 ha        1 BRW      0.138000
     26 H9         -5.0100    0.7150   -2.8070 ha        1 BRW      0.138000
     27 H11        -2.6850    0.6420   -3.2580 ha        1 BRW      0.155000
     28 H16         3.9740    1.8420    1.2150 hn        1 BRW      0.257000
     29 H19         5.0320   -0.7830    1.9820 ha        1 BRW      0.154000
     30 H21         2.2600   -3.8040    1.6840 ha        1 BRW      0.147000
     31 H22         0.6380   -2.2480    0.9350 ha        1 BRW      0.140000
     32 H39         0.2850    0.8500   -4.1410 ho        1 BRW      0.254000
@<TRIPOS>BOND
     1    1    3 1   
     2    1    8 1   
     3    2    9 1   
     4    2   20 1   
     5    3    4 1   
     6    3    5 1   
     7    4    9 1   
     8    4   23 1   
     9    5   24 1   
    10    6    7 1   
    11    6   25 1   
    12    7   26 1   
    13    8   27 1   
    14    9   10 1   
    15   10   14 1   
    16   11   12 1   
    17   11   19 1   
    18   12   13 1   
    19   12   28 1   
    20   13   14 1   
    21   13   15 1   
    22   14   18 1   
    23   15   29 1   
    24   16   17 1   
    25   16   22 1   
    26   17   30 1   
    27   18   31 1   
    28   21   32 1   
@<TRIPOS>SUBSTRUCTURE
     1 BRW         1 TEMP              0 ****  ****    0 ROOT
