@<TRIPOS>MOLECULE
BRW
   32    35     1     0     0
SMALL
bcc


@<TRIPOS>ATOM
      1 C1         -0.1050    0.0090   -0.0710 ca        1 BRW     -0.222900
      2 C2          1.3670   -0.0310   -0.1890 cc        1 BRW      0.446200
      3 C3         -0.4240   -0.0310    1.3280 ca        1 BRW      0.028800
      4 N4          0.7570   -0.1460    2.0770 na        1 BRW     -0.235400
      5 C5         -1.7490    0.0080    1.7580 ca        1 BRW     -0.165000
      6 C7         -2.7470    0.0810    0.7790 ca        1 BRW     -0.080000
      7 C9         -2.4400    0.1160   -0.5790 ca        1 BRW     -0.170000
      8 C11        -1.1090    0.0800   -1.0180 ca        1 BRW     -0.044000
      9 C13         1.8810   -0.1170    1.2340 cc        1 BRW      0.073300
     10 C14         3.1600   -0.1350    1.7050 cd        1 BRW     -0.197400
     11 C15         3.4530    0.0940    3.1680 c         1 BRW      0.711700
     12 N16         4.8490    0.1860    3.3220 ns        1 BRW     -0.467100
     13 C17         5.4710   -0.0750    2.0910 ca        1 BRW      0.048600
     14 C18         4.4660   -0.2950    1.0690 ca        1 BRW     -0.047800
     15 C19         6.8310   -0.1510    1.8140 ca        1 BRW     -0.147000
     16 C20         7.2160   -0.4750    0.5040 ca        1 BRW      0.004100
     17 C21         6.2640   -0.7370   -0.4760 ca        1 BRW     -0.138000
     18 C22         4.8910   -0.6580   -0.1960 ca        1 BRW     -0.077000
     19 O23         2.6600    0.2280    4.1150 o         1 BRW     -0.644500
     20 N24         2.1430    0.0590   -1.2340 n2        1 BRW     -0.404200
     21 O39         1.5580    0.1770   -2.4000 oh        1 BRW     -0.337500
     22 Br21        9.0420   -0.5700    0.0890 br        1 BRW     -0.088100
     23 H4          0.8150   -0.0000    3.0590 hn        1 BRW      0.335700
     24 H5         -2.0080   -0.0190    2.8250 ha        1 BRW      0.147000
     25 H7         -3.8010    0.1120    1.0990 ha        1 BRW      0.137000
     26 H9         -3.2490    0.1730   -1.3210 ha        1 BRW      0.139000
     27 H11        -0.8650    0.1100   -2.0910 ha        1 BRW      0.153000
     28 H16         5.3220    0.2730    4.1820 hn        1 BRW      0.343500
     29 H19         7.5800    0.0320    2.5970 ha        1 BRW      0.152000
     30 H21         6.5780   -1.0150   -1.4940 ha        1 BRW      0.146000
     31 H22         4.1870   -0.9150   -0.9970 ha        1 BRW      0.155000
     32 H39         2.2980    0.2510   -3.0380 ho        1 BRW      0.447000
@<TRIPOS>BOND
     1    1    2 1   
     2    1    3 ar  
     3    1    8 ar  
     4    2    9 1   
     5    2   20 2   
     6    3    4 1   
     7    3    5 ar  
     8    4    9 1   
     9    4   23 1   
    10    5    6 ar  
    11    5   24 1   
    12    6    7 ar  
    13    6   25 1   
    14    7    8 ar  
    15    7   26 1   
    16    8   27 1   
    17    9   10 2   
    18   10   11 1   
    19   10   14 1   
    20   11   12 1   
    21   11   19 2   
    22   12   13 1   
    23   12   28 1   
    24   13   14 ar  
    25   13   15 ar  
    26   14   18 ar  
    27   15   16 ar  
    28   15   29 1   
    29   16   17 ar  
    30   16   22 1   
    31   17   18 ar  
    32   17   30 1   
    33   18   31 1   
    34   20   21 1   
    35   21   32 1   
@<TRIPOS>SUBSTRUCTURE
     1 BRW         1 TEMP              0 ****  ****    0 ROOT
