@<TRIPOS>MOLECULE
BRW
   32    35     1     0     0
SMALL
bcc


@<TRIPOS>ATOM
      1 C1         -0.1060    0.0070   -0.0690 ca        1 BRW     -0.222900
      2 C2          1.3660   -0.0320   -0.1880 cc        1 BRW      0.446200
      3 C3         -0.4240   -0.0330    1.3290 ca        1 BRW      0.028800
      4 N4          0.7580   -0.1470    2.0780 na        1 BRW     -0.235400
      5 C5         -1.7480    0.0050    1.7610 ca        1 BRW     -0.165000
      6 C7         -2.7470    0.0770    0.7820 ca        1 BRW     -0.080000
      7 C9         -2.4410    0.1110   -0.5760 ca        1 BRW     -0.170000
      8 C11        -1.1100    0.0770   -1.0160 ca        1 BRW     -0.044000
      9 C13         1.8820   -0.1170    1.2350 cc        1 BRW      0.073300
     10 C14         3.1600   -0.1340    1.7050 cd        1 BRW     -0.197400
     11 C15         3.4550    0.0960    3.1680 c         1 BRW      0.711700
     12 N16         4.8500    0.1890    3.3200 n         1 BRW     -0.467100
     13 C17         5.4710   -0.0720    2.0880 ca        1 BRW      0.048600
     14 C18         4.4660   -0.2930    1.0670 ca        1 BRW     -0.047800
     15 C19         6.8310   -0.1470    1.8110 ca        1 BRW     -0.147000
     16 C20         7.2160   -0.4710    0.5010 ca        1 BRW      0.004100
     17 C21         6.2630   -0.7350   -0.4780 ca        1 BRW     -0.138000
     18 C22         4.8910   -0.6570   -0.1970 ca        1 BRW     -0.077000
     19 O23         2.6620    0.2290    4.1140 o         1 BRW     -0.644500
     20 N24         2.1420    0.0590   -1.2340 n2        1 BRW     -0.404200
     21 O39         1.5560    0.1760   -2.3990 oh        1 BRW     -0.337500
     22 BR21        9.0410   -0.5650    0.0850 br        1 BRW     -0.088100
     23 H4          0.8160   -0.0010    3.0600 hn        1 BRW      0.335700
     24 H5         -2.0060   -0.0230    2.8280 ha        1 BRW      0.147000
     25 H7         -3.8010    0.1070    1.1020 ha        1 BRW      0.137000
     26 H9         -3.2510    0.1680   -1.3180 ha        1 BRW      0.139000
     27 H11        -0.8670    0.1070   -2.0890 ha        1 BRW      0.153000
     28 H16         5.3240    0.2760    4.1800 hn        1 BRW      0.343500
     29 H19         7.5820    0.0370    2.5940 ha        1 BRW      0.152000
     30 H21         6.5770   -1.0130   -1.4960 ha        1 BRW      0.146000
     31 H22         4.1860   -0.9140   -0.9980 ha        1 BRW      0.155000
     32 H39         2.2960    0.2510   -3.0380 ho        1 BRW      0.447000
@<TRIPOS>BOND
     1    1    2 1   
     2    1    3 ar  
     3    1    8 ar  
     4    2    9 1   
     5    2   20 2   
     6    3    4 1   
     7    3    5 ar  
     8    4    9 1   
     9    4   23 1   
    10    5    6 ar  
    11    5   24 1   
    12    6    7 ar  
    13    6   25 1   
    14    7    8 ar  
    15    7   26 1   
    16    8   27 1   
    17    9   10 2   
    18   10   11 1   
    19   10   14 1   
    20   11   12 1   
    21   11   19 2   
    22   12   13 1   
    23   12   28 1   
    24   13   14 ar  
    25   13   15 ar  
    26   14   18 ar  
    27   15   16 ar  
    28   15   29 1   
    29   16   17 ar  
    30   16   22 1   
    31   17   18 ar  
    32   17   30 1   
    33   18   31 1   
    34   20   21 1   
    35   21   32 1   
@<TRIPOS>SUBSTRUCTURE
     1 BRW         1 TEMP              0 ****  ****    0 ROOT
