@<TRIPOS>MOLECULE
BRW
   32    35     1     0     0
SMALL
bcc


@<TRIPOS>ATOM
      1 C1         -3.8430    0.8980    0.0040 ca        1 BRW     -0.222900
      2 C2         -2.3690    0.9510    0.0840 cc        1 BRW      0.446200
      3 C3         -4.2120   -0.4750   -0.1910 ca        1 BRW      0.028800
      4 N4         -3.0550   -1.2640   -0.2870 na        1 BRW     -0.235400
      5 C5         -5.5510   -0.8460   -0.2900 ca        1 BRW     -0.165000
      6 C7         -6.5130    0.1670   -0.2000 ca        1 BRW     -0.080000
      7 C9         -6.1570    1.5010   -0.0170 ca        1 BRW     -0.170000
      8 C11        -4.8110    1.8800    0.0880 ca        1 BRW     -0.044000
      9 C13        -1.9050   -0.4810   -0.0960 cc        1 BRW      0.073300
     10 C14        -0.6480   -1.0060   -0.0630 cd        1 BRW     -0.197400
     11 C15        -0.4310   -2.4960    0.0500 c         1 BRW      0.711700
     12 N16         0.9460   -2.7210    0.2300 n         1 BRW     -0.467100
     13 C17         1.6340   -1.5010    0.1320 ca        1 BRW      0.048600
     14 C18         0.6900   -0.4180   -0.0650 ca        1 BRW     -0.047800
     15 C19         3.0060   -1.2820    0.1840 ca        1 BRW     -0.147000
     16 C20         3.4660    0.0320    0.0140 ca        1 BRW      0.004100
     17 C21         2.5760    1.0750   -0.2250 ca        1 BRW     -0.138000
     18 C22         1.1920    0.8520   -0.2760 ca        1 BRW     -0.077000
     19 O23        -1.2690   -3.4130    0.0340 o         1 BRW     -0.644500
     20 N24        -1.5620    1.9470    0.3290 n2        1 BRW     -0.404200
     21 O39        -2.1090    3.1230    0.5110 oh        1 BRW     -0.337500
     22 BR21        5.3080    0.3700    0.0940 br        1 BRW     -0.088100
     23 H4         -3.0480   -2.2570   -0.2300 hn        1 BRW      0.335700
     24 H5         -5.8490   -1.8930   -0.4370 ha        1 BRW      0.147000
     25 H7         -7.5780   -0.1050   -0.2780 ha        1 BRW      0.137000
     26 H9         -6.9390    2.2710    0.0500 ha        1 BRW      0.139000
     27 H11        -4.5290    2.9330    0.2370 ha        1 BRW      0.153000
     28 H16         1.3770   -3.6070    0.2710 hn        1 BRW      0.343500
     29 H19         3.7080   -2.1120    0.3480 ha        1 BRW      0.152000
     30 H21         2.9500    2.0990   -0.3830 ha        1 BRW      0.146000
     31 H22         0.5410    1.7060   -0.5080 ha        1 BRW      0.155000
     32 H39        -1.3520    3.7180    0.7000 ho        1 BRW      0.447000
@<TRIPOS>BOND
     1    1    2 1   
     2    1    3 ar  
     3    1    8 ar  
     4    2    9 1   
     5    2   20 2   
     6    3    4 1   
     7    3    5 ar  
     8    4    9 1   
     9    4   23 1   
    10    5    6 ar  
    11    5   24 1   
    12    6    7 ar  
    13    6   25 1   
    14    7    8 ar  
    15    7   26 1   
    16    8   27 1   
    17    9   10 2   
    18   10   11 1   
    19   10   14 1   
    20   11   12 1   
    21   11   19 2   
    22   12   13 1   
    23   12   28 1   
    24   13   14 ar  
    25   13   15 ar  
    26   14   18 ar  
    27   15   16 ar  
    28   15   29 1   
    29   16   17 ar  
    30   16   22 1   
    31   17   18 ar  
    32   17   30 1   
    33   18   31 1   
    34   20   21 1   
    35   21   32 1   
@<TRIPOS>SUBSTRUCTURE
     1 BRW         1 TEMP              0 ****  ****    0 ROOT
