@<TRIPOS>MOLECULE
BRX
   32    32     1     0     0
SMALL
bcc


@<TRIPOS>ATOM
      1 O2         40.8310   39.0120  -11.2950 o         1 BRX     -0.569100
      2 C2         39.6000   38.8680  -11.3990 c         1 BRX      0.668100
      3 N2         38.9380   39.1500  -12.5850 n         1 BRX     -0.538900
      4 C3         39.6000   39.8660  -13.6530 c3        1 BRX      0.019700
      5 C4         38.9540   41.2430  -13.9430 c3        1 BRX      0.106400
      6 O4         38.7560   41.9980  -12.7700 oh        1 BRX     -0.591800
      7 C5         39.5970   39.0780  -14.9920 c3        1 BRX      0.178400
      8 O5         38.2710   38.9410  -15.4760 oh        1 BRX     -0.592800
      9 C6         40.3190   37.7620  -14.9560 ca        1 BRX     -0.082300
     10 C11        39.9400   36.7730  -15.8770 ca        1 BRX     -0.131000
     11 C10        40.6020   35.5520  -15.9280 ca        1 BRX     -0.067000
     12 C9         41.6680   35.3160  -15.0430 ca        1 BRX     -0.173200
     13 N9         42.3850   34.0150  -15.0890 no        1 BRX      0.312200
     14 O9B        43.3080   33.8320  -14.3420 o         1 BRX     -0.207000
     15 O9A        42.0240   33.1790  -15.8740 o         1 BRX     -0.207000
     16 C8         42.0600   36.2950  -14.1180 ca        1 BRX     -0.067000
     17 C7         41.3810   37.5130  -14.0830 ca        1 BRX     -0.131000
     18 C1         38.7470   38.3030  -10.2720 c3        1 BRX     -0.045900
     19 BR1        39.1800   36.4620   -9.9370 br        1 BRX     -0.061900
     20 BR2        38.8920   39.3610   -8.6760 br        1 BRX     -0.061900
     21 H2         37.9480   39.2570  -12.5560 hn        1 BRX      0.313500
     22 H1         37.6590   38.3070  -10.5230 h2        1 BRX      0.112700
     23 H3         40.6780   40.0420  -13.3550 h1        1 BRX      0.093700
     24 H41C       39.6070   41.7960  -14.6690 h1        1 BRX      0.065700
     25 H42C       37.9280   41.1140  -14.3830 h1        1 BRX      0.065700
     26 H5         40.0990   39.7340  -15.7670 h1        1 BRX      0.094700
     27 H4         39.6250   42.1860  -12.3920 ho        1 BRX      0.407000
     28 HA         37.8320   38.2620  -14.9480 ho        1 BRX      0.409000
     29 H11        39.1100   36.9710  -16.5750 ha        1 BRX      0.164000
     30 H7         41.6910   38.2630  -13.3350 ha        1 BRX      0.164000
     31 H10        40.2990   34.7790  -16.6540 ha        1 BRX      0.174500
     32 H8         42.8950   36.1050  -13.4220 ha        1 BRX      0.174500
@<TRIPOS>BOND
     1    1    2 2   
     2    2    3 1   
     3    2   18 1   
     4    3    4 1   
     5    3   21 1   
     6    4    5 1   
     7    4    7 1   
     8    4   23 1   
     9    5    6 1   
    10    5   24 1   
    11    5   25 1   
    12    6   27 1   
    13    7    8 1   
    14    7    9 1   
    15    7   26 1   
    16    8   28 1   
    17    9   10 ar  
    18    9   17 ar  
    19   10   11 ar  
    20   10   29 1   
    21   11   12 ar  
    22   11   31 1   
    23   12   13 1   
    24   12   16 ar  
    25   13   14 1   
    26   13   15 1   
    27   16   17 ar  
    28   16   32 1   
    29   17   30 1   
    30   18   19 1   
    31   18   20 1   
    32   18   22 1   
@<TRIPOS>SUBSTRUCTURE
     1 BRX         1 TEMP              0 ****  ****    0 ROOT
