@<TRIPOS>MOLECULE
BRX
   32    32     1     0     0
SMALL
bcc


@<TRIPOS>ATOM
      1 O2          0.0160    0.7590   -0.0350 o         1 BRX     -0.568100
      2 C2          1.1360    0.2280   -0.1400 c         1 BRX      0.669100
      3 N2          1.7340   -0.4040    0.9330 n         1 BRX     -0.543900
      4 C3          1.1320   -0.3720    2.2420 c3        1 BRX      0.071700
      5 C4          1.3130    0.9740    2.9780 c3        1 BRX      0.097400
      6 O4          2.6920    1.1480    3.2570 oh        1 BRX     -0.625800
      7 C5          1.6510   -1.5320    3.1430 c3        1 BRX      0.188400
      8 O5          3.0650   -1.6370    3.1010 oh        1 BRX     -0.604800
      9 C6          1.0640   -2.8460    2.7160 ca        1 BRX     -0.043300
     10 C11         1.8560   -3.8450    2.1440 ca        1 BRX     -0.125000
     11 C10         1.2950   -5.0620    1.7630 ca        1 BRX     -0.068000
     12 C9         -0.0780   -5.2750    1.9620 ca        1 BRX     -0.174200
     13 N9         -0.6870   -6.5690    1.5590 no        1 BRX      0.313200
     14 O9B        -1.8610   -6.7440    1.7490 o         1 BRX     -0.208000
     15 O9A         0.0100   -7.4090    1.0550 o         1 BRX     -0.208000
     16 C8         -0.8840   -4.2790    2.5380 ca        1 BRX     -0.068000
     17 C7         -0.3050   -3.0720    2.9140 ca        1 BRX     -0.125000
     18 C1          1.9130    0.2020   -1.4500 c3        1 BRX     -0.041900
     19 BR1         0.8800   -0.5220   -2.8950 br        1 BRX     -0.068400
     20 BR2         2.5780    1.9560   -1.8710 br        1 BRX     -0.068400
     21 H2          2.6930   -0.6640    0.8960 hn        1 BRX      0.328500
     22 H1          2.8170   -0.4520   -1.3890 h2        1 BRX      0.113700
     23 H3          0.0130   -0.5040    2.1110 h1        1 BRX      0.094700
     24 H41C        0.9280    1.8120    2.3370 h1        1 BRX      0.047200
     25 H42C        0.7360    0.9480    3.9410 h1        1 BRX      0.047200
     26 H5          1.3210   -1.3080    4.2000 h1        1 BRX      0.058700
     27 H4          2.8100    2.0590    3.5510 ho        1 BRX      0.418000
     28 HA          3.4210   -0.8230    3.4840 ho        1 BRX      0.435000
     29 H11         2.9360   -3.6710    2.0000 ha        1 BRX      0.156000
     30 H7         -0.9330   -2.2910    3.3690 ha        1 BRX      0.156000
     31 H10         1.9220   -5.8500    1.3120 ha        1 BRX      0.172000
     32 H8         -1.9630   -4.4550    2.6910 ha        1 BRX      0.172000
@<TRIPOS>BOND
     1    1    2 2   
     2    2    3 1   
     3    2   18 1   
     4    3    4 1   
     5    3   21 1   
     6    4    5 1   
     7    4    7 1   
     8    4   23 1   
     9    5    6 1   
    10    5   24 1   
    11    5   25 1   
    12    6   27 1   
    13    7    8 1   
    14    7    9 1   
    15    7   26 1   
    16    8   28 1   
    17    9   10 ar  
    18    9   17 ar  
    19   10   11 ar  
    20   10   29 1   
    21   11   12 ar  
    22   11   31 1   
    23   12   13 1   
    24   12   16 ar  
    25   13   14 1   
    26   13   15 1   
    27   16   17 ar  
    28   16   32 1   
    29   17   30 1   
    30   18   19 1   
    31   18   20 1   
    32   18   22 1   
@<TRIPOS>SUBSTRUCTURE
     1 BRX         1 TEMP              0 ****  ****    0 ROOT
