@<TRIPOS>MOLECULE
BRX
   33    33     1     0     0
SMALL
bcc


@<TRIPOS>ATOM
      1 O2         -0.0740   -0.2400   -0.7810 o         1 BRX     -0.370100
      2 C2          1.0520    0.0680   -0.4300 c         1 BRX      0.557100
      3 N2          1.6300   -0.7610    0.6990 ny        1 BRX     -0.668800
      4 C3          1.0750   -0.3540    2.0360 c3        1 BRX      0.082500
      5 C4          1.5910    1.0450    2.4520 c3        1 BRX      0.119400
      6 O4          2.9580    1.1850    2.1470 oh        1 BRX     -0.607800
      7 C5          1.4600   -1.4010    3.1170 c3        1 BRX      0.175400
      8 O5          2.8780   -1.3730    3.1790 oh        1 BRX     -0.628800
      9 C6          0.9190   -2.7580    2.7820 ca        1 BRX     -0.162300
     10 C11         1.7210   -3.7090    2.1400 ca        1 BRX     -0.135500
     11 C10         1.2190   -4.9740    1.8460 ca        1 BRX     -0.055000
     12 C9         -0.1050   -5.2810    2.1960 ca        1 BRX     -0.149200
     13 N9         -0.6560   -6.6350    1.8760 no        1 BRX      0.312200
     14 O9B        -1.7800   -6.8850    2.2080 o         1 BRX     -0.174000
     15 O9A         0.0490   -7.4100    1.2940 o         1 BRX     -0.174000
     16 C8         -0.9160   -4.3400    2.8480 ca        1 BRX     -0.055000
     17 C7         -0.3950   -3.0790    3.1380 ca        1 BRX     -0.135500
     18 C1          1.9750    1.1230   -0.9670 c3        1 BRX     -0.104900
     19 Br1         3.2100    0.2930   -2.1870 br        1 BRX      0.019600
     20 Br2         1.0560    2.5920   -1.7820 br        1 BRX      0.019600
     21 H2          2.6550   -0.6410    0.7460 hn        1 BRX      0.476800
     22 H1          2.5910    1.5800   -0.1420 h2        1 BRX      0.170700
     23 H3         -0.0520   -0.3320    1.9500 hx        1 BRX      0.128700
     24 H41C        1.0680    1.8440    1.8570 h1        1 BRX      0.090700
     25 H42C        1.3810    1.1900    3.5440 h1        1 BRX      0.090700
     26 H5          1.0270   -1.0460    4.0990 h1        1 BRX      0.097700
     27 H4          3.4760    0.7860    2.8630 ho        1 BRX      0.449000
     28 HA          3.1570   -1.9960    3.8660 ho        1 BRX      0.457000
     29 H11         2.7700   -3.4730    1.8970 ha        1 BRX      0.155500
     30 H7         -1.0270   -2.3440    3.6620 ha        1 BRX      0.155500
     31 H10         1.8550   -5.7310    1.3490 ha        1 BRX      0.194500
     32 H8         -1.9540   -4.5970    3.1330 ha        1 BRX      0.194500
     33 H22         1.4140   -1.7570    0.5470 hn        1 BRX      0.476800
@<TRIPOS>BOND
     1    1    2 2   
     2    2    3 1   
     3    2   18 1   
     4    3    4 1   
     5    3   21 1   
     6    3   33 1   
     7    4    5 1   
     8    4    7 1   
     9    4   23 1   
    10    5    6 1   
    11    5   24 1   
    12    5   25 1   
    13    6   27 1   
    14    7    8 1   
    15    7    9 1   
    16    7   26 1   
    17    8   28 1   
    18    9   10 ar  
    19    9   17 ar  
    20   10   11 ar  
    21   10   29 1   
    22   11   12 ar  
    23   11   31 1   
    24   12   13 1   
    25   12   16 ar  
    26   13   14 1   
    27   13   15 1   
    28   16   17 ar  
    29   16   32 1   
    30   17   30 1   
    31   18   19 1   
    32   18   20 1   
    33   18   22 1   
@<TRIPOS>SUBSTRUCTURE
     1 BRX         1 TEMP              0 ****  ****    0 ROOT
