@<TRIPOS>MOLECULE
BRX
   33    33     1     0     0
SMALL
bcc


@<TRIPOS>ATOM
      1 O2         -0.0180   -0.2350   -0.7890 o         1 BRX     -0.370100
      2 C2          1.1010    0.0690   -0.4150 c         1 BRX      0.557100
      3 N2          1.6550   -0.7650    0.7220 n4        1 BRX     -0.668800
      4 C3          1.0760   -0.3600    2.0490 c3        1 BRX      0.082500
      5 C4          1.5890    1.0360    2.4790 c3        1 BRX      0.119400
      6 O4          2.9610    1.1720    2.2010 oh        1 BRX     -0.607800
      7 C5          1.4360   -1.4120    3.1350 c3        1 BRX      0.175400
      8 O5          2.8530   -1.3890    3.2240 oh        1 BRX     -0.628800
      9 C6          0.8970   -2.7660    2.7850 ca        1 BRX     -0.162300
     10 C11         1.7080   -3.7180    2.1560 ca        1 BRX     -0.135500
     11 C10         1.2080   -4.9810    1.8490 ca        1 BRX     -0.055000
     12 C9         -0.1240   -5.2840    2.1720 ca        1 BRX     -0.149200
     13 N9         -0.6730   -6.6350    1.8370 no        1 BRX      0.312200
     14 O9B        -1.8040   -6.8810    2.1450 o         1 BRX     -0.174000
     15 O9A         0.0410   -7.4110    1.2670 o         1 BRX     -0.174000
     16 C8         -0.9450   -4.3410    2.8100 ca        1 BRX     -0.055000
     17 C7         -0.4250   -3.0840    3.1140 ca        1 BRX     -0.135500
     18 C1          2.0380    1.1230   -0.9310 c3        1 BRX     -0.104900
     19 BR1         3.2930    0.2940   -2.1300 br        1 BRX      0.019600
     20 BR2         1.1380    2.5970   -1.7590 br        1 BRX      0.019600
     21 H2          2.6790   -0.6480    0.7890 hn        1 BRX      0.476800
     22 H1          2.6390    1.5750   -0.0930 h2        1 BRX      0.170700
     23 H3         -0.0490   -0.3340    1.9410 hx        1 BRX      0.128700
     24 H41C        1.3580    1.1780    3.5670 h1        1 BRX      0.090700
     25 H42C        1.0800    1.8390    1.8770 h1        1 BRX      0.090700
     26 H5          0.9850   -1.0580    4.1090 h1        1 BRX      0.097700
     27 H4          3.4640    0.7700    2.9260 ho        1 BRX      0.449000
     28 HA          3.1160   -2.0150    3.9140 ho        1 BRX      0.457000
     29 H11         2.7630   -3.4850    1.9340 ha        1 BRX      0.155500
     30 H7         -1.0650   -2.3480    3.6270 ha        1 BRX      0.155500
     31 H10         1.8510   -5.7380    1.3630 ha        1 BRX      0.194500
     32 H8         -1.9890   -4.5960    3.0730 ha        1 BRX      0.194500
     33 H22         1.4390   -1.7600    0.5640 hn        1 BRX      0.476800
@<TRIPOS>BOND
     1    1    2 2   
     2    2    3 1   
     3    2   18 1   
     4    3    4 1   
     5    3   21 1   
     6    3   33 1   
     7    4    5 1   
     8    4    7 1   
     9    4   23 1   
    10    5    6 1   
    11    5   24 1   
    12    5   25 1   
    13    6   27 1   
    14    7    8 1   
    15    7    9 1   
    16    7   26 1   
    17    8   28 1   
    18    9   10 ar  
    19    9   17 ar  
    20   10   11 ar  
    21   10   29 1   
    22   11   12 ar  
    23   11   31 1   
    24   12   13 1   
    25   12   16 ar  
    26   13   14 1   
    27   13   15 1   
    28   16   17 ar  
    29   16   32 1   
    30   17   30 1   
    31   18   19 1   
    32   18   20 1   
    33   18   22 1   
@<TRIPOS>SUBSTRUCTURE
     1 BRX         1 TEMP              0 ****  ****    0 ROOT
