@<TRIPOS>MOLECULE
BRX
   32    29     1     0     0
SMALL
bcc


@<TRIPOS>ATOM
      1 O2         -0.1290    1.6100   -2.7980 o         1 BRX     -0.334000
      2 C2          0.7060    2.2360   -2.1470 c1        1 BRX      0.310000
      3 N2          0.9870    1.8610   -0.7690 n2        1 BRX     -0.351000
      4 C3         -0.0110    1.2680    0.0120 c3        1 BRX     -0.013000
      5 C4         -0.8260    2.3650    0.7330 c3        1 BRX     -0.022000
      6 O4         -1.8960    2.8090   -0.1330 oh        1 BRX     -0.327000
      7 C5          0.6290    0.3660    1.0290 c3        1 BRX      0.057000
      8 O5          2.0370    0.3420    0.8200 oh        1 BRX     -0.333000
      9 C6          0.0710   -1.0510    0.8870 c2        1 BRX     -0.089000
     10 C11        -1.1730   -1.3680    1.4230 c1        1 BRX     -0.126000
     11 C10        -1.6290   -2.6800    1.3930 c1        1 BRX     -0.067000
     12 C9         -0.8460   -3.6760    0.8290 c1        1 BRX     -0.120000
     13 N9         -1.3190   -4.9670    0.7730 n2        1 BRX      0.458400
     14 O9B        -1.4820   -5.5780   -0.4290 o         1 BRX     -0.298700
     15 O9A        -1.6470   -5.5040    1.7440 o         1 BRX     -0.298700
     16 C8          0.4160   -3.3610    0.2830 c2        1 BRX     -0.066000
     17 C7          0.8700   -2.0680    0.3110 c2        1 BRX     -0.117000
     18 C1          1.5280    3.3360   -2.8200 c3        1 BRX     -0.288000
     19 BR1         2.2760    2.6800   -4.3850 br        1 BRX      0.061500
     20 BR2         0.4150    4.7860   -3.2230 br        1 BRX      0.061500
     21 H2          1.8350    1.9610   -0.4290 hn        1 BRX      0.235000
     22 H1          2.2380    3.6270   -2.2190 h2        1 BRX      0.151000
     23 H3         -0.6330    0.7250   -0.5850 h1        1 BRX      0.125000
     24 H41C       -1.2030    1.9980    1.5580 h1        1 BRX      0.092500
     25 H42C       -0.2400    3.1250    0.9480 h1        1 BRX      0.092500
     26 H5          0.4340    0.7150    1.9590 h1        1 BRX      0.093000
     27 H4         -2.3220    3.4470    0.2410 ho        1 BRX      0.230000
     28 HA          2.4510    0.5020    1.5850 ho        1 BRX      0.219000
     29 H11        -1.7460   -0.6460    1.8340 ha        1 BRX      0.149000
     30 H7          1.7100   -1.8560   -0.0520 ha        1 BRX      0.162000
     31 H10        -2.4990   -2.9010    1.7670 ha        1 BRX      0.175000
     32 H8          0.9980   -4.1030   -0.1360 ha        1 BRX      0.176000
@<TRIPOS>BOND
     1    1    2 1   
     2    2   18 1   
     3    3    4 1   
     4    3   21 1   
     5    4    5 1   
     6    4    7 1   
     7    4   23 1   
     8    5    6 1   
     9    5   24 1   
    10    5   25 1   
    11    6   27 1   
    12    7    8 1   
    13    7    9 1   
    14    7   26 1   
    15    8   28 1   
    16    9   10 1   
    17    9   17 1   
    18   10   29 1   
    19   11   12 1   
    20   11   31 1   
    21   12   16 1   
    22   13   14 2   
    23   13   15 2   
    24   16   17 1   
    25   16   32 1   
    26   17   30 1   
    27   18   19 1   
    28   18   20 1   
    29   18   22 1   
@<TRIPOS>SUBSTRUCTURE
     1 BRX         1 TEMP              0 ****  ****    0 ROOT
