@<TRIPOS>MOLECULE
BRY
   30    33     1     0     0
SMALL
bcc


@<TRIPOS>ATOM
      1 C1         -0.1070    0.0790   -0.0680 ca        1 BRY     -0.248600
      2 C2          1.3640    0.1530   -0.1850 c         1 BRY      0.595900
      3 C3         -0.4280   -0.0520    1.3250 ca        1 BRY      0.061800
      4 N4          0.7470   -0.0640    2.0860 na        1 BRY     -0.248400
      5 C5         -1.7570   -0.1450    1.7420 ca        1 BRY     -0.181000
      6 C7         -2.7490   -0.1070    0.7570 ca        1 BRY     -0.059000
      7 C9         -2.4390    0.0200   -0.5960 ca        1 BRY     -0.185000
      8 C11        -1.1070    0.1140   -1.0210 ca        1 BRY     -0.013000
      9 C13         1.8740    0.0550    1.2570 cc        1 BRY      0.018700
     10 C14         3.1480    0.0720    1.7250 cd        1 BRY     -0.146400
     11 C15         3.4530   -0.0380    3.2030 c         1 BRY      0.708700
     12 N16         4.8500    0.0100    3.3620 n         1 BRY     -0.470100
     13 C17         5.4600    0.1420    2.1060 ca        1 BRY      0.068600
     14 C18         4.4510    0.1840    1.0690 ca        1 BRY     -0.087800
     15 C19         6.8150    0.2270    1.8020 ca        1 BRY     -0.174000
     16 C20         7.1830    0.3550    0.4590 ca        1 BRY     -0.064000
     17 C21         6.2210    0.3970   -0.5470 ca        1 BRY     -0.063900
     18 C22         4.8490    0.3120   -0.2490 ca        1 BRY     -0.045000
     19 O23         2.6650   -0.1520    4.1540 o         1 BRY     -0.633500
     20 O1          2.0350    0.2680   -1.2040 o         1 BRY     -0.491100
     21 BR1         6.7570    0.5700   -2.3340 br        1 BRY     -0.085100
     22 H4          0.7910   -0.1440    3.0740 hn        1 BRY      0.337700
     23 H5         -2.0190   -0.2450    2.8030 ha        1 BRY      0.149000
     24 H7         -3.8040   -0.1790    1.0660 ha        1 BRY      0.139000
     25 H9         -3.2470    0.0470   -1.3420 ha        1 BRY      0.142000
     26 H11        -0.8590    0.2140   -2.0890 ha        1 BRY      0.153000
     27 H16         5.3300   -0.0400    4.2220 hn        1 BRY      0.346500
     28 H19         7.5820    0.1950    2.5870 ha        1 BRY      0.145000
     29 H20         8.2550    0.4230    0.2090 ha        1 BRY      0.148000
     30 H22         4.1110    0.3470   -1.0670 ha        1 BRY      0.183000
@<TRIPOS>BOND
     1    1    2 1   
     2    1    3 ar  
     3    1    8 ar  
     4    2    9 1   
     5    2   20 2   
     6    3    4 1   
     7    3    5 ar  
     8    4    9 1   
     9    4   22 1   
    10    5    6 ar  
    11    5   23 1   
    12    6    7 ar  
    13    6   24 1   
    14    7    8 ar  
    15    7   25 1   
    16    8   26 1   
    17    9   10 2   
    18   10   11 1   
    19   10   14 1   
    20   11   12 1   
    21   11   19 2   
    22   12   13 1   
    23   12   27 1   
    24   13   14 ar  
    25   13   15 ar  
    26   14   18 ar  
    27   15   16 ar  
    28   15   28 1   
    29   16   17 ar  
    30   16   29 1   
    31   17   18 ar  
    32   17   21 1   
    33   18   30 1   
@<TRIPOS>SUBSTRUCTURE
     1 BRY         1 TEMP              0 ****  ****    0 ROOT
