@<TRIPOS>MOLECULE
BRY
   30    27     1     0     0
SMALL
bcc


@<TRIPOS>ATOM
      1 C1         -2.1010   -0.6820   -1.4830 c1        1 BRY     -0.204000
      2 C2         -0.6150   -0.6620   -1.4730 c1        1 BRY      0.296000
      3 C3         -2.5430   -0.7050   -0.1510 c2        1 BRY      0.061000
      4 N4         -1.3380   -0.7010    0.7400 n3        1 BRY     -0.230000
      5 C5         -3.9090   -0.7000    0.1300 c1        1 BRY     -0.165000
      6 C7         -4.8340   -0.6720   -0.9110 c1        1 BRY     -0.121500
      7 C9         -4.3930   -0.6490   -2.2410 c1        1 BRY     -0.121500
      8 C11        -3.0290   -0.6540   -2.5240 c1        1 BRY     -0.025000
      9 C13        -0.1780   -0.6750   -0.0870 c2        1 BRY      0.027000
     10 C14         1.1000   -0.6870    0.3400 c1        1 BRY     -0.119000
     11 C15         1.9180   -1.8680    0.5590 c1        1 BRY      0.347000
     12 N16         3.1980   -1.4380    1.0140 n3        1 BRY     -0.337000
     13 C17         3.1880    0.0590    1.0850 c2        1 BRY      0.096000
     14 C18         1.9210    0.5060    0.6780 c2        1 BRY     -0.098000
     15 C19         4.1640    0.9810    1.4620 c1        1 BRY     -0.178000
     16 C20         3.8820    2.3460    1.4340 c1        1 BRY     -0.056000
     17 C21         2.6170    2.7920    1.0280 c1        1 BRY     -0.211000
     18 C22         1.6400    1.8720    0.6510 c1        1 BRY     -0.051000
     19 O23         1.5560   -3.0210    0.4290 o         1 BRY     -0.276000
     20 O1          0.1060   -0.6400   -2.4500 o         1 BRY     -0.200000
     21 BR1         2.4960    4.6950    1.1630 br        1 BRY      0.053000
     22 H4         -1.3460   -0.7130    1.6510 hn        1 BRY      0.231000
     23 H5         -4.2170   -0.7160    1.0560 ha        1 BRY      0.146000
     24 H7         -5.7900   -0.6680   -0.7140 ha        1 BRY      0.140500
     25 H9         -5.0420   -0.6290   -2.9700 ha        1 BRY      0.140500
     26 H11        -2.7220   -0.6370   -3.4500 ha        1 BRY      0.155000
     27 H16         3.9010   -1.9800    1.2250 hn        1 BRY      0.259000
     28 H19         5.0450    0.6700    1.7450 ha        1 BRY      0.148000
     29 H20         4.5650    2.9910    1.6980 ha        1 BRY      0.150000
     30 H22         0.7600    2.1840    0.3680 ha        1 BRY      0.146000
@<TRIPOS>BOND
     1    1    3 1   
     2    1    8 1   
     3    2    9 1   
     4    2   20 1   
     5    3    4 1   
     6    3    5 1   
     7    4    9 1   
     8    4   22 1   
     9    5   23 1   
    10    6    7 1   
    11    6   24 1   
    12    7   25 1   
    13    8   26 1   
    14    9   10 1   
    15   10   14 1   
    16   11   12 1   
    17   11   19 1   
    18   12   13 1   
    19   12   27 1   
    20   13   14 1   
    21   13   15 1   
    22   14   18 1   
    23   15   28 1   
    24   16   17 1   
    25   16   29 1   
    26   17   21 1   
    27   18   30 1   
@<TRIPOS>SUBSTRUCTURE
     1 BRY         1 TEMP              0 ****  ****    0 ROOT
