@<TRIPOS>MOLECULE
BRY
   30    33     1     0     0
SMALL
bcc


@<TRIPOS>ATOM
      1 C1         -0.1070    0.0810   -0.0680 ca        1 BRY     -0.248600
      2 C2          1.3640    0.1540   -0.1850 c         1 BRY      0.595900
      3 C3         -0.4280   -0.0470    1.3250 ca        1 BRY      0.061800
      4 N4          0.7470   -0.0570    2.0860 na        1 BRY     -0.248400
      5 C5         -1.7570   -0.1380    1.7430 ca        1 BRY     -0.181000
      6 C7         -2.7500   -0.1010    0.7580 ca        1 BRY     -0.059000
      7 C9         -2.4390    0.0230   -0.5960 ca        1 BRY     -0.185000
      8 C11        -1.1080    0.1150   -1.0210 ca        1 BRY     -0.013000
      9 C13         1.8740    0.0580    1.2570 cc        1 BRY      0.018700
     10 C14         3.1480    0.0730    1.7250 cd        1 BRY     -0.146400
     11 C15         3.4540   -0.0370    3.2030 c         1 BRY      0.708700
     12 N16         4.8500    0.0080    3.3610 n         1 BRY     -0.470100
     13 C17         5.4600    0.1380    2.1050 ca        1 BRY      0.068600
     14 C18         4.4510    0.1820    1.0680 ca        1 BRY     -0.087800
     15 C19         6.8150    0.2210    1.8010 ca        1 BRY     -0.174000
     16 C20         7.1840    0.3480    0.4580 ca        1 BRY     -0.064000
     17 C21         6.2210    0.3910   -0.5480 ca        1 BRY     -0.063900
     18 C22         4.8490    0.3090   -0.2490 ca        1 BRY     -0.045000
     19 O23         2.6650   -0.1490    4.1540 o         1 BRY     -0.633500
     20 O1          2.0350    0.2660   -1.2040 o         1 BRY     -0.491100
     21 BR1         6.7570    0.5630   -2.3350 br        1 BRY     -0.085100
     22 H4          0.7900   -0.1390    3.0750 hn        1 BRY      0.337700
     23 H5         -2.0200   -0.2360    2.8050 ha        1 BRY      0.149000
     24 H7         -3.8050   -0.1720    1.0670 ha        1 BRY      0.139000
     25 H9         -3.2470    0.0480   -1.3410 ha        1 BRY      0.142000
     26 H11        -0.8590    0.2120   -2.0890 ha        1 BRY      0.153000
     27 H16         5.3300   -0.0430    4.2210 hn        1 BRY      0.346500
     28 H19         7.5820    0.1870    2.5860 ha        1 BRY      0.145000
     29 H20         8.2550    0.4140    0.2080 ha        1 BRY      0.148000
     30 H22         4.1110    0.3460   -1.0670 ha        1 BRY      0.183000
@<TRIPOS>BOND
     1    1    2 1   
     2    1    3 ar  
     3    1    8 ar  
     4    2    9 1   
     5    2   20 2   
     6    3    4 1   
     7    3    5 ar  
     8    4    9 1   
     9    4   22 1   
    10    5    6 ar  
    11    5   23 1   
    12    6    7 ar  
    13    6   24 1   
    14    7    8 ar  
    15    7   25 1   
    16    8   26 1   
    17    9   10 2   
    18   10   11 1   
    19   10   14 1   
    20   11   12 1   
    21   11   19 2   
    22   12   13 1   
    23   12   27 1   
    24   13   14 ar  
    25   13   15 ar  
    26   14   18 ar  
    27   15   16 ar  
    28   15   28 1   
    29   16   17 ar  
    30   16   29 1   
    31   17   18 ar  
    32   17   21 1   
    33   18   30 1   
@<TRIPOS>SUBSTRUCTURE
     1 BRY         1 TEMP              0 ****  ****    0 ROOT
