@<TRIPOS>MOLECULE
BRY
   30    33     1     0     0
SMALL
bcc


@<TRIPOS>ATOM
      1 C1         -1.3210    0.0090   -3.1520 ca        1 BRY     -0.248600
      2 C2         -1.0150    0.0280   -1.7070 c         1 BRY      0.595900
      3 C3         -0.0750   -0.0490   -3.8620 ca        1 BRY      0.061800
      4 N4          0.9900   -0.0670   -2.9550 na        1 BRY     -0.248400
      5 C5         -0.0530   -0.0790   -5.2580 ca        1 BRY     -0.181000
      6 C7         -1.2820   -0.0510   -5.9260 ca        1 BRY     -0.059000
      7 C9         -2.4930    0.0060   -5.2370 ca        1 BRY     -0.185000
      8 C11        -2.5220    0.0360   -3.8370 ca        1 BRY     -0.013000
      9 C13         0.5150   -0.0230   -1.6340 cc        1 BRY      0.018700
     10 C14         1.3270   -0.0290   -0.5470 cd        1 BRY     -0.146400
     11 C15         2.8340   -0.0840   -0.6800 c         1 BRY      0.708700
     12 N16         3.3850   -0.0760    0.6140 n         1 BRY     -0.470100
     13 C17         2.3520   -0.0200    1.5620 ca        1 BRY      0.068600
     14 C18         1.0690    0.0110    0.8930 ca        1 BRY     -0.087800
     15 C19         2.4460    0.0060    2.9490 ca        1 BRY     -0.174000
     16 C20         1.2620    0.0620    3.6910 ca        1 BRY     -0.064000
     17 C21         0.0210    0.0920    3.0580 ca        1 BRY     -0.063900
     18 C22        -0.0830    0.0660    1.6550 ca        1 BRY     -0.044000
     19 O23         3.5230   -0.1290   -1.7110 o         1 BRY     -0.633500
     20 O1         -1.8020    0.0750   -0.7690 o         1 BRY     -0.491100
     21 BR1        -1.5420    0.1680    4.0880 br        1 BRY     -0.085100
     22 H4          1.9520   -0.1060   -3.1980 hn        1 BRY      0.337700
     23 H5          0.8910   -0.1240   -5.8160 ha        1 BRY      0.149000
     24 H7         -1.2860   -0.0730   -7.0270 ha        1 BRY      0.139000
     25 H9         -3.4390    0.0270   -5.7980 ha        1 BRY      0.142000
     26 H11        -3.4760    0.0810   -3.2910 ha        1 BRY      0.153000
     27 H16         4.3470   -0.1050    0.8260 hn        1 BRY      0.346500
     28 H19         3.4190   -0.0170    3.4590 ha        1 BRY      0.145000
     29 H20         1.3270    0.0830    4.7910 ha        1 BRY      0.148000
     30 H22        -1.0790    0.0910    1.1830 ha        1 BRY      0.183000
@<TRIPOS>BOND
     1    1    2 1   
     2    1    3 ar  
     3    1    8 ar  
     4    2    9 1   
     5    2   20 2   
     6    3    4 1   
     7    3    5 ar  
     8    4    9 1   
     9    4   22 1   
    10    5    6 ar  
    11    5   23 1   
    12    6    7 ar  
    13    6   24 1   
    14    7    8 ar  
    15    7   25 1   
    16    8   26 1   
    17    9   10 2   
    18   10   11 1   
    19   10   14 1   
    20   11   12 1   
    21   11   19 2   
    22   12   13 1   
    23   12   27 1   
    24   13   14 ar  
    25   13   15 ar  
    26   14   18 ar  
    27   15   16 ar  
    28   15   28 1   
    29   16   17 ar  
    30   16   29 1   
    31   17   18 ar  
    32   17   21 1   
    33   18   30 1   
@<TRIPOS>SUBSTRUCTURE
     1 BRY         1 TEMP              0 ****  ****    0 ROOT
