@<TRIPOS>MOLECULE
BRZ
   45    47     1     0     0
SMALL
bcc


@<TRIPOS>ATOM
      1 C1          0.6360   -0.3870   -0.1820 ca        1 BRZ     -0.188800
      2 C2         -0.4490   -1.2860   -0.3030 ca        1 BRZ     -0.026000
      3 C3         -1.7160   -0.7790   -0.4620 ca        1 BRZ     -0.184300
      4 C4         -1.9230    0.6320   -0.5040 ca        1 BRZ      0.161100
      5 C5         -0.8940    1.5480   -0.3910 ca        1 BRZ     -0.177000
      6 C6          0.3990    1.0000   -0.2280 ca        1 BRZ      0.186100
      7 O7          1.4170    1.9160   -0.1180 os        1 BRZ     -0.323200
      8 C8          2.7330    1.4680    0.0420 c         1 BRZ      0.728800
      9 C9          3.0130    0.0320    0.1060 cc        1 BRZ     -0.188400
     10 C10         1.9880   -0.8470   -0.0110 cd        1 BRZ     -0.011200
     11 O11        -3.2510    0.9720   -0.6740 os        1 BRZ     -0.308900
     12 C12        -4.0220   -0.2690   -0.7780 c3        1 BRZ      0.106100
     13 C13        -3.0390   -1.4490   -0.6120 c3        1 BRZ     -0.045100
     14 O14         3.4910    2.4350    0.1030 o         1 BRZ     -0.568500
     15 C15         4.4480   -0.3920    0.2870 c3        1 BRZ      0.039400
     16 C16         5.2680    0.0950   -0.9040 c3        1 BRZ     -0.094600
     17 C17         5.0150    0.2340    1.5640 c3        1 BRZ     -0.094600
     18 C18         4.5300   -1.8840    0.4440 c2        1 BRZ     -0.170200
     19 C19         5.0820   -2.7320   -0.4190 c2        1 BRZ     -0.213000
     20 C20        -5.1690   -0.2170    0.2530 c3        1 BRZ      0.146800
     21 O21        -5.9310   -1.4160    0.1340 oh        1 BRZ     -0.591800
     22 C22        -6.1210    0.9170   -0.1160 c3        1 BRZ     -0.106100
     23 C23        -4.6540   -0.0340    1.6730 c3        1 BRZ     -0.106100
     24 HC2        -0.2630   -2.3700   -0.2690 ha        1 BRZ      0.144000
     25 HC5        -1.0500    2.6330   -0.4250 ha        1 BRZ      0.178000
     26 HC10        2.1530   -1.9370    0.0170 ha        1 BRZ      0.152000
     27 HC12       -4.4600   -0.2580   -1.8120 h1        1 BRZ      0.083700
     28 HC11       -3.2870   -2.0700    0.2850 hc        1 BRZ      0.065700
     29 HC1A       -3.0680   -2.1120   -1.5120 hc        1 BRZ      0.065700
     30 HC61        5.2460    1.2110   -0.9500 hc        1 BRZ      0.047533
     31 HC62        6.3270   -0.2390   -0.7970 hc        1 BRZ      0.047533
     32 HC63        4.8550   -0.3110   -1.8590 hc        1 BRZ      0.047533
     33 HC71        4.4010   -0.0590    2.4480 hc        1 BRZ      0.047533
     34 HC72        6.0620   -0.1200    1.7200 hc        1 BRZ      0.047533
     35 HC73        5.0210    1.3470    1.4780 hc        1 BRZ      0.047533
     36 HC18        4.1020   -2.2500    1.3940 ha        1 BRZ      0.119000
     37 HC91        5.1260   -3.8110   -0.2190 ha        1 BRZ      0.115500
     38 HC92        5.5290   -2.4240   -1.3730 ha        1 BRZ      0.115500
     39 HO21       -5.4260   -2.1210    0.5560 ho        1 BRZ      0.399000
     40 HC21       -5.5440    1.8690   -0.1880 hc        1 BRZ      0.051533
     41 HC22       -6.6080    0.7020   -1.0970 hc        1 BRZ      0.051533
     42 HC23       -6.9140    1.0160    0.6610 hc        1 BRZ      0.051533
     43 HC31       -5.5140   -0.0090    2.3850 hc        1 BRZ      0.051533
     44 HC32       -3.9760   -0.8710    1.9630 hc        1 BRZ      0.051533
     45 HC33       -4.0910    0.9270    1.7440 hc        1 BRZ      0.051533
@<TRIPOS>BOND
     1    1    2 ar  
     2    1    6 ar  
     3    1   10 1   
     4    2    3 ar  
     5    2   24 1   
     6    3    4 ar  
     7    3   13 1   
     8    4    5 ar  
     9    4   11 1   
    10    5    6 ar  
    11    5   25 1   
    12    6    7 1   
    13    7    8 1   
    14    8    9 1   
    15    8   14 2   
    16    9   10 2   
    17    9   15 1   
    18   10   26 1   
    19   11   12 1   
    20   12   13 1   
    21   12   20 1   
    22   12   27 1   
    23   13   28 1   
    24   13   29 1   
    25   15   16 1   
    26   15   17 1   
    27   15   18 1   
    28   16   30 1   
    29   16   31 1   
    30   16   32 1   
    31   17   33 1   
    32   17   34 1   
    33   17   35 1   
    34   18   19 2   
    35   18   36 1   
    36   19   37 1   
    37   19   38 1   
    38   20   21 1   
    39   20   22 1   
    40   20   23 1   
    41   21   39 1   
    42   22   40 1   
    43   22   41 1   
    44   22   42 1   
    45   23   43 1   
    46   23   44 1   
    47   23   45 1   
@<TRIPOS>SUBSTRUCTURE
     1 BRZ         1 TEMP              0 ****  ****    0 ROOT
