@<TRIPOS>MOLECULE
BRZ
   45    47     1     0     0
SMALL
bcc


@<TRIPOS>ATOM
      1 C1          0.0980   -0.2220    0.0090 ca        1 BRZ     -0.187800
      2 C2          1.5030   -0.3820   -0.0050 ca        1 BRZ     -0.029000
      3 C3          2.1740   -0.4560    1.1910 ca        1 BRZ     -0.179300
      4 C4          1.4560   -0.3710    2.4220 ca        1 BRZ      0.158100
      5 C5          0.0840   -0.2150    2.4850 ca        1 BRZ     -0.177000
      6 C6         -0.5820   -0.1430    1.2400 ca        1 BRZ      0.183100
      7 O7         -1.9460    0.0100    1.3100 os        1 BRZ     -0.323200
      8 C8         -2.6910    0.0890    0.1290 c         1 BRZ      0.728800
      9 C9         -2.0150    0.0230   -1.1680 cc        1 BRZ     -0.190400
     10 C10        -0.6700   -0.1350   -1.2040 cd        1 BRZ     -0.010200
     11 O11         2.2790   -0.4670    3.5280 os        1 BRZ     -0.313900
     12 C12         3.6530   -0.6290    3.0500 c3        1 BRZ      0.145100
     13 C13         3.6220   -0.6220    1.5060 c3        1 BRZ     -0.040100
     14 O14        -3.8860    0.2060    0.4040 o         1 BRZ     -0.571500
     15 C15        -2.8690    0.1200   -2.4060 c3        1 BRZ      0.039400
     16 C16        -3.8450   -1.0520   -2.4360 c3        1 BRZ     -0.094600
     17 C17        -3.6680    1.4260   -2.3830 c3        1 BRZ     -0.094600
     18 C18        -2.0010    0.1490   -3.6320 c2        1 BRZ     -0.169200
     19 C19        -1.9280   -0.7990   -4.5620 c2        1 BRZ     -0.214000
     20 C20         4.5140    0.4880    3.6730 c3        1 BRZ      0.142800
     21 O21         5.7950    0.3390    3.0570 oh        1 BRZ     -0.603800
     22 C22         4.6240    0.2620    5.1770 c3        1 BRZ     -0.124600
     23 C23         3.9560    1.8760    3.3900 c3        1 BRZ     -0.124600
     24 HC2         2.0320   -0.4460   -0.9670 ha        1 BRZ      0.144000
     25 HC5        -0.4700   -0.1520    3.4290 ha        1 BRZ      0.176000
     26 HC10       -0.1190   -0.2030   -2.1580 ha        1 BRZ      0.152000
     27 HC12        3.9900   -1.6230    3.4480 h1        1 BRZ      0.080700
     28 HC11        4.2440    0.2120    1.0970 hc        1 BRZ      0.077200
     29 HC1A        4.0250   -1.5850    1.1050 hc        1 BRZ      0.077200
     30 HC61       -3.2950   -2.0230   -2.4130 hc        1 BRZ      0.047200
     31 HC62       -4.4630   -1.0080   -3.3640 hc        1 BRZ      0.047200
     32 HC63       -4.5240   -1.0040   -1.5490 hc        1 BRZ      0.047200
     33 HC71       -4.2620    1.5170   -3.3230 hc        1 BRZ      0.047200
     34 HC72       -4.3670    1.4340   -1.5120 hc        1 BRZ      0.047200
     35 HC73       -2.9820    2.3020   -2.3050 hc        1 BRZ      0.047200
     36 HC18       -1.4110    1.0770   -3.7310 ha        1 BRZ      0.119000
     37 HC91       -2.4960   -1.7380   -4.5190 ha        1 BRZ      0.115500
     38 HC92       -1.2850   -0.6920   -5.4460 ha        1 BRZ      0.115500
     39 HO21        6.3760    0.9870    3.4730 ho        1 BRZ      0.408000
     40 HC21        3.6010    0.2060    5.6200 hc        1 BRZ      0.050367
     41 HC22        5.1830    1.1010    5.6550 hc        1 BRZ      0.050367
     42 HC23        5.1650   -0.6920    5.3830 hc        1 BRZ      0.050367
     43 HC31        4.5830    2.6510    3.8930 hc        1 BRZ      0.050367
     44 HC32        3.9550    2.0770    2.2920 hc        1 BRZ      0.050367
     45 HC33        2.9110    1.9460    3.7760 hc        1 BRZ      0.050367
@<TRIPOS>BOND
     1    1    2 ar  
     2    1    6 ar  
     3    1   10 1   
     4    2    3 ar  
     5    2   24 1   
     6    3    4 ar  
     7    3   13 1   
     8    4    5 ar  
     9    4   11 1   
    10    5    6 ar  
    11    5   25 1   
    12    6    7 1   
    13    7    8 1   
    14    8    9 1   
    15    8   14 2   
    16    9   10 2   
    17    9   15 1   
    18   10   26 1   
    19   11   12 1   
    20   12   13 1   
    21   12   20 1   
    22   12   27 1   
    23   13   28 1   
    24   13   29 1   
    25   15   16 1   
    26   15   17 1   
    27   15   18 1   
    28   16   30 1   
    29   16   31 1   
    30   16   32 1   
    31   17   33 1   
    32   17   34 1   
    33   17   35 1   
    34   18   19 2   
    35   18   36 1   
    36   19   37 1   
    37   19   38 1   
    38   20   21 1   
    39   20   22 1   
    40   20   23 1   
    41   21   39 1   
    42   22   40 1   
    43   22   41 1   
    44   22   42 1   
    45   23   43 1   
    46   23   44 1   
    47   23   45 1   
@<TRIPOS>SUBSTRUCTURE
     1 BRZ         1 TEMP              0 ****  ****    0 ROOT
