@<TRIPOS>MOLECULE
BRZ
   45    42     1     0     0
SMALL
bcc


@<TRIPOS>ATOM
      1 C1         -0.4980   -0.4060   -0.4090 c1        1 BRZ     -0.177000
      2 C2          0.9200   -0.4100   -0.4040 c1        1 BRZ     -0.030000
      3 C3          1.6200   -0.3780    0.8160 c1        1 BRZ     -0.163000
      4 C4          0.9180   -0.3430    2.0240 c1        1 BRZ      0.123000
      5 C5         -0.4850   -0.3390    2.0180 c1        1 BRZ     -0.178000
      6 C6         -1.1930   -0.3710    0.7820 c1        1 BRZ      0.139000
      7 O7         -2.5980   -0.3080    0.7740 os        1 BRZ     -0.188000
      8 C8         -3.2820   -0.2820   -0.4210 c1        1 BRZ      0.344000
      9 C9         -2.5800   -0.3170   -1.6350 c1        1 BRZ     -0.164000
     10 C10        -1.1990   -0.3790   -1.6320 c2        1 BRZ     -0.023000
     11 O11         1.9150   -0.4050    3.1410 os        1 BRZ     -0.191000
     12 C12         3.2170   -0.4070    2.5680 c3        1 BRZ      0.034000
     13 C13         3.0750   -0.3550    1.1320 c3        1 BRZ     -0.127000
     14 O14        -4.4990   -0.2460   -0.4230 o         1 BRZ     -0.299000
     15 C15        -3.3640   -0.2990   -2.9490 c3        1 BRZ      0.030000
     16 C16        -3.3000    1.1300   -3.5750 c3        1 BRZ     -0.210500
     17 C17        -2.7610   -1.2900   -3.9020 c3        1 BRZ     -0.210500
     18 C18        -4.8710   -0.6890   -2.6690 c2        1 BRZ     -0.159000
     19 C19        -5.8000   -0.5660   -3.6550 c1        1 BRZ     -0.220000
     20 C20         4.0030    0.8290    3.0570 c3        1 BRZ      0.071000
     21 O21         3.5340    2.0010    2.3610 oh        1 BRZ     -0.320000
     22 C22         5.4690    0.6350    2.7770 c3        1 BRZ     -0.241500
     23 C23         3.7860    1.0100    4.5850 c3        1 BRZ     -0.241500
     24 HC2         1.4190   -0.4990   -1.2620 ha        1 BRZ      0.142000
     25 HC5        -0.9830   -0.3130    2.8710 ha        1 BRZ      0.176000
     26 HC10       -0.7110   -0.4010   -2.4750 ha        1 BRZ      0.148000
     27 HC12        3.7030   -1.2470    2.8300 h1        1 BRZ      0.110000
     28 HC11        3.5160   -1.1290    0.7270 hc        1 BRZ      0.114500
     29 HC1A        3.4750    0.4730    0.7870 hc        1 BRZ      0.114500
     30 HC61       -2.3760    1.3180   -3.8770 hc        1 BRZ      0.082667
     31 HC62       -3.5640    1.7920   -2.9060 hc        1 BRZ      0.082667
     32 HC63       -3.9080    1.1780   -4.3380 hc        1 BRZ      0.082667
     33 HC71       -3.3860   -1.4680   -4.6200 hc        1 BRZ      0.082667
     34 HC72       -2.5650   -2.1250   -3.4250 hc        1 BRZ      0.082667
     35 HC73       -1.9310   -0.9220   -4.2740 hc        1 BRZ      0.082667
     36 HC18       -5.1380   -1.0220   -1.7760 ha        1 BRZ      0.146000
     37 HC91       -5.5430   -0.2460   -4.5140 DU        1 BRZ      0.109000
     38 HC92       -6.7560   -0.8140   -3.4780 ha        1 BRZ      0.114000
     39 HO21        4.1200    2.6830    2.4920 ho        1 BRZ      0.205000
     40 HC21        5.9630    1.4350    3.0560 hc        1 BRZ      0.088167
     41 HC22        5.8020   -0.1500    3.2800 hc        1 BRZ      0.088167
     42 HC23        5.6000    0.4880    1.8180 hc        1 BRZ      0.088167
     43 HC31        4.1110    0.2120    5.0570 hc        1 BRZ      0.088167
     44 HC32        4.2890    1.8090    4.8990 hc        1 BRZ      0.088167
     45 HC33        2.8360    1.1300    4.7670 hc        1 BRZ      0.088167
@<TRIPOS>BOND
     1    1    6 1   
     2    1   10 1   
     3    2    3 1   
     4    2   24 1   
     5    3   13 1   
     6    4    5 1   
     7    4   11 1   
     8    5   25 1   
     9    6    7 1   
    10    7    8 1   
    11    8   14 1   
    12    9   10 1   
    13    9   15 1   
    14   10   26 1   
    15   11   12 1   
    16   12   13 1   
    17   12   20 1   
    18   12   27 1   
    19   13   28 1   
    20   13   29 1   
    21   15   16 1   
    22   15   17 1   
    23   15   18 1   
    24   16   30 1   
    25   16   31 1   
    26   16   32 1   
    27   17   33 1   
    28   17   34 1   
    29   17   35 1   
    30   18   19 1   
    31   18   36 1   
    32   19   38 1   
    33   20   21 1   
    34   20   22 1   
    35   20   23 1   
    36   21   39 1   
    37   22   40 1   
    38   22   41 1   
    39   22   42 1   
    40   23   43 1   
    41   23   44 1   
    42   23   45 1   
@<TRIPOS>SUBSTRUCTURE
     1 BRZ         1 TEMP              0 ****  ****    0 ROOT
