@<TRIPOS>MOLECULE
BRZ
   45    47     1     0     0
SMALL
bcc


@<TRIPOS>ATOM
      1 C1          0.1010   -0.2160    0.0060 ca        1 BRZ     -0.187800
      2 C2          1.5080   -0.3610   -0.0100 ca        1 BRZ     -0.029000
      3 C3          2.1800   -0.4430    1.1840 ca        1 BRZ     -0.179300
      4 C4          1.4600   -0.3800    2.4160 ca        1 BRZ      0.158100
      5 C5          0.0880   -0.2400    2.4810 ca        1 BRZ     -0.177000
      6 C6         -0.5800   -0.1600    1.2370 ca        1 BRZ      0.183100
      7 O7         -1.9450   -0.0220    1.3080 os        1 BRZ     -0.323200
      8 C8         -2.6910    0.0620    0.1280 c         1 BRZ      0.728800
      9 C9         -2.0140    0.0190   -1.1690 cc        1 BRZ     -0.190400
     10 C10        -0.6670   -0.1230   -1.2070 cd        1 BRZ     -0.010200
     11 O11         2.2850   -0.4810    3.5220 os        1 BRZ     -0.313900
     12 C12         3.6610   -0.6220    3.0420 c3        1 BRZ      0.145100
     13 C13         3.6290   -0.5970    1.4980 c3        1 BRZ     -0.040100
     14 O14        -3.8870    0.1630    0.4050 o         1 BRZ     -0.571500
     15 C15        -2.8690    0.1230   -2.4070 c3        1 BRZ      0.039400
     16 C16        -3.8320   -1.0600   -2.4500 c3        1 BRZ     -0.094600
     17 C17        -3.6820    1.4190   -2.3670 c3        1 BRZ     -0.094600
     18 C18        -2.0010    0.1750   -3.6320 c2        1 BRZ     -0.169200
     19 C19        -1.9180   -0.7610   -4.5730 c2        1 BRZ     -0.214000
     20 C20         4.5090    0.4970    3.6780 c3        1 BRZ      0.142800
     21 O21         5.7920    0.3680    3.0610 oh        1 BRZ     -0.603800
     22 C22         4.6210    0.2540    5.1790 c3        1 BRZ     -0.124600
     23 C23         3.9370    1.8820    3.4120 c3        1 BRZ     -0.124600
     24 HC2         2.0380   -0.4080   -0.9730 ha        1 BRZ      0.144000
     25 HC5        -0.4680   -0.1950    3.4260 ha        1 BRZ      0.176000
     26 HC10       -0.1160   -0.1740   -2.1620 ha        1 BRZ      0.152000
     27 HC12        4.0080   -1.6170    3.4270 h1        1 BRZ      0.080700
     28 HC11        4.2430    0.2490    1.0990 hc        1 BRZ      0.077200
     29 HC1A        4.0430   -1.5500    1.0850 hc        1 BRZ      0.077200
     30 HC61       -4.4500   -1.0110   -3.3780 hc        1 BRZ      0.047200
     31 HC62       -3.2720   -2.0250   -2.4390 hc        1 BRZ      0.047200
     32 HC63       -4.5120   -1.0290   -1.5630 hc        1 BRZ      0.047200
     33 HC71       -4.3820    1.4090   -1.4960 hc        1 BRZ      0.047200
     34 HC72       -4.2770    1.5160   -3.3060 hc        1 BRZ      0.047200
     35 HC73       -3.0050    2.3010   -2.2780 hc        1 BRZ      0.047200
     36 HC18       -1.4210    1.1120   -3.7190 ha        1 BRZ      0.119000
     37 HC91       -2.4750   -1.7060   -4.5410 ha        1 BRZ      0.115500
     38 HC92       -1.2760   -0.6360   -5.4550 ha        1 BRZ      0.115500
     39 HO21        6.3660    1.0180    3.4850 ho        1 BRZ      0.408000
     40 HC21        5.1730   -0.6970    5.3740 hc        1 BRZ      0.050367
     41 HC22        3.5990    0.1810    5.6220 hc        1 BRZ      0.050367
     42 HC23        5.1720    1.0930    5.6680 hc        1 BRZ      0.050367
     43 HC31        4.5550    2.6570    3.9240 hc        1 BRZ      0.050367
     44 HC32        2.8910    1.9360    3.7980 hc        1 BRZ      0.050367
     45 HC33        3.9340    2.0960    2.3170 hc        1 BRZ      0.050367
@<TRIPOS>BOND
     1    1    2 ar  
     2    1    6 ar  
     3    1   10 1   
     4    2    3 ar  
     5    2   24 1   
     6    3    4 ar  
     7    3   13 1   
     8    4    5 ar  
     9    4   11 1   
    10    5    6 ar  
    11    5   25 1   
    12    6    7 1   
    13    7    8 1   
    14    8    9 1   
    15    8   14 2   
    16    9   10 2   
    17    9   15 1   
    18   10   26 1   
    19   11   12 1   
    20   12   13 1   
    21   12   20 1   
    22   12   27 1   
    23   13   28 1   
    24   13   29 1   
    25   15   16 1   
    26   15   17 1   
    27   15   18 1   
    28   16   30 1   
    29   16   31 1   
    30   16   32 1   
    31   17   33 1   
    32   17   34 1   
    33   17   35 1   
    34   18   19 2   
    35   18   36 1   
    36   19   37 1   
    37   19   38 1   
    38   20   21 1   
    39   20   22 1   
    40   20   23 1   
    41   21   39 1   
    42   22   40 1   
    43   22   41 1   
    44   22   42 1   
    45   23   43 1   
    46   23   44 1   
    47   23   45 1   
@<TRIPOS>SUBSTRUCTURE
     1 BRZ         1 TEMP              0 ****  ****    0 ROOT
