@<TRIPOS>MOLECULE
BS1
   56    60     1     0     0
SMALL
bcc


@<TRIPOS>ATOM
      1 C17         5.1510    0.3600   -0.6770 c3        1 BS1      0.091600
      2 N1          3.7930    0.2800   -0.0780 n4        1 BS1     -0.617800
      3 C16         3.9230   -0.2110    1.3140 c3        1 BS1      0.091600
      4 C3          3.0690    1.6270   -0.1920 c3        1 BS1      0.149500
      5 C12         2.7230    1.7490   -1.6950 c3        1 BS1     -0.103400
      6 C13         2.5840    0.3080   -2.1910 c3        1 BS1     -0.103400
      7 C2          2.8630   -0.5740   -0.9500 c3        1 BS1      0.149500
      8 C8          1.7820    1.6030    0.6280 c3        1 BS1     -0.124900
      9 C6          0.8490    0.4430    0.2450 c3        1 BS1      0.141100
     10 C7          1.5560   -0.8420   -0.2100 c3        1 BS1     -0.124900
     11 O1          0.1100    0.1520    1.4250 os        1 BS1     -0.425600
     12 C1         -1.2970   -0.1350    1.2520 c3        1 BS1      0.241700
     13 C5         -1.4510   -1.5520    0.7770 ca        1 BS1     -0.120300
     14 C19        -1.2830   -2.5300    1.7760 ca        1 BS1     -0.120000
     15 C23        -1.3480   -3.8870    1.4780 ca        1 BS1     -0.133000
     16 C26        -1.5800   -4.2970    0.1650 ca        1 BS1     -0.109500
     17 C21        -1.7550   -3.3430   -0.8310 ca        1 BS1     -0.134500
     18 C9         -1.6980   -1.9720   -0.5360 ca        1 BS1     -0.060800
     19 C15        -1.9710   -1.0030   -1.6300 c3        1 BS1     -0.037600
     20 C14        -3.1880   -0.1620   -1.2970 c3        1 BS1     -0.037600
     21 C10        -2.8570    1.0400   -0.4870 ca        1 BS1     -0.060800
     22 C22        -3.4830    2.2430   -0.8690 ca        1 BS1     -0.134500
     23 C25        -3.2590    3.4280   -0.1810 ca        1 BS1     -0.109500
     24 C24        -2.3920    3.4320    0.9130 ca        1 BS1     -0.133000
     25 C18        -1.7760    2.2520    1.3010 ca        1 BS1     -0.120000
     26 C4         -1.9950    1.0370    0.6150 ca        1 BS1     -0.120300
     27 H171        5.6210   -0.6600   -0.6650 hx        1 BS1      0.099200
     28 H172        5.0880    0.7260   -1.7360 hx        1 BS1      0.099200
     29 H173        5.7790    1.0700   -0.0760 hx        1 BS1      0.099200
     30 H161        4.5700    0.5020    1.8910 hx        1 BS1      0.099200
     31 H162        2.9210   -0.2850    1.8170 hx        1 BS1      0.099200
     32 H163        4.3990   -1.2280    1.2960 hx        1 BS1      0.099200
     33 H3          3.7570    2.4410    0.1600 hx        1 BS1      0.106700
     34 H2          3.3880   -1.5320   -1.2100 hx        1 BS1      0.106700
     35 H121        1.7700    2.3200   -1.8230 hc        1 BS1      0.087700
     36 H122        3.5260    2.2970   -2.2470 hc        1 BS1      0.087700
     37 H81C        2.0050    1.5670    1.7280 hc        1 BS1      0.093200
     38 H82C        1.2400    2.5710    0.4490 hc        1 BS1      0.093200
     39 H131        1.5550    0.1050   -2.5780 hc        1 BS1      0.087700
     40 H132        3.3090    0.0840   -3.0110 hc        1 BS1      0.087700
     41 H71C        0.8700   -1.4000   -0.9060 hc        1 BS1      0.093200
     42 H72C        1.7230   -1.5180    0.6700 hc        1 BS1      0.093200
     43 H6          0.1660    0.7940   -0.5800 h1        1 BS1      0.073700
     44 H1         -1.6380   -0.1230    2.3420 h1        1 BS1      0.095700
     45 H19        -1.0970   -2.2140    2.8150 ha        1 BS1      0.137500
     46 H23        -1.2260   -4.6330    2.2780 ha        1 BS1      0.143500
     47 H26        -1.6370   -5.3690   -0.0790 ha        1 BS1      0.146000
     48 H21        -1.9580   -3.6660   -1.8640 ha        1 BS1      0.141500
     49 H151       -1.0770   -0.3460   -1.8000 hc        1 BS1      0.057200
     50 H152       -2.1600   -1.5520   -2.5920 hc        1 BS1      0.057200
     51 H141       -3.6790    0.1530   -2.2590 hc        1 BS1      0.057200
     52 H142       -3.9410   -0.7830   -0.7370 hc        1 BS1      0.057200
     53 H22        -4.1720    2.2390   -1.7290 ha        1 BS1      0.141500
     54 H25        -3.7660    4.3540   -0.4910 ha        1 BS1      0.146000
     55 H24        -2.2100    4.3620    1.4720 ha        1 BS1      0.143500
     56 H18        -1.1010    2.2510    2.1740 ha        1 BS1      0.137500
@<TRIPOS>BOND
     1    1    2 1   
     2    1   27 1   
     3    1   28 1   
     4    1   29 1   
     5    2    3 1   
     6    2    4 1   
     7    2    7 1   
     8    3   30 1   
     9    3   31 1   
    10    3   32 1   
    11    4    5 1   
    12    4    8 1   
    13    4   33 1   
    14    5    6 1   
    15    5   35 1   
    16    5   36 1   
    17    6    7 1   
    18    6   39 1   
    19    6   40 1   
    20    7   10 1   
    21    7   34 1   
    22    8    9 1   
    23    8   37 1   
    24    8   38 1   
    25    9   10 1   
    26    9   11 1   
    27    9   43 1   
    28   10   41 1   
    29   10   42 1   
    30   11   12 1   
    31   12   13 1   
    32   12   26 1   
    33   12   44 1   
    34   13   14 ar  
    35   13   18 ar  
    36   14   15 ar  
    37   14   45 1   
    38   15   16 ar  
    39   15   46 1   
    40   16   17 ar  
    41   16   47 1   
    42   17   18 ar  
    43   17   48 1   
    44   18   19 1   
    45   19   20 1   
    46   19   49 1   
    47   19   50 1   
    48   20   21 1   
    49   20   51 1   
    50   20   52 1   
    51   21   22 ar  
    52   21   26 ar  
    53   22   23 ar  
    54   22   53 1   
    55   23   24 ar  
    56   23   54 1   
    57   24   25 ar  
    58   24   55 1   
    59   25   26 ar  
    60   25   56 1   
@<TRIPOS>SUBSTRUCTURE
     1 BS1         1 TEMP              0 ****  ****    0 ROOT
