@<TRIPOS>MOLECULE
BS1
   56    60     1     0     0
SMALL
bcc


@<TRIPOS>ATOM
      1 C17        -0.1130    0.3150   -0.2810 c3        1 BS1      0.091600
      2 N1          1.3470    0.0770   -0.1310 n4        1 BS1     -0.617800
      3 C16         2.0670    0.9920   -1.0470 c3        1 BS1      0.091600
      4 C3          1.7710    0.2110    1.3360 c3        1 BS1      0.149500
      5 C12         1.1930   -1.0510    2.0190 c3        1 BS1     -0.103400
      6 C13         1.1370   -2.1100    0.9160 c3        1 BS1     -0.103400
      7 C2          1.6800   -1.4050   -0.3490 c3        1 BS1      0.149500
      8 C8          3.2940    0.2000    1.4460 c3        1 BS1     -0.124900
      9 C6          3.9310   -1.0420    0.8000 c3        1 BS1      0.141100
     10 C7          3.1920   -1.5920   -0.4280 c3        1 BS1     -0.124900
     11 O1          5.2290   -0.6260    0.3930 os        1 BS1     -0.425600
     12 C1          6.3060   -1.5660    0.6120 c3        1 BS1      0.241700
     13 C5          6.2730   -2.6070   -0.4720 ca        1 BS1     -0.120300
     14 C19         6.7780   -2.1810   -1.7150 ca        1 BS1     -0.120000
     15 C23         6.7680   -3.0180   -2.8250 ca        1 BS1     -0.133000
     16 C26         6.2450   -4.3060   -2.7150 ca        1 BS1     -0.109500
     17 C21         5.7490   -4.7440   -1.4920 ca        1 BS1     -0.134500
     18 C9          5.7640   -3.9070   -0.3660 ca        1 BS1     -0.060800
     19 C15         5.2920   -4.4610    0.9310 c3        1 BS1     -0.037600
     20 C14         6.4130   -4.4410    1.9510 c3        1 BS1     -0.037600
     21 C10         6.5070   -3.1500    2.6830 ca        1 BS1     -0.060800
     22 C22         6.7110   -3.2330    4.0740 ca        1 BS1     -0.134500
     23 C25         6.8270   -2.0950    4.8590 ca        1 BS1     -0.109500
     24 C24         6.7360   -0.8360    4.2610 ca        1 BS1     -0.133000
     25 C18         6.5420   -0.7440    2.8910 ca        1 BS1     -0.120000
     26 C4          6.4260   -1.8910    2.0760 ca        1 BS1     -0.120300
     27 H171       -0.4120    0.1190   -1.3450 hx        1 BS1      0.099200
     28 H172       -0.6910   -0.3660    0.3980 hx        1 BS1      0.099200
     29 H173       -0.3430    1.3820   -0.0180 hx        1 BS1      0.099200
     30 H161        3.1800    0.8560   -0.9700 hx        1 BS1      0.099200
     31 H162        1.7460    0.7760   -2.1010 hx        1 BS1      0.099200
     32 H163        1.8090    2.0510   -0.7790 hx        1 BS1      0.099200
     33 H3          1.3430    1.1620    1.7530 hx        1 BS1      0.106700
     34 H2          1.1770   -1.7560   -1.2890 hx        1 BS1      0.106700
     35 H121        0.1790   -0.8460    2.4440 hc        1 BS1      0.087700
     36 H122        1.8580   -1.3690    2.8600 hc        1 BS1      0.087700
     37 H81C        3.7370    1.1310    1.0040 hc        1 BS1      0.093200
     38 H82C        3.5610    0.2110    2.5370 hc        1 BS1      0.093200
     39 H131        1.7770   -2.9940    1.1640 hc        1 BS1      0.087700
     40 H132        0.0940   -2.4780    0.7530 hc        1 BS1      0.087700
     41 H71C        3.4040   -2.6940   -0.5070 hc        1 BS1      0.093200
     42 H72C        3.6070   -1.1280   -1.3620 hc        1 BS1      0.093200
     43 H6          3.9960   -1.8540    1.5800 h1        1 BS1      0.073700
     44 H1          7.2040   -0.8950    0.3850 h1        1 BS1      0.095700
     45 H19         7.1910   -1.1630   -1.8100 ha        1 BS1      0.137500
     46 H23         7.1790   -2.6670   -3.7840 ha        1 BS1      0.143500
     47 H26         6.2360   -4.9770   -3.5880 ha        1 BS1      0.146000
     48 H21         5.3540   -5.7680   -1.4000 ha        1 BS1      0.141500
     49 H151        4.4110   -3.8750    1.3070 hc        1 BS1      0.057200
     50 H152        4.9430   -5.5200    0.7930 hc        1 BS1      0.057200
     51 H141        7.3960   -4.6460    1.4440 hc        1 BS1      0.057200
     52 H142        6.2450   -5.2790    2.6820 hc        1 BS1      0.057200
     53 H22         6.7890   -4.2260    4.5450 ha        1 BS1      0.141500
     54 H25         6.9950   -2.1830    5.9440 ha        1 BS1      0.146000
     55 H24         6.8320    0.0750    4.8710 ha        1 BS1      0.143500
     56 H18         6.4840    0.2490    2.4150 ha        1 BS1      0.137500
@<TRIPOS>BOND
     1    1    2 1   
     2    1   27 1   
     3    1   28 1   
     4    1   29 1   
     5    2    3 1   
     6    2    4 1   
     7    2    7 1   
     8    3   30 1   
     9    3   31 1   
    10    3   32 1   
    11    4    5 1   
    12    4    8 1   
    13    4   33 1   
    14    5    6 1   
    15    5   35 1   
    16    5   36 1   
    17    6    7 1   
    18    6   39 1   
    19    6   40 1   
    20    7   10 1   
    21    7   34 1   
    22    8    9 1   
    23    8   37 1   
    24    8   38 1   
    25    9   10 1   
    26    9   11 1   
    27    9   43 1   
    28   10   41 1   
    29   10   42 1   
    30   11   12 1   
    31   12   13 1   
    32   12   26 1   
    33   12   44 1   
    34   13   14 ar  
    35   13   18 ar  
    36   14   15 ar  
    37   14   45 1   
    38   15   16 ar  
    39   15   46 1   
    40   16   17 ar  
    41   16   47 1   
    42   17   18 ar  
    43   17   48 1   
    44   18   19 1   
    45   19   20 1   
    46   19   49 1   
    47   19   50 1   
    48   20   21 1   
    49   20   51 1   
    50   20   52 1   
    51   21   22 ar  
    52   21   26 ar  
    53   22   23 ar  
    54   22   53 1   
    55   23   24 ar  
    56   23   54 1   
    57   24   25 ar  
    58   24   55 1   
    59   25   26 ar  
    60   25   56 1   
@<TRIPOS>SUBSTRUCTURE
     1 BS1         1 TEMP              0 ****  ****    0 ROOT
