@<TRIPOS>MOLECULE
BS1
   56    56     1     0     0
SMALL
bcc


@<TRIPOS>ATOM
      1 C17        -4.9770    0.4330    0.2920 c3        1 BS1     -0.186500
      2 N1         -3.4730    0.3360    0.2430 n4        1 BS1      0.018000
      3 C16        -2.9450    1.5160   -0.4170 c3        1 BS1     -0.186500
      4 C3         -3.0080    0.2980    1.4910 c3        1 BS1     -0.048000
      5 C12        -3.5080   -1.0650    1.9090 c3        1 BS1     -0.182000
      6 C13        -3.5960   -1.8270    0.4760 c3        1 BS1     -0.182000
      7 C2         -3.1450   -0.7260   -0.4750 c3        1 BS1     -0.048000
      8 C8         -1.4990    0.2600    1.6340 c3        1 BS1     -0.205500
      9 C6         -0.7360   -0.4140    0.4310 c3        1 BS1      0.034000
     10 C7         -1.6440   -0.9460   -0.6990 c3        1 BS1     -0.205500
     11 O1          0.1540    0.5410   -0.1250 os        1 BS1     -0.284000
     12 C1          1.4430    0.0250   -0.1360 c3        1 BS1      0.118000
     13 C5          2.2840    0.7460    0.9180 c2        1 BS1     -0.093000
     14 C19         1.7170    1.1600    2.1280 c2        1 BS1     -0.113000
     15 C23         2.4700    1.1400    3.2860 c1        1 BS1     -0.132000
     16 C26         3.7980    0.7050    3.2450 c1        1 BS1     -0.124750
     17 C21         4.3570    0.2950    2.0460 c1        1 BS1     -0.124750
     18 C9          3.6010    0.3150    0.8840 c1        1 BS1     -0.045000
     19 C15         4.2980    0.8080   -0.3490 c3        1 BS1     -0.124000
     20 C14         4.4030   -0.2830   -1.3810 c3        1 BS1     -0.123000
     21 C10         3.0100   -0.7550   -1.8190 c2        1 BS1     -0.059000
     22 C22         3.0360   -1.4030   -3.0790 c2        1 BS1     -0.117000
     23 C25         2.0940   -1.0620   -4.0620 c1        1 BS1     -0.114000
     24 C24         1.1400   -0.0900   -3.8000 c1        1 BS1     -0.124750
     25 C18         1.1140    0.5540   -2.5500 c1        1 BS1     -0.124750
     26 C4          2.0580    0.2130   -1.5610 c1        1 BS1     -0.099000
     27 H171       -5.3660    0.2730   -0.6590 hx        1 BS1      0.140333
     28 H172       -5.3440   -0.2770    0.9320 hx        1 BS1      0.140333
     29 H173       -5.2440    1.3450    0.6160 hx        1 BS1      0.140333
     30 H161       -3.2050    2.2710    0.0440 hx        1 BS1      0.140333
     31 H162       -3.3030    1.5600   -1.3620 hx        1 BS1      0.140333
     32 H163       -1.9060    1.4640   -0.4390 hx        1 BS1      0.140333
     33 H3         -3.4460    1.0760    2.1010 hx        1 BS1      0.148500
     34 H2         -3.6710   -0.7580   -1.3590 hx        1 BS1      0.148500
     35 H121       -4.4110   -0.9990    2.3360 hc        1 BS1      0.127500
     36 H122       -2.8590   -1.5130    2.5110 hc        1 BS1      0.127500
     37 H81C       -1.1710    1.1810    1.7310 hc        1 BS1      0.134000
     38 H82C       -1.2840   -0.2280    2.4390 hc        1 BS1      0.134000
     39 H131       -2.9370   -2.6440    0.4450 hc        1 BS1      0.127500
     40 H132       -4.4950   -2.1010    0.2860 hc        1 BS1      0.127500
     41 H71C       -1.3850   -0.5020   -1.5440 hc        1 BS1      0.134000
     42 H72C       -1.4810   -1.9350   -0.7980 hc        1 BS1      0.134000
     43 H6         -0.2100   -1.1600    0.7810 h1        1 BS1      0.107000
     44 H1          1.4080   -0.9660    0.0870 h1        1 BS1      0.096000
     45 H19         0.7930    1.4630    2.1540 ha        1 BS1      0.132000
     46 H23         2.0480    1.4490    4.1950 ha        1 BS1      0.138000
     47 H26         4.3340    0.6880    4.0620 ha        1 BS1      0.136250
     48 H21         5.2600    0.0030    2.0200 ha        1 BS1      0.136250
     49 H151        5.1600    1.0940   -0.1190 hc        1 BS1      0.102500
     50 H152        3.7890    1.5730   -0.7310 hc        1 BS1      0.102500
     51 H141        4.9120    0.0770   -2.2030 hc        1 BS1      0.091000
     52 H142        4.9100   -1.0620   -0.9920 hc        1 BS1      0.091000
     53 H22         3.6890   -2.0680   -3.2580 ha        1 BS1      0.144000
     54 H25         2.1100   -1.5070   -4.9310 ha        1 BS1      0.144000
     55 H24         0.4560    0.1570   -4.5150 ha        1 BS1      0.136250
     56 H18         0.4050    1.2730   -2.3570 ha        1 BS1      0.136250
@<TRIPOS>BOND
     1    1    2 1   
     2    1   27 1   
     3    1   28 1   
     4    1   29 1   
     5    2    3 1   
     6    2    4 1   
     7    2    7 1   
     8    3   30 1   
     9    3   31 1   
    10    3   32 1   
    11    4    5 1   
    12    4    8 1   
    13    4   33 1   
    14    5    6 1   
    15    5   35 1   
    16    5   36 1   
    17    6    7 1   
    18    6   39 1   
    19    6   40 1   
    20    7   10 1   
    21    7   34 1   
    22    8    9 1   
    23    8   37 1   
    24    8   38 1   
    25    9   10 1   
    26    9   11 1   
    27    9   43 1   
    28   10   41 1   
    29   10   42 1   
    30   11   12 1   
    31   12   13 1   
    32   12   26 1   
    33   12   44 1   
    34   13   14 1   
    35   13   18 1   
    36   14   15 1   
    37   14   45 1   
    38   15   46 1   
    39   16   17 1   
    40   16   47 1   
    41   17   48 1   
    42   18   19 1   
    43   19   20 1   
    44   19   49 1   
    45   19   50 1   
    46   20   21 1   
    47   20   51 1   
    48   20   52 1   
    49   21   22 1   
    50   21   26 1   
    51   22   23 1   
    52   22   53 1   
    53   23   54 1   
    54   24   25 1   
    55   24   55 1   
    56   25   56 1   
@<TRIPOS>SUBSTRUCTURE
     1 BS1         1 TEMP              0 ****  ****    0 ROOT
