@<TRIPOS>MOLECULE
BS1
   56    60     1     0     0
SMALL
bcc


@<TRIPOS>ATOM
      1 C17        -0.1180    0.3130   -0.2670 c3        1 BS1      0.091600
      2 N1          1.3430    0.0750   -0.1210 n4        1 BS1     -0.617800
      3 C16         2.0600    0.9920   -1.0370 c3        1 BS1      0.091600
      4 C3          1.7710    0.2080    1.3450 c3        1 BS1      0.149500
      5 C12         1.1960   -1.0560    2.0280 c3        1 BS1     -0.103400
      6 C13         1.1380   -2.1140    0.9230 c3        1 BS1     -0.103400
      7 C2          1.6770   -1.4060   -0.3420 c3        1 BS1      0.149500
      8 C8          3.2930    0.1970    1.4510 c3        1 BS1     -0.124900
      9 C6          3.9310   -1.0420    0.8020 c3        1 BS1      0.141100
     10 C7          3.1890   -1.5910   -0.4250 c3        1 BS1     -0.124900
     11 O1          5.2270   -0.6250    0.3920 os        1 BS1     -0.425600
     12 C1          6.3060   -1.5630    0.6060 c3        1 BS1      0.241700
     13 C5          6.2700   -2.6030   -0.4790 ca        1 BS1     -0.120300
     14 C19         6.7710   -2.1740   -1.7230 ca        1 BS1     -0.120000
     15 C23         6.7590   -3.0100   -2.8340 ca        1 BS1     -0.133000
     16 C26         6.2370   -4.2990   -2.7250 ca        1 BS1     -0.109500
     17 C21         5.7460   -4.7390   -1.5000 ca        1 BS1     -0.134500
     18 C9          5.7630   -3.9040   -0.3730 ca        1 BS1     -0.060800
     19 C15         5.2960   -4.4600    0.9240 c3        1 BS1     -0.037600
     20 C14         6.4200   -4.4400    1.9410 c3        1 BS1     -0.037600
     21 C10         6.5150   -3.1500    2.6740 ca        1 BS1     -0.060800
     22 C22         6.7230   -3.2350    4.0640 ca        1 BS1     -0.134500
     23 C25         6.8390   -2.0980    4.8510 ca        1 BS1     -0.109500
     24 C24         6.7450   -0.8380    4.2560 ca        1 BS1     -0.133000
     25 C18         6.5470   -0.7440    2.8860 ca        1 BS1     -0.120000
     26 C4          6.4300   -1.8910    2.0700 ca        1 BS1     -0.120300
     27 H171       -0.6930   -0.3710    0.4120 hx        1 BS1      0.099200
     28 H172       -0.3480    1.3790   -0.0010 hx        1 BS1      0.099200
     29 H173       -0.4190    0.1180   -1.3300 hx        1 BS1      0.099200
     30 H161        1.8010    2.0510   -0.7660 hx        1 BS1      0.099200
     31 H162        1.7360    0.7790   -2.0910 hx        1 BS1      0.099200
     32 H163        3.1730    0.8570   -0.9620 hx        1 BS1      0.099200
     33 H3          1.3430    1.1570    1.7650 hx        1 BS1      0.106700
     34 H2          1.1720   -1.7550   -1.2820 hx        1 BS1      0.106700
     35 H121        0.1830   -0.8530    2.4550 hc        1 BS1      0.087700
     36 H122        1.8630   -1.3750    2.8670 hc        1 BS1      0.087700
     37 H81C        3.5640    0.2070    2.5420 hc        1 BS1      0.093200
     38 H82C        3.7350    1.1300    1.0100 hc        1 BS1      0.093200
     39 H131        0.0950   -2.4820    0.7620 hc        1 BS1      0.087700
     40 H132        1.7790   -2.9970    1.1680 hc        1 BS1      0.087700
     41 H71C        3.6010   -1.1260   -1.3600 hc        1 BS1      0.093200
     42 H72C        3.4010   -2.6930   -0.5070 hc        1 BS1      0.093200
     43 H6          3.9980   -1.8550    1.5800 h1        1 BS1      0.073700
     44 H1          7.2020   -0.8910    0.3780 h1        1 BS1      0.095700
     45 H19         7.1820   -1.1560   -1.8180 ha        1 BS1      0.137500
     46 H23         7.1670   -2.6570   -3.7930 ha        1 BS1      0.143500
     47 H26         6.2270   -4.9690   -3.5990 ha        1 BS1      0.146000
     48 H21         5.3530   -5.7640   -1.4090 ha        1 BS1      0.141500
     49 H151        4.9480   -5.5200    0.7860 hc        1 BS1      0.057200
     50 H152        4.4150   -3.8760    1.3030 hc        1 BS1      0.057200
     51 H141        7.4020   -4.6430    1.4300 hc        1 BS1      0.057200
     52 H142        6.2550   -5.2800    2.6710 hc        1 BS1      0.057200
     53 H22         6.8030   -4.2290    4.5340 ha        1 BS1      0.141500
     54 H25         7.0100   -2.1870    5.9350 ha        1 BS1      0.146000
     55 H24         6.8420    0.0720    4.8660 ha        1 BS1      0.143500
     56 H18         6.4870    0.2490    2.4120 ha        1 BS1      0.137500
@<TRIPOS>BOND
     1    1    2 1   
     2    1   27 1   
     3    1   28 1   
     4    1   29 1   
     5    2    3 1   
     6    2    4 1   
     7    2    7 1   
     8    3   30 1   
     9    3   31 1   
    10    3   32 1   
    11    4    5 1   
    12    4    8 1   
    13    4   33 1   
    14    5    6 1   
    15    5   35 1   
    16    5   36 1   
    17    6    7 1   
    18    6   39 1   
    19    6   40 1   
    20    7   10 1   
    21    7   34 1   
    22    8    9 1   
    23    8   37 1   
    24    8   38 1   
    25    9   10 1   
    26    9   11 1   
    27    9   43 1   
    28   10   41 1   
    29   10   42 1   
    30   11   12 1   
    31   12   13 1   
    32   12   26 1   
    33   12   44 1   
    34   13   14 ar  
    35   13   18 ar  
    36   14   15 ar  
    37   14   45 1   
    38   15   16 ar  
    39   15   46 1   
    40   16   17 ar  
    41   16   47 1   
    42   17   18 ar  
    43   17   48 1   
    44   18   19 1   
    45   19   20 1   
    46   19   49 1   
    47   19   50 1   
    48   20   21 1   
    49   20   51 1   
    50   20   52 1   
    51   21   22 ar  
    52   21   26 ar  
    53   22   23 ar  
    54   22   53 1   
    55   23   24 ar  
    56   23   54 1   
    57   24   25 ar  
    58   24   55 1   
    59   25   26 ar  
    60   25   56 1   
@<TRIPOS>SUBSTRUCTURE
     1 BS1         1 TEMP              0 ****  ****    0 ROOT
