@<TRIPOS>MOLECULE
BS1
   56    60     1     0     0
SMALL
bcc


@<TRIPOS>ATOM
      1 C17        -0.1170    0.3080   -0.2810 c3        1 BS1      0.091600
      2 N1          1.3440    0.0720   -0.1300 n4        1 BS1     -0.617800
      3 C16         2.0630    0.9910   -1.0430 c3        1 BS1      0.091600
      4 C3          1.7670    0.2050    1.3380 c3        1 BS1      0.149500
      5 C12         1.1910   -1.0600    2.0180 c3        1 BS1     -0.103400
      6 C13         1.1380   -2.1170    0.9130 c3        1 BS1     -0.103400
      7 C2          1.6810   -1.4080   -0.3500 c3        1 BS1      0.149500
      8 C8          3.2890    0.1960    1.4490 c3        1 BS1     -0.124900
      9 C6          3.9300   -1.0420    0.8020 c3        1 BS1      0.141100
     10 C7          3.1930   -1.5920   -0.4280 c3        1 BS1     -0.124900
     11 O1          5.2270   -0.6240    0.3960 os        1 BS1     -0.425600
     12 C1          6.3060   -1.5610    0.6140 c3        1 BS1      0.241700
     13 C5          6.2750   -2.6010   -0.4720 ca        1 BS1     -0.120300
     14 C19         6.7800   -2.1710   -1.7140 ca        1 BS1     -0.120000
     15 C23         6.7720   -3.0060   -2.8250 ca        1 BS1     -0.133000
     16 C26         6.2520   -4.2960   -2.7190 ca        1 BS1     -0.109500
     17 C21         5.7560   -4.7370   -1.4960 ca        1 BS1     -0.134500
     18 C9          5.7690   -3.9020   -0.3680 ca        1 BS1     -0.060800
     19 C15         5.2970   -4.4590    0.9270 c3        1 BS1     -0.037600
     20 C14         6.4180   -4.4390    1.9480 c3        1 BS1     -0.037600
     21 C10         6.5090   -3.1480    2.6820 ca        1 BS1     -0.060800
     22 C22         6.7130   -3.2330    4.0730 ca        1 BS1     -0.134500
     23 C25         6.8250   -2.0970    4.8610 ca        1 BS1     -0.109500
     24 C24         6.7310   -0.8370    4.2650 ca        1 BS1     -0.133000
     25 C18         6.5380   -0.7430    2.8940 ca        1 BS1     -0.120000
     26 C4          6.4260   -1.8890    2.0780 ca        1 BS1     -0.120300
     27 H171       -0.4140    0.1140   -1.3450 hx        1 BS1      0.099200
     28 H172       -0.3480    1.3740   -0.0150 hx        1 BS1      0.099200
     29 H173       -0.6930   -0.3760    0.3960 hx        1 BS1      0.099200
     30 H161        1.8030    2.0490   -0.7730 hx        1 BS1      0.099200
     31 H162        1.7430    0.7770   -2.0980 hx        1 BS1      0.099200
     32 H163        3.1760    0.8570   -0.9650 hx        1 BS1      0.099200
     33 H3          1.3360    1.1540    1.7560 hx        1 BS1      0.106700
     34 H2          1.1790   -1.7580   -1.2920 hx        1 BS1      0.106700
     35 H121        0.1760   -0.8580    2.4420 hc        1 BS1      0.087700
     36 H122        1.8550   -1.3780    2.8590 hc        1 BS1      0.087700
     37 H81C        3.5560    0.2060    2.5400 hc        1 BS1      0.093200
     38 H82C        3.7310    1.1290    1.0090 hc        1 BS1      0.093200
     39 H131        1.7790   -2.9990    1.1600 hc        1 BS1      0.087700
     40 H132        0.0960   -2.4860    0.7480 hc        1 BS1      0.087700
     41 H71C        3.6080   -1.1260   -1.3610 hc        1 BS1      0.093200
     42 H72C        3.4070   -2.6940   -0.5100 hc        1 BS1      0.093200
     43 H6          3.9950   -1.8560    1.5790 h1        1 BS1      0.073700
     44 H1          7.2020   -0.8890    0.3890 h1        1 BS1      0.095700
     45 H19         7.1910   -1.1530   -1.8070 ha        1 BS1      0.137500
     46 H23         7.1830   -2.6530   -3.7830 ha        1 BS1      0.143500
     47 H26         6.2440   -4.9650   -3.5920 ha        1 BS1      0.146000
     48 H21         5.3640   -5.7620   -1.4060 ha        1 BS1      0.141500
     49 H151        4.4150   -3.8750    1.3040 hc        1 BS1      0.057200
     50 H152        4.9510   -5.5190    0.7870 hc        1 BS1      0.057200
     51 H141        7.4020   -4.6400    1.4400 hc        1 BS1      0.057200
     52 H142        6.2520   -5.2780    2.6770 hc        1 BS1      0.057200
     53 H22         6.7920   -4.2270    4.5430 ha        1 BS1      0.141500
     54 H25         6.9920   -2.1860    5.9450 ha        1 BS1      0.146000
     55 H24         6.8250    0.0730    4.8760 ha        1 BS1      0.143500
     56 H18         6.4790    0.2510    2.4200 ha        1 BS1      0.137500
@<TRIPOS>BOND
     1    1    2 1   
     2    1   27 1   
     3    1   28 1   
     4    1   29 1   
     5    2    3 1   
     6    2    4 1   
     7    2    7 1   
     8    3   30 1   
     9    3   31 1   
    10    3   32 1   
    11    4    5 1   
    12    4    8 1   
    13    4   33 1   
    14    5    6 1   
    15    5   35 1   
    16    5   36 1   
    17    6    7 1   
    18    6   39 1   
    19    6   40 1   
    20    7   10 1   
    21    7   34 1   
    22    8    9 1   
    23    8   37 1   
    24    8   38 1   
    25    9   10 1   
    26    9   11 1   
    27    9   43 1   
    28   10   41 1   
    29   10   42 1   
    30   11   12 1   
    31   12   13 1   
    32   12   26 1   
    33   12   44 1   
    34   13   14 ar  
    35   13   18 ar  
    36   14   15 ar  
    37   14   45 1   
    38   15   16 ar  
    39   15   46 1   
    40   16   17 ar  
    41   16   47 1   
    42   17   18 ar  
    43   17   48 1   
    44   18   19 1   
    45   19   20 1   
    46   19   49 1   
    47   19   50 1   
    48   20   21 1   
    49   20   51 1   
    50   20   52 1   
    51   21   22 ar  
    52   21   26 ar  
    53   22   23 ar  
    54   22   53 1   
    55   23   24 ar  
    56   23   54 1   
    57   24   25 ar  
    58   24   55 1   
    59   25   26 ar  
    60   25   56 1   
@<TRIPOS>SUBSTRUCTURE
     1 BS1         1 TEMP              0 ****  ****    0 ROOT
