@<TRIPOS>MOLECULE
BS2
   63    68     1     0     0
SMALL
bcc


@<TRIPOS>ATOM
      1 CAY        -0.1910    0.3580    0.3830 ca        1 BS2     -0.120800
      2 CAL         0.9720    1.0450    0.7750 ca        1 BS2     -0.121000
      3 CAF         1.3390    1.1340    2.1140 ca        1 BS2     -0.133500
      4 CAD         0.5470    0.5290    3.0910 ca        1 BS2     -0.108000
      5 CAJ        -0.6100   -0.1460    2.7180 ca        1 BS2     -0.132500
      6 CAW        -0.9900   -0.2310    1.3710 ca        1 BS2     -0.058800
      7 CAN        -2.2740   -0.9010    1.0320 c3        1 BS2     -0.039100
      8 CAO        -3.2390    0.0960    0.4230 c3        1 BS2     -0.039100
      9 CAX        -3.0590    0.2640   -1.0440 ca        1 BS2     -0.058800
     10 CAK        -4.2420    0.3930   -1.8000 ca        1 BS2     -0.132500
     11 CAE        -4.2100    0.5710   -3.1750 ca        1 BS2     -0.108000
     12 CAG        -2.9780    0.6240   -3.8310 ca        1 BS2     -0.133500
     13 CAM        -1.8080    0.5060   -3.0950 ca        1 BS2     -0.121000
     14 CAZ        -1.8220    0.3250   -1.6940 ca        1 BS2     -0.120800
     15 CBD        -0.4380    0.2970   -1.0960 c3        1 BS2      0.241700
     16 OAU         0.3360   -0.7550   -1.7140 os        1 BS2     -0.434600
     17 CBA         0.2290   -2.0660   -1.1710 c3        1 BS2      0.136100
     18 CAT         1.6200   -2.7010   -1.3250 c3        1 BS2     -0.124900
     19 CAS        -0.9000   -2.8410   -1.8640 c3        1 BS2     -0.124900
     20 CBB        -0.4660   -3.5490   -3.1480 c3        1 BS2      0.145000
     21 CAP         0.1030   -2.5360   -4.1640 c3        1 BS2     -0.096400
     22 CAQ         1.5950   -2.4380   -3.8370 c3        1 BS2     -0.096400
     23 CBC         1.8180   -3.4150   -2.6630 c3        1 BS2      0.145000
     24 NBE         0.7120   -4.4550   -2.8070 n4        1 BS2     -0.705400
     25 CAR         0.9900   -5.4840   -3.8520 c3        1 BS2      0.176100
     26 CAV         1.9890   -6.4920   -3.3910 ca        1 BS2     -0.173300
     27 CAH         1.5810   -7.5480   -2.5660 ca        1 BS2     -0.107000
     28 CAB         2.5030   -8.5140   -2.1660 ca        1 BS2     -0.117500
     29 CAA         3.8310   -8.4310   -2.5900 ca        1 BS2     -0.085000
     30 CAC         4.2370   -7.3800   -3.4140 ca        1 BS2     -0.117500
     31 CAI         3.3200   -6.4090   -3.8140 ca        1 BS2     -0.107000
     32 HAL         1.6050    1.5230    0.0100 ha        1 BS2      0.135500
     33 HBD         0.0860    1.2100   -1.5450 h1        1 BS2      0.090700
     34 HAF         2.2480    1.6830    2.4010 ha        1 BS2      0.143500
     35 HAD         0.8320    0.5950    4.1520 ha        1 BS2      0.146000
     36 HAJ        -1.2430   -0.6100    3.4900 ha        1 BS2      0.142500
     37 HAN1       -2.0960   -1.7480    0.3150 hc        1 BS2      0.057950
     38 HAN2       -2.7350   -1.3430    1.9560 hc        1 BS2      0.057950
     39 HAO1       -4.2880   -0.2470    0.6370 hc        1 BS2      0.057950
     40 HAO2       -3.1180    1.0990    0.9200 hc        1 BS2      0.057950
     41 HAK        -5.2140    0.3590   -1.2820 ha        1 BS2      0.142500
     42 HAE        -5.1460    0.6780   -3.7440 ha        1 BS2      0.146000
     43 HAG        -2.9370    0.7760   -4.9200 ha        1 BS2      0.143500
     44 HAM        -0.8350    0.5750   -3.6100 ha        1 BS2      0.135500
     45 HBA        -0.0050   -2.0120   -0.0680 h1        1 BS2      0.085700
     46 HAT1        2.3970   -1.8920   -1.2500 hc        1 BS2      0.089950
     47 HAT2        1.7920   -3.4140   -0.4770 hc        1 BS2      0.089950
     48 HAS1       -1.3320   -3.5860   -1.1450 hc        1 BS2      0.089950
     49 HAS2       -1.7180   -2.1140   -2.1320 hc        1 BS2      0.089950
     50 HBC         2.8150   -3.9320   -2.7120 hx        1 BS2      0.108200
     51 HBB        -1.3020   -4.1630   -3.5770 hx        1 BS2      0.108200
     52 HAP1       -0.0650   -2.8860   -5.2110 hc        1 BS2      0.091200
     53 HAP2       -0.4040   -1.5450   -4.0300 hc        1 BS2      0.091200
     54 HAQ1        2.2280   -2.7180   -4.7140 hc        1 BS2      0.091200
     55 HAQ2        1.8670   -1.3980   -3.5190 hc        1 BS2      0.091200
     56 HAR1        1.3520   -4.9490   -4.7770 hx        1 BS2      0.100700
     57 HAR2        0.0120   -5.9940   -4.0920 hx        1 BS2      0.100700
     58 HAH         0.5310   -7.6280   -2.2460 ha        1 BS2      0.136000
     59 HAI         3.6430   -5.5900   -4.4740 ha        1 BS2      0.136000
     60 HAB         2.1810   -9.3470   -1.5220 ha        1 BS2      0.157000
     61 HAA         4.5570   -9.1990   -2.2770 ha        1 BS2      0.158000
     62 HAC         5.2830   -7.3200   -3.7540 ha        1 BS2      0.157000
     63 HBE         0.5560   -4.9240   -1.9110 hn        1 BS2      0.445800
@<TRIPOS>BOND
     1    1    2 ar  
     2    1    6 ar  
     3    1   15 1   
     4    2    3 ar  
     5    2   32 1   
     6    3    4 ar  
     7    3   34 1   
     8    4    5 ar  
     9    4   35 1   
    10    5    6 ar  
    11    5   36 1   
    12    6    7 1   
    13    7    8 1   
    14    7   37 1   
    15    7   38 1   
    16    8    9 1   
    17    8   39 1   
    18    8   40 1   
    19    9   10 ar  
    20    9   14 ar  
    21   10   11 ar  
    22   10   41 1   
    23   11   12 ar  
    24   11   42 1   
    25   12   13 ar  
    26   12   43 1   
    27   13   14 ar  
    28   13   44 1   
    29   14   15 1   
    30   15   16 1   
    31   15   33 1   
    32   16   17 1   
    33   17   18 1   
    34   17   19 1   
    35   17   45 1   
    36   18   23 1   
    37   18   46 1   
    38   18   47 1   
    39   19   20 1   
    40   19   48 1   
    41   19   49 1   
    42   20   21 1   
    43   20   24 1   
    44   20   51 1   
    45   21   22 1   
    46   21   52 1   
    47   21   53 1   
    48   22   23 1   
    49   22   54 1   
    50   22   55 1   
    51   23   24 1   
    52   23   50 1   
    53   24   25 1   
    54   24   63 1   
    55   25   26 1   
    56   25   56 1   
    57   25   57 1   
    58   26   27 ar  
    59   26   31 ar  
    60   27   28 ar  
    61   27   58 1   
    62   28   29 ar  
    63   28   60 1   
    64   29   30 ar  
    65   29   61 1   
    66   30   31 ar  
    67   30   62 1   
    68   31   59 1   
@<TRIPOS>SUBSTRUCTURE
     1 BS2         1 TEMP              0 ****  ****    0 ROOT
