@<TRIPOS>MOLECULE
BS2
   63    68     1     0     0
SMALL
bcc


@<TRIPOS>ATOM
      1 CAY        -2.7690    1.8000   -0.3930 ca        1 BS2     -0.120800
      2 CAL        -2.7810    2.8920   -1.2800 ca        1 BS2     -0.121000
      3 CAF        -3.0240    4.1840   -0.8270 ca        1 BS2     -0.133500
      4 CAD        -3.2540    4.4120    0.5300 ca        1 BS2     -0.108000
      5 CAJ        -3.2520    3.3410    1.4170 ca        1 BS2     -0.132500
      6 CAW        -3.0170    2.0340    0.9660 ca        1 BS2     -0.058800
      7 CAN        -3.0990    0.9150    1.9430 c3        1 BS2     -0.039100
      8 CAO        -4.2440   -0.0090    1.5840 c3        1 BS2     -0.039100
      9 CAX        -3.8690   -1.0470    0.5860 ca        1 BS2     -0.058800
     10 CAK        -4.4070   -2.3310    0.7980 ca        1 BS2     -0.132500
     11 CAE        -4.1470   -3.3820   -0.0700 ca        1 BS2     -0.108000
     12 CAG        -3.3300   -3.1660   -1.1820 ca        1 BS2     -0.133500
     13 CAM        -2.8010   -1.9030   -1.4040 ca        1 BS2     -0.121000
     14 CAZ        -3.0570   -0.8220   -0.5310 ca        1 BS2     -0.120800
     15 CBD        -2.4430    0.4710   -1.0080 c3        1 BS2      0.241700
     16 OAU        -1.0170    0.3010   -1.1660 os        1 BS2     -0.434600
     17 CBA        -0.1930    0.4960   -0.0220 c3        1 BS2      0.136100
     18 CAT         1.1130    1.1160   -0.5430 c3        1 BS2     -0.124900
     19 CAS        -0.0090   -0.8250    0.7370 c3        1 BS2     -0.124900
     20 CBB         1.1470   -1.6810    0.2130 c3        1 BS2      0.145000
     21 CAP         0.9430   -2.0180   -1.2790 c3        1 BS2     -0.096400
     22 CAQ         1.5930   -0.8610   -2.0420 c3        1 BS2     -0.096400
     23 CBC         2.1580    0.0760   -0.9520 c3        1 BS2      0.145000
     24 NBE         2.4110   -0.8310    0.2470 n4        1 BS2     -0.705400
     25 CAR         3.6670   -1.6310    0.1380 c3        1 BS2      0.176100
     26 CAV         4.8810   -0.8050    0.4030 ca        1 BS2     -0.173300
     27 CAH         5.2590   -0.5290    1.7230 ca        1 BS2     -0.107000
     28 CAB         6.4150    0.2080    1.9750 ca        1 BS2     -0.117500
     29 CAA         7.1950    0.6690    0.9130 ca        1 BS2     -0.085000
     30 CAC         6.8200    0.3930   -0.4020 ca        1 BS2     -0.117500
     31 CAI         5.6630   -0.3410   -0.6600 ca        1 BS2     -0.107000
     32 HAL        -2.5980    2.7220   -2.3530 ha        1 BS2      0.135500
     33 HBD        -2.7500    0.5440   -2.1080 h1        1 BS2      0.090700
     34 HAF        -3.0380    5.0230   -1.5390 ha        1 BS2      0.143500
     35 HAD        -3.4460    5.4330    0.8960 ha        1 BS2      0.146000
     36 HAJ        -3.4490    3.5180    2.4860 ha        1 BS2      0.142500
     37 HAN1       -2.1340    0.3400    1.9600 hc        1 BS2      0.057950
     38 HAN2       -3.2610    1.3180    2.9790 hc        1 BS2      0.057950
     39 HAO1       -4.6090   -0.5060    2.5250 hc        1 BS2      0.057950
     40 HAO2       -5.1070    0.5880    1.1780 hc        1 BS2      0.057950
     41 HAK        -5.0590   -2.5010    1.6710 ha        1 BS2      0.142500
     42 HAE        -4.5860   -4.3750    0.1110 ha        1 BS2      0.146000
     43 HAG        -3.1240   -3.9860   -1.8850 ha        1 BS2      0.143500
     44 HAM        -2.1790   -1.7250   -2.2970 ha        1 BS2      0.135500
     45 HBA        -0.6720    1.2410    0.6790 h1        1 BS2      0.085700
     46 HAT1        0.8800    1.7420   -1.4470 hc        1 BS2      0.089950
     47 HAT2        1.5330    1.7980    0.2420 hc        1 BS2      0.089950
     48 HAS1        0.1410   -0.6080    1.8270 hc        1 BS2      0.089950
     49 HAS2       -0.9550   -1.4280    0.6370 hc        1 BS2      0.089950
     50 HBC         3.1260    0.5600   -1.2560 hx        1 BS2      0.108200
     51 HBB         1.2920   -2.5980    0.8450 hx        1 BS2      0.108200
     52 HAP1        1.4190   -2.9960   -1.5340 hc        1 BS2      0.091200
     53 HAP2       -0.1530   -2.0820   -1.5040 hc        1 BS2      0.091200
     54 HAQ1        2.4050   -1.2190   -2.7200 hc        1 BS2      0.091200
     55 HAQ2        0.8330   -0.3110   -2.6550 hc        1 BS2      0.091200
     56 HAR1        3.5990   -2.4690    0.8920 hx        1 BS2      0.100700
     57 HAR2        3.7010   -2.0810   -0.8960 hx        1 BS2      0.100700
     58 HAH         4.6580   -0.9080    2.5630 ha        1 BS2      0.136000
     59 HAI         5.3780   -0.5670   -1.6990 ha        1 BS2      0.136000
     60 HAB         6.7150    0.4190    3.0140 ha        1 BS2      0.157000
     61 HAA         8.1120    1.2470    1.1150 ha        1 BS2      0.158000
     62 HAC         7.4400    0.7500   -1.2390 ha        1 BS2      0.157000
     63 HBE         2.4460   -0.2720    1.1040 hn        1 BS2      0.445800
@<TRIPOS>BOND
     1    1    2 ar  
     2    1    6 ar  
     3    1   15 1   
     4    2    3 ar  
     5    2   32 1   
     6    3    4 ar  
     7    3   34 1   
     8    4    5 ar  
     9    4   35 1   
    10    5    6 ar  
    11    5   36 1   
    12    6    7 1   
    13    7    8 1   
    14    7   37 1   
    15    7   38 1   
    16    8    9 1   
    17    8   39 1   
    18    8   40 1   
    19    9   10 ar  
    20    9   14 ar  
    21   10   11 ar  
    22   10   41 1   
    23   11   12 ar  
    24   11   42 1   
    25   12   13 ar  
    26   12   43 1   
    27   13   14 ar  
    28   13   44 1   
    29   14   15 1   
    30   15   16 1   
    31   15   33 1   
    32   16   17 1   
    33   17   18 1   
    34   17   19 1   
    35   17   45 1   
    36   18   23 1   
    37   18   46 1   
    38   18   47 1   
    39   19   20 1   
    40   19   48 1   
    41   19   49 1   
    42   20   21 1   
    43   20   24 1   
    44   20   51 1   
    45   21   22 1   
    46   21   52 1   
    47   21   53 1   
    48   22   23 1   
    49   22   54 1   
    50   22   55 1   
    51   23   24 1   
    52   23   50 1   
    53   24   25 1   
    54   24   63 1   
    55   25   26 1   
    56   25   56 1   
    57   25   57 1   
    58   26   27 ar  
    59   26   31 ar  
    60   27   28 ar  
    61   27   58 1   
    62   28   29 ar  
    63   28   60 1   
    64   29   30 ar  
    65   29   61 1   
    66   30   31 ar  
    67   30   62 1   
    68   31   59 1   
@<TRIPOS>SUBSTRUCTURE
     1 BS2         1 TEMP              0 ****  ****    0 ROOT
