@<TRIPOS>MOLECULE
BS2
   63    68     1     0     0
SMALL
bcc


@<TRIPOS>ATOM
      1 CAY        -0.1900    0.2600    0.2650 ca        1 BS2     -0.120800
      2 CAL         1.1030    0.7720    0.4870 ca        1 BS2     -0.121000
      3 CAF         1.6660    0.7900    1.7580 ca        1 BS2     -0.133500
      4 CAD         0.9450    0.2860    2.8410 ca        1 BS2     -0.108000
      5 CAJ        -0.3360   -0.2140    2.6390 ca        1 BS2     -0.132500
      6 CAW        -0.9160   -0.2250    1.3600 ca        1 BS2     -0.058800
      7 CAN        -2.3200   -0.6980    1.2310 c3        1 BS2     -0.039100
      8 CAO        -3.1960    0.4010    0.6640 c3        1 BS2     -0.039100
      9 CAX        -3.2090    0.4060   -0.8230 ca        1 BS2     -0.058800
     10 CAK        -4.4670    0.5380   -1.4420 ca        1 BS2     -0.132500
     11 CAE        -4.5970    0.5670   -2.8230 ca        1 BS2     -0.108000
     12 CAG        -3.4550    0.4640   -3.6210 ca        1 BS2     -0.133500
     13 CAM        -2.2110    0.3410   -3.0210 ca        1 BS2     -0.121000
     14 CAZ        -2.0610    0.3050   -1.6170 ca        1 BS2     -0.120800
     15 CBD        -0.6230    0.2590   -1.1730 c3        1 BS2      0.241700
     16 OAU         0.0740   -0.7900   -1.8850 os        1 BS2     -0.434600
     17 CBA        -0.1270   -2.1220   -1.4190 c3        1 BS2      0.136100
     18 CAT         1.2620   -2.7550   -1.2520 c3        1 BS2     -0.124900
     19 CAS        -1.0450   -2.8630   -2.4020 c3        1 BS2     -0.124900
     20 CBB        -0.2980   -3.5000   -3.5760 c3        1 BS2      0.145000
     21 CAP         0.4930   -2.4330   -4.3630 c3        1 BS2     -0.096400
     22 CAQ         1.8590   -2.3600   -3.6760 c3        1 BS2     -0.096400
     23 CBC         1.7940   -3.3990   -2.5350 c3        1 BS2      0.145000
     24 NBE         0.7690   -4.4260   -3.0030 n4        1 BS2     -0.705400
     25 CAR         1.3070   -5.3980   -4.0000 c3        1 BS2      0.176100
     26 CAV         2.1710   -6.4330   -3.3620 ca        1 BS2     -0.173300
     27 CAH         1.5830   -7.5310   -2.7210 ca        1 BS2     -0.107000
     28 CAB         2.3860   -8.5200   -2.1590 ca        1 BS2     -0.117500
     29 CAA         3.7770   -8.4190   -2.2360 ca        1 BS2     -0.085000
     30 CAC         4.3640   -7.3260   -2.8750 ca        1 BS2     -0.117500
     31 CAI         3.5640   -6.3320   -3.4360 ca        1 BS2     -0.107000
     32 HAL         1.6790    1.1690   -0.3640 ha        1 BS2      0.135500
     33 HBD        -0.1450    1.1780   -1.6560 h1        1 BS2      0.090700
     34 HAF         2.6740    1.2060    1.9090 ha        1 BS2      0.143500
     35 HAD         1.3830    0.2940    3.8500 ha        1 BS2      0.146000
     36 HAJ        -0.9120   -0.5970    3.4960 ha        1 BS2      0.142500
     37 HAN1       -2.7170   -1.0000    2.2380 hc        1 BS2      0.057950
     38 HAN2       -2.3720   -1.6090    0.5760 hc        1 BS2      0.057950
     39 HAO1       -4.2420    0.2630    1.0530 hc        1 BS2      0.057950
     40 HAO2       -2.8430    1.4040    1.0310 hc        1 BS2      0.057950
     41 HAK        -5.3670    0.6270   -0.8120 ha        1 BS2      0.142500
     42 HAE        -5.5890    0.6780   -3.2860 ha        1 BS2      0.146000
     43 HAG        -3.5420    0.4980   -4.7170 ha        1 BS2      0.143500
     44 HAM        -1.3080    0.2840   -3.6490 ha        1 BS2      0.135500
     45 HBA        -0.6280   -2.1110   -0.4080 h1        1 BS2      0.085700
     46 HAT1        1.9880   -1.9550   -0.9430 hc        1 BS2      0.089950
     47 HAT2        1.2240   -3.5140   -0.4280 hc        1 BS2      0.089950
     48 HAS1       -1.7840   -2.1240   -2.8220 hc        1 BS2      0.089950
     49 HAS2       -1.6250   -3.6460   -1.8470 hc        1 BS2      0.089950
     50 HBC         2.7770   -3.9150   -2.3620 hx        1 BS2      0.108200
     51 HBB        -0.9960   -4.0870   -4.2310 hx        1 BS2      0.108200
     52 HAP1        0.5890   -2.7220   -5.4370 hc        1 BS2      0.091200
     53 HAP2       -0.0370   -1.4480   -4.3010 hc        1 BS2      0.091200
     54 HAQ1        2.6890   -2.5990   -4.3850 hc        1 BS2      0.091200
     55 HAQ2        2.0380   -1.3410   -3.2480 hc        1 BS2      0.091200
     56 HAR1        0.4230   -5.8900   -4.5030 hx        1 BS2      0.100700
     57 HAR2        1.8810   -4.8150   -4.7770 hx        1 BS2      0.100700
     58 HAH         0.4870   -7.6250   -2.6770 ha        1 BS2      0.136000
     59 HAI         4.0320   -5.4780   -3.9510 ha        1 BS2      0.136000
     60 HAB         1.9230   -9.3870   -1.6610 ha        1 BS2      0.157000
     61 HAA         4.4110   -9.2060   -1.7950 ha        1 BS2      0.158000
     62 HAC         5.4610   -7.2510   -2.9420 ha        1 BS2      0.157000
     63 HBE         0.4020   -4.9420   -2.1990 hn        1 BS2      0.445800
@<TRIPOS>BOND
     1    1    2 ar  
     2    1    6 ar  
     3    1   15 1   
     4    2    3 ar  
     5    2   32 1   
     6    3    4 ar  
     7    3   34 1   
     8    4    5 ar  
     9    4   35 1   
    10    5    6 ar  
    11    5   36 1   
    12    6    7 1   
    13    7    8 1   
    14    7   37 1   
    15    7   38 1   
    16    8    9 1   
    17    8   39 1   
    18    8   40 1   
    19    9   10 ar  
    20    9   14 ar  
    21   10   11 ar  
    22   10   41 1   
    23   11   12 ar  
    24   11   42 1   
    25   12   13 ar  
    26   12   43 1   
    27   13   14 ar  
    28   13   44 1   
    29   14   15 1   
    30   15   16 1   
    31   15   33 1   
    32   16   17 1   
    33   17   18 1   
    34   17   19 1   
    35   17   45 1   
    36   18   23 1   
    37   18   46 1   
    38   18   47 1   
    39   19   20 1   
    40   19   48 1   
    41   19   49 1   
    42   20   21 1   
    43   20   24 1   
    44   20   51 1   
    45   21   22 1   
    46   21   52 1   
    47   21   53 1   
    48   22   23 1   
    49   22   54 1   
    50   22   55 1   
    51   23   24 1   
    52   23   50 1   
    53   24   25 1   
    54   24   63 1   
    55   25   26 1   
    56   25   56 1   
    57   25   57 1   
    58   26   27 ar  
    59   26   31 ar  
    60   27   28 ar  
    61   27   58 1   
    62   28   29 ar  
    63   28   60 1   
    64   29   30 ar  
    65   29   61 1   
    66   30   31 ar  
    67   30   62 1   
    68   31   59 1   
@<TRIPOS>SUBSTRUCTURE
     1 BS2         1 TEMP              0 ****  ****    0 ROOT
