@<TRIPOS>MOLECULE
BS2
   63    68     1     0     0
SMALL
bcc


@<TRIPOS>ATOM
      1 CAY        -0.1880    0.3520    0.3920 ca        1 BS2     -0.120800
      2 CAL         0.9770    1.0310    0.7920 ca        1 BS2     -0.121000
      3 CAF         1.3380    1.1130    2.1330 ca        1 BS2     -0.133500
      4 CAD         0.5400    0.5090    3.1040 ca        1 BS2     -0.108000
      5 CAJ        -0.6190   -0.1600    2.7240 ca        1 BS2     -0.132500
      6 CAW        -0.9940   -0.2380    1.3740 ca        1 BS2     -0.058800
      7 CAN        -2.2790   -0.9010    1.0270 c3        1 BS2     -0.039100
      8 CAO        -3.2360    0.1030    0.4180 c3        1 BS2     -0.039100
      9 CAX        -3.0500    0.2760   -1.0480 ca        1 BS2     -0.058800
     10 CAK        -4.2290    0.4130   -1.8080 ca        1 BS2     -0.132500
     11 CAE        -4.1900    0.5960   -3.1830 ca        1 BS2     -0.108000
     12 CAG        -2.9550    0.6460   -3.8330 ca        1 BS2     -0.133500
     13 CAM        -1.7890    0.5200   -3.0930 ca        1 BS2     -0.121000
     14 CAZ        -1.8100    0.3330   -1.6920 ca        1 BS2     -0.120800
     15 CBD        -0.4290    0.2970   -1.0880 c3        1 BS2      0.241700
     16 OAU         0.3440   -0.7560   -1.7060 os        1 BS2     -0.434600
     17 CBA         0.2280   -2.0680   -1.1690 c3        1 BS2      0.136100
     18 CAT         1.6170   -2.7090   -1.3190 c3        1 BS2     -0.124900
     19 CAS        -0.9020   -2.8360   -1.8700 c3        1 BS2     -0.124900
     20 CBB        -0.4640   -3.5410   -3.1560 c3        1 BS2      0.145000
     21 CAP         0.1140   -2.5270   -4.1650 c3        1 BS2     -0.096400
     22 CAQ         1.6050   -2.4360   -3.8310 c3        1 BS2     -0.096400
     23 CBC         1.8180   -3.4190   -2.6590 c3        1 BS2      0.145000
     24 NBE         0.7080   -4.4540   -2.8120 nx        1 BS2     -0.705400
     25 CAR         0.9870   -5.4800   -3.8600 c3        1 BS2      0.176100
     26 CAV         1.9780   -6.4950   -3.3980 ca        1 BS2     -0.173300
     27 CAH         1.5620   -7.5510   -2.5790 ca        1 BS2     -0.107000
     28 CAB         2.4770   -8.5230   -2.1790 ca        1 BS2     -0.117500
     29 CAA         3.8070   -8.4440   -2.5950 ca        1 BS2     -0.085000
     30 CAC         4.2230   -7.3920   -3.4130 ca        1 BS2     -0.117500
     31 CAI         3.3120   -6.4160   -3.8130 ca        1 BS2     -0.107000
     32 HAL         1.6150    1.5100    0.0320 ha        1 BS2      0.135500
     33 HBD         0.1020    1.2090   -1.5310 h1        1 BS2      0.090700
     34 HAF         2.2490    1.6580    2.4250 ha        1 BS2      0.143500
     35 HAD         0.8200    0.5690    4.1670 ha        1 BS2      0.146000
     36 HAJ        -1.2580   -0.6240    3.4910 ha        1 BS2      0.142500
     37 HAN1       -2.1020   -1.7460    0.3080 hc        1 BS2      0.057950
     38 HAN2       -2.7460   -1.3440    1.9480 hc        1 BS2      0.057950
     39 HAO1       -3.1130    1.1030    0.9190 hc        1 BS2      0.057950
     40 HAO2       -4.2880   -0.2360    0.6270 hc        1 BS2      0.057950
     41 HAK        -5.2030    0.3820   -1.2940 ha        1 BS2      0.142500
     42 HAE        -5.1230    0.7090   -3.7550 ha        1 BS2      0.146000
     43 HAG        -2.9090    0.8020   -4.9210 ha        1 BS2      0.143500
     44 HAM        -0.8140    0.5860   -3.6020 ha        1 BS2      0.135500
     45 HBA        -0.0110   -2.0180   -0.0670 h1        1 BS2      0.085700
     46 HAT1        1.7820   -3.4260   -0.4730 hc        1 BS2      0.089950
     47 HAT2        2.3970   -1.9040   -1.2380 hc        1 BS2      0.089950
     48 HAS1       -1.7140   -2.1040   -2.1390 hc        1 BS2      0.089950
     49 HAS2       -1.3400   -3.5810   -1.1560 hc        1 BS2      0.089950
     50 HBC         2.8130   -3.9400   -2.7060 hx        1 BS2      0.108200
     51 HBB        -1.3020   -4.1500   -3.5900 hx        1 BS2      0.108200
     52 HAP1       -0.0510   -2.8720   -5.2140 hc        1 BS2      0.091200
     53 HAP2       -0.3890   -1.5340   -4.0290 hc        1 BS2      0.091200
     54 HAQ1        1.8790   -1.3990   -3.5080 hc        1 BS2      0.091200
     55 HAQ2        2.2400   -2.7160   -4.7060 hc        1 BS2      0.091200
     56 HAR1        0.0070   -5.9840   -4.1070 hx        1 BS2      0.100700
     57 HAR2        1.3550   -4.9430   -4.7810 hx        1 BS2      0.100700
     58 HAH         0.5100   -7.6280   -2.2650 ha        1 BS2      0.136000
     59 HAI         3.6420   -5.5950   -4.4690 ha        1 BS2      0.136000
     60 HAB         2.1480   -9.3570   -1.5400 ha        1 BS2      0.157000
     61 HAA         4.5280   -9.2170   -2.2820 ha        1 BS2      0.158000
     62 HAC         5.2710   -7.3350   -3.7480 ha        1 BS2      0.157000
     63 HBE         0.5460   -4.9250   -1.9180 hn        1 BS2      0.445800
@<TRIPOS>BOND
     1    1    2 ar  
     2    1    6 ar  
     3    1   15 1   
     4    2    3 ar  
     5    2   32 1   
     6    3    4 ar  
     7    3   34 1   
     8    4    5 ar  
     9    4   35 1   
    10    5    6 ar  
    11    5   36 1   
    12    6    7 1   
    13    7    8 1   
    14    7   37 1   
    15    7   38 1   
    16    8    9 1   
    17    8   39 1   
    18    8   40 1   
    19    9   10 ar  
    20    9   14 ar  
    21   10   11 ar  
    22   10   41 1   
    23   11   12 ar  
    24   11   42 1   
    25   12   13 ar  
    26   12   43 1   
    27   13   14 ar  
    28   13   44 1   
    29   14   15 1   
    30   15   16 1   
    31   15   33 1   
    32   16   17 1   
    33   17   18 1   
    34   17   19 1   
    35   17   45 1   
    36   18   23 1   
    37   18   46 1   
    38   18   47 1   
    39   19   20 1   
    40   19   48 1   
    41   19   49 1   
    42   20   21 1   
    43   20   24 1   
    44   20   51 1   
    45   21   22 1   
    46   21   52 1   
    47   21   53 1   
    48   22   23 1   
    49   22   54 1   
    50   22   55 1   
    51   23   24 1   
    52   23   50 1   
    53   24   25 1   
    54   24   63 1   
    55   25   26 1   
    56   25   56 1   
    57   25   57 1   
    58   26   27 ar  
    59   26   31 ar  
    60   27   28 ar  
    61   27   58 1   
    62   28   29 ar  
    63   28   60 1   
    64   29   30 ar  
    65   29   61 1   
    66   30   31 ar  
    67   30   62 1   
    68   31   59 1   
@<TRIPOS>SUBSTRUCTURE
     1 BS2         1 TEMP              0 ****  ****    0 ROOT
