@<TRIPOS>MOLECULE
BS2
   63    61     1     0     0
SMALL
bcc


@<TRIPOS>ATOM
      1 CAY        -2.2790    2.2360    1.5910 c1        1 BS2     -0.079000
      2 CAL        -1.9140    3.1000    0.5440 c1        1 BS2     -0.117250
      3 CAF        -2.8830    3.5630   -0.3450 c1        1 BS2     -0.117250
      4 CAD        -4.2410    3.1610   -0.1950 c1        1 BS2     -0.117250
      5 CAJ        -4.6000    2.3100    0.8360 c1        1 BS2     -0.117250
      6 CAW        -3.6210    1.8390    1.7400 c1        1 BS2     -0.044000
      7 CAN        -4.0230    1.7860    3.2220 c3        1 BS2     -0.125000
      8 CAO        -3.0910    0.8670    4.0050 c3        1 BS2     -0.123000
      9 CAX        -1.6360    1.4350    4.0250 c2        1 BS2     -0.058000
     10 CAK        -1.2020    1.5950    5.3690 c1        1 BS2     -0.118000
     11 CAE         0.0450    1.0810    5.7750 c1        1 BS2     -0.117250
     12 CAG         0.8480    0.4200    4.8660 c1        1 BS2     -0.117250
     13 CAM         0.4160    0.2590    3.5200 c1        1 BS2     -0.118000
     14 CAZ        -0.8340    0.7740    3.1130 c2        1 BS2     -0.114000
     15 CBD        -1.3280    1.0100    1.6620 c3        1 BS2      0.117000
     16 OAU        -0.2330    1.2300    0.8300 os        1 BS2     -0.284000
     17 CBA         0.1360   -0.0240    0.1750 c3        1 BS2      0.024000
     18 CAT         1.5750   -0.2160    0.3270 c3        1 BS2     -0.201000
     19 CAS        -0.4050    0.0170   -1.3400 c3        1 BS2     -0.201000
     20 CBB         0.6780   -0.1260   -2.4550 c3        1 BS2     -0.054000
     21 CAP         1.3550    1.1410   -2.6110 c3        1 BS2     -0.175500
     22 CAQ         2.5460    1.0310   -1.4630 c3        1 BS2     -0.175500
     23 CBC         2.3070   -0.3790   -0.8960 c3        1 BS2     -0.054000
     24 NBE         1.6470   -0.9270   -1.9170 n4        1 BS2     -0.026000
     25 CAR         2.6800   -1.2700   -3.0420 c3        1 BS2     -0.067000
     26 CAV         2.5690   -2.7850   -3.4180 c2        1 BS2     -0.168000
     27 CAH         1.5010   -3.2310   -4.1970 c2        1 BS2     -0.102000
     28 CAB         1.4590   -4.5360   -4.6240 c1        1 BS2     -0.118000
     29 CAA         2.4750   -5.4070   -4.2830 c1        1 BS2     -0.117250
     30 CAC         3.5380   -4.9680   -3.5080 c1        1 BS2     -0.117250
     31 CAI         3.5820   -3.6560   -3.0780 c1        1 BS2     -0.112000
     32 HAL        -1.0130    3.3680    0.4440 ha        1 BS2      0.143625
     33 HBD        -1.7920    0.2390    1.3650 h1        1 BS2      0.089000
     34 HAF        -2.6250    4.1770   -1.0890 ha        1 BS2      0.143625
     35 HAD        -4.9130    3.4830   -0.8140 ha        1 BS2      0.143625
     36 HAJ        -5.5260    2.0360    0.9380 ha        1 BS2      0.143625
     37 HAN1       -3.9760    2.7150    3.6140 hc        1 BS2      0.102000
     38 HAN2       -4.9840    1.4380    3.2990 hc        1 BS2      0.102000
     39 HAO1       -3.4260    0.7860    4.9510 hc        1 BS2      0.091500
     40 HAO2       -3.0850    0.0220    3.6100 hc        1 BS2      0.091500
     41 HAK        -1.7920    2.0810    6.0380 ha        1 BS2      0.143000
     42 HAE         0.3360    1.1900    6.6820 ha        1 BS2      0.143625
     43 HAG         1.6740    0.0800    5.1350 ha        1 BS2      0.143625
     44 HAM         0.9800   -0.2020    2.8830 ha        1 BS2      0.127000
     45 HBA        -0.3190   -0.7590    0.6390 h1        1 BS2      0.123000
     46 HAT1        1.7280   -1.0520    0.9070 hc        1 BS2      0.128250
     47 HAT2        1.9300    0.5400    0.7910 hc        1 BS2      0.128250
     48 HAS1       -1.0470   -0.7040   -1.4490 hc        1 BS2      0.128250
     49 HAS2       -0.8790    0.8800   -1.4780 hc        1 BS2      0.128250
     50 HBC         3.1280   -0.8270   -0.7440 hx        1 BS2      0.150000
     51 HBB         0.3300   -0.4650   -3.2700 hx        1 BS2      0.150000
     52 HAP1        1.7190    1.2180   -3.4570 hc        1 BS2      0.132250
     53 HAP2        0.7490    1.8890   -2.4180 hc        1 BS2      0.132250
     54 HAQ1        3.4410    1.0960   -1.8740 hc        1 BS2      0.132250
     55 HAQ2        2.4280    1.6990   -0.7810 hc        1 BS2      0.132250
     56 HAR1        3.5990   -1.0750   -2.7170 hx        1 BS2      0.141000
     57 HAR2        2.4990   -0.7430   -3.8090 hx        1 BS2      0.141000
     58 HAH         0.8030   -2.6320   -4.4340 ha        1 BS2      0.139000
     59 HAI         4.3230   -3.3510   -2.5390 ha        1 BS2      0.134000
     60 HAB         0.7120   -4.8460   -5.1680 ha        1 BS2      0.158000
     61 HAA         2.4440   -6.3300   -4.5860 ha        1 BS2      0.143625
     62 HAC         4.2360   -5.5680   -3.2750 ha        1 BS2      0.143625
     63 HBE         1.2530   -1.7120   -1.6240 hn        1 BS2      0.242000
@<TRIPOS>BOND
     1    1    6 1   
     2    1   15 1   
     3    2    3 1   
     4    2   32 1   
     5    3   34 1   
     6    4    5 1   
     7    4   35 1   
     8    5   36 1   
     9    6    7 1   
    10    7    8 1   
    11    7   37 1   
    12    7   38 1   
    13    8    9 1   
    14    8   39 1   
    15    8   40 1   
    16    9   10 1   
    17    9   14 1   
    18   10   41 1   
    19   11   12 1   
    20   11   42 1   
    21   12   43 1   
    22   13   14 1   
    23   13   44 1   
    24   14   15 1   
    25   15   16 1   
    26   15   33 1   
    27   16   17 1   
    28   17   18 1   
    29   17   19 1   
    30   17   45 1   
    31   18   23 1   
    32   18   46 1   
    33   18   47 1   
    34   19   20 1   
    35   19   48 1   
    36   19   49 1   
    37   20   21 1   
    38   20   24 1   
    39   20   51 1   
    40   21   22 1   
    41   21   52 1   
    42   21   53 1   
    43   22   23 1   
    44   22   54 1   
    45   22   55 1   
    46   23   24 1   
    47   23   50 1   
    48   24   25 1   
    49   24   63 1   
    50   25   26 1   
    51   25   56 1   
    52   25   57 1   
    53   26   27 1   
    54   26   31 1   
    55   27   28 1   
    56   27   58 1   
    57   28   60 1   
    58   29   30 1   
    59   29   61 1   
    60   30   62 1   
    61   31   59 1   
@<TRIPOS>SUBSTRUCTURE
     1 BS2         1 TEMP              0 ****  ****    0 ROOT
