@<TRIPOS>MOLECULE
BS4
   33    34     1     0     0
SMALL
bcc


@<TRIPOS>ATOM
      1 NAA        -0.1270   -0.1040   -0.1320 n4        1 BS4     -0.722000
      2 OAB         3.7440    1.4170    4.8120 o         1 BS4     -0.491100
      3 OAC         6.1280   -0.5010    1.7230 o         1 BS4     -0.535300
      4 OAD         5.0020   -1.1010    3.7900 o         1 BS4     -0.535300
      5 CAE         7.6360    3.1050    7.6060 ca        1 BS4     -0.029000
      6 CAF         6.4940    2.3880    7.9650 ca        1 BS4     -0.121000
      7 CAG         7.9040    3.3690    6.2560 ca        1 BS4     -0.121000
      8 CAH         5.6180    1.9290    6.9840 ca        1 BS4     -0.057500
      9 CAI         7.0430    2.9110    5.2670 ca        1 BS4     -0.057500
     10 CAJ         2.3540   -0.0330   -0.1890 ca        1 BS4     -0.121500
     11 CAK         1.2040   -0.1600    1.9630 ca        1 BS4     -0.121500
     12 CAL         3.5760   -0.0620    0.4790 ca        1 BS4      0.033000
     13 CAM         2.4420   -0.1880    2.6060 ca        1 BS4      0.033000
     14 NAN         5.4290    1.3810    3.2530 n4        1 BS4     -0.636700
     15 CAO         4.9350    1.6770    4.6580 c         1 BS4      0.613700
     16 CAP         1.1660   -0.0930    0.5610 ca        1 BS4      0.043600
     17 CAQ         5.8960    2.1780    5.6250 ca        1 BS4     -0.219600
     18 CAR         3.6430   -0.1500    1.8810 ca        1 BS4     -0.430500
     19 SAS         5.1050   -0.3620    2.6370 sy        1 BS4      1.450200
     20 HNAA       -0.8590    0.2970    0.4710 hn        1 BS4      0.485133
     21 HNAB       -0.0700    0.4440   -1.0020 hn        1 BS4      0.485133
     22 HAE         8.3290    3.4700    8.3850 ha        1 BS4      0.179000
     23 HAF         6.2770    2.1860    9.0280 ha        1 BS4      0.177500
     24 HAG         8.8000    3.9500    5.9800 ha        1 BS4      0.177500
     25 HAH         4.7100    1.3690    7.2660 ha        1 BS4      0.148500
     26 HAI         7.2640    3.1680    4.2200 ha        1 BS4      0.148500
     27 HAJ         2.3470    0.0270   -1.2930 ha        1 BS4      0.193000
     28 HAK         0.2830   -0.1990    2.5750 ha        1 BS4      0.193000
     29 HAL         4.5120   -0.0410   -0.1210 ha        1 BS4      0.209000
     30 HAM         2.4650   -0.2480    3.7170 ha        1 BS4      0.209000
     31 HNAN        5.0060    2.0710    2.6340 hn        1 BS4      0.467800
     32 HAA3       -0.3820   -1.0760   -0.3660 hn        1 BS4      0.485133
     33 HAN2        6.4410    1.5440    3.2290 hn        1 BS4      0.467800
@<TRIPOS>BOND
     1    1   16 1   
     2    1   20 1   
     3    1   21 1   
     4    1   32 1   
     5    2   15 2   
     6    3   19 2   
     7    4   19 2   
     8    5    6 ar  
     9    5    7 ar  
    10    5   22 1   
    11    6    8 ar  
    12    6   23 1   
    13    7    9 ar  
    14    7   24 1   
    15    8   17 ar  
    16    8   25 1   
    17    9   17 ar  
    18    9   26 1   
    19   10   12 ar  
    20   10   16 ar  
    21   10   27 1   
    22   11   13 ar  
    23   11   16 ar  
    24   11   28 1   
    25   12   18 ar  
    26   12   29 1   
    27   13   18 ar  
    28   13   30 1   
    29   14   15 1   
    30   14   19 1   
    31   14   31 1   
    32   14   33 1   
    33   15   17 1   
    34   18   19 1   
@<TRIPOS>SUBSTRUCTURE
     1 BS4         1 TEMP              0 ****  ****    0 ROOT
