@<TRIPOS>MOLECULE
BS4
   32    32     1     0     0
SMALL
bcc


@<TRIPOS>ATOM
      1 NAA         0.4150    1.1930    1.7070 nv        1 BS4     -0.786200
      2 OAB         5.8000    2.6970    2.3690 o         1 BS4     -0.525100
      3 OAC         5.9890   -1.6150    3.5540 o         1 BS4     -0.449900
      4 OAD         6.2810   -1.5600    1.1930 o         1 BS4     -0.449900
      5 CAE         6.9350    2.6830    7.2820 ca        1 BS4     -0.076000
      6 CAF         6.6600    3.7250    6.3970 ca        1 BS4     -0.131000
      7 CAG         7.0380    1.3730    6.8080 ca        1 BS4     -0.131000
      8 CAH         6.4950    3.4630    5.0380 ca        1 BS4     -0.082500
      9 CAI         6.8800    1.1020    5.4500 ca        1 BS4     -0.082500
     10 CAJ         2.4700    0.3660    0.7130 ca        1 BS4     -0.235500
     11 CAK         2.1260    0.2440    3.1460 ca        1 BS4     -0.235500
     12 CAL         3.7000   -0.1990    0.8750 ca        1 BS4      0.078000
     13 CAM         3.3610   -0.3190    3.2760 ca        1 BS4      0.078000
     14 NAN         7.0330    0.7730    2.5080 nt        1 BS4     -0.717000
     15 CAO         6.4450    1.9400    3.1070 c         1 BS4      0.632700
     16 CAP         1.6240    0.6240    1.8500 ca        1 BS4      0.334600
     17 CAQ         6.6130    2.1500    4.5590 ca        1 BS4     -0.191600
     18 CAR         4.2190   -0.5700    2.1580 ca        1 BS4     -0.711500
     19 SAS         5.5990   -1.2000    2.3160 s4        1 BS4      1.685300
     20 HNAA        0.0790    1.4570    0.8090 hn        1 BS4      0.465800
     21 HNAB       -0.1610    1.3710    2.4980 hn        1 BS4      0.465800
     22 HAE         7.0700    2.8910    8.3550 ha        1 BS4      0.156000
     23 HAF         6.5760    4.7590    6.7690 ha        1 BS4      0.156500
     24 HAG         7.2500    0.5490    7.5080 ha        1 BS4      0.156500
     25 HAH         6.2720    4.2820    4.3330 ha        1 BS4      0.152500
     26 HAI         6.9520    0.0570    5.1060 ha        1 BS4      0.152500
     27 HAJ         2.1170    0.6360   -0.2970 ha        1 BS4      0.172000
     28 HAK         1.5020    0.4160    4.0400 ha        1 BS4      0.172000
     29 HAL         4.3330   -0.3860   -0.0150 ha        1 BS4      0.168000
     30 HAM         3.7260   -0.6010    4.2840 ha        1 BS4      0.168000
     31 HNAN        7.8310    0.4480    3.0270 hn        1 BS4      0.305500
     32 HAN2        7.2850    0.9380    1.5460 hn        1 BS4      0.305500
@<TRIPOS>BOND
     1    1   16 1   
     2    1   20 1   
     3    1   21 1   
     4    2   15 2   
     5    3   19 1   
     6    4   19 1   
     7    5    6 ar  
     8    5    7 ar  
     9    5   22 1   
    10    6    8 ar  
    11    6   23 1   
    12    7    9 ar  
    13    7   24 1   
    14    8   17 ar  
    15    8   25 1   
    16    9   17 ar  
    17    9   26 1   
    18   10   12 ar  
    19   10   16 ar  
    20   10   27 1   
    21   11   13 ar  
    22   11   16 ar  
    23   11   28 1   
    24   12   18 ar  
    25   12   29 1   
    26   13   18 ar  
    27   13   30 1   
    28   14   15 1   
    29   14   31 1   
    30   14   32 1   
    31   15   17 1   
    32   18   19 1   
@<TRIPOS>SUBSTRUCTURE
     1 BS4         1 TEMP              0 ****  ****    0 ROOT
