@<TRIPOS>MOLECULE
BS4
   31    32     1     0     0
SMALL
bcc


@<TRIPOS>ATOM
      1 NAA        -4.7240    2.7080   -0.0890 nh        1 BS4     -0.855200
      2 OAB         0.8200    0.1880    1.5500 o         1 BS4     -0.583100
      3 OAC        -1.0160   -2.4250   -1.4380 o         1 BS4     -0.649300
      4 OAD        -0.8740   -2.4110    0.9490 o         1 BS4     -0.649300
      5 CAE         5.2930    1.1830   -0.5170 ca        1 BS4     -0.103000
      6 CAF         4.4130    2.0160    0.1750 ca        1 BS4     -0.137500
      7 CAG         4.8920   -0.1010   -0.8890 ca        1 BS4     -0.137500
      8 CAH         3.1320    1.5690    0.4940 ca        1 BS4     -0.086000
      9 CAI         3.6090   -0.5520   -0.5800 ca        1 BS4     -0.086000
     10 CAJ        -3.6080    0.9240   -1.3120 ca        1 BS4     -0.245000
     11 CAK        -3.0670    1.3240    1.0330 ca        1 BS4     -0.245000
     12 CAL        -2.6660   -0.0850   -1.3400 ca        1 BS4      0.045500
     13 CAM        -2.1310    0.3090    0.9720 ca        1 BS4      0.045500
     14 NAN         0.6500   -0.9480   -0.4270 n         1 BS4     -0.667300
     15 CAO         1.3510   -0.1540    0.4770 c         1 BS4      0.708700
     16 CAP        -3.8310    1.6630   -0.1170 ca        1 BS4      0.250600
     17 CAQ         2.7250    0.2860    0.1070 ca        1 BS4     -0.149600
     18 CAR        -1.9070   -0.4220   -0.2070 ca        1 BS4     -0.480500
     19 SAS        -0.8320   -1.6800   -0.2470 sy        1 BS4      1.526900
     20 HNAA       -5.3670    2.8000   -0.8370 hn        1 BS4      0.424300
     21 HNAB       -4.9890    3.0790    0.7900 hn        1 BS4      0.424300
     22 HAE         6.3040    1.5360   -0.7670 ha        1 BS4      0.137000
     23 HAF         4.7310    3.0260    0.4760 ha        1 BS4      0.139500
     24 HAG         5.5890   -0.7620   -1.4250 ha        1 BS4      0.139500
     25 HAH         2.4360    2.2110    1.0570 ha        1 BS4      0.147000
     26 HAI         3.3130   -1.5740   -0.8630 ha        1 BS4      0.147000
     27 HAJ        -4.1850    1.1570   -2.2200 ha        1 BS4      0.140500
     28 HAK        -3.2130    1.8730    1.9750 ha        1 BS4      0.140500
     29 HAL        -2.5110   -0.6570   -2.2740 ha        1 BS4      0.162500
     30 HAM        -1.5340    0.0620    1.8720 ha        1 BS4      0.162500
     31 HNAN        1.1270   -1.0950   -1.2920 hn        1 BS4      0.334500
@<TRIPOS>BOND
     1    1   16 1   
     2    1   20 1   
     3    1   21 1   
     4    2   15 2   
     5    3   19 2   
     6    4   19 2   
     7    5    6 ar  
     8    5    7 ar  
     9    5   22 1   
    10    6    8 ar  
    11    6   23 1   
    12    7    9 ar  
    13    7   24 1   
    14    8   17 ar  
    15    8   25 1   
    16    9   17 ar  
    17    9   26 1   
    18   10   12 ar  
    19   10   16 ar  
    20   10   27 1   
    21   11   13 ar  
    22   11   16 ar  
    23   11   28 1   
    24   12   18 ar  
    25   12   29 1   
    26   13   18 ar  
    27   13   30 1   
    28   14   15 1   
    29   14   19 1   
    30   14   31 1   
    31   15   17 1   
    32   18   19 1   
@<TRIPOS>SUBSTRUCTURE
     1 BS4         1 TEMP              0 ****  ****    0 ROOT
