@<TRIPOS>MOLECULE
BS4
   31    26     1     0     0
SMALL
bcc


@<TRIPOS>ATOM
      1 NAA        -5.9170   -0.2760   -1.8150 n3        1 BS4     -0.830400
      2 OAB         1.3580    1.9140    0.9270 o         1 BS4     -0.583100
      3 OAC        -0.7760    0.8450    2.1470 o         1 BS4     -0.649300
      4 OAD        -0.7100   -1.3690    1.9980 o         1 BS4     -0.649300
      5 CAE         5.8020    0.0020    0.3880 c1        1 BS4     -0.049500
      6 CAF         5.2570    1.2100    0.7930 c1        1 BS4     -0.049500
      7 CAG         4.9710   -1.0410    0.0110 c1        1 BS4     -0.049500
      8 CAH         3.8810    1.3750    0.8200 c1        1 BS4     -0.049500
      9 CAI         3.5960   -0.8760    0.0380 c1        1 BS4     -0.042500
     10 CAJ        -3.8230   -1.3270   -1.2080 c1        1 BS4     -0.188500
     11 CAK        -4.2520    0.9290   -0.5120 c1        1 BS4     -0.049500
     12 CAL        -2.6240   -1.3140   -0.5130 c1        1 BS4      0.094500
     13 CAM        -3.0530    0.9420    0.1840 c1        1 BS4     -0.049500
     14 NAN         0.5610   -0.0970    0.1990 n         1 BS4     -0.666300
     15 CAO         1.6130    0.7930    0.5350 c         1 BS4      0.657300
     16 CAP        -4.6360   -0.2060   -1.2080 c1        1 BS4      0.225800
     17 CAQ         3.0510    0.3320    0.4430 cg        1 BS4     -0.097200
     18 CAR        -2.2390   -0.1790    0.1830 c1        1 BS4     -0.524200
     19 SAS        -0.7640   -0.2010    1.1630 s6        1 BS4      1.569600
     20 HNAA       -6.0580    0.1120   -2.6300 hn        1 BS4      0.425300
     21 HNAB       -6.5990   -0.7150   -1.3930 hn        1 BS4      0.425300
     22 HAE         6.7710   -0.1140    0.3690 ha        1 BS4      0.090000
     23 HAF         5.8420    1.9450    1.0580 ha        1 BS4      0.090000
     24 HAG         5.3550   -1.8930   -0.2750 ha        1 BS4      0.090000
     25 HAH         3.4970    2.2270    1.1050 ha        1 BS4      0.090000
     26 HAI         3.0100   -1.6110   -0.2280 ha        1 BS4      0.078500
     27 HAJ        -4.0940   -2.1270   -1.6990 ha        1 BS4      0.081500
     28 HAK        -4.8250    1.7190   -0.5120 ha        1 BS4      0.090000
     29 HAL        -2.0510   -2.1050   -0.5130 ha        1 BS4      0.097500
     30 HAM        -2.7820    1.7420    0.6740 ha        1 BS4      0.090000
     31 HNAN        0.6370   -0.6370   -0.5310 hn        1 BS4      0.334500
@<TRIPOS>BOND
     1    1   16 1   
     2    1   20 1   
     3    1   21 1   
     4    2   15 2   
     5    3   19 2   
     6    4   19 2   
     7    5    7 3   
     8    5   22 1   
     9    6    8 3   
    10    6   23 1   
    11    7   24 1   
    12    8   25 1   
    13    9   17 3   
    14    9   26 1   
    15   10   16 3   
    16   10   27 1   
    17   11   13 3   
    18   11   28 1   
    19   12   18 3   
    20   12   29 1   
    21   13   30 1   
    22   14   15 1   
    23   14   19 1   
    24   14   31 1   
    25   15   17 1   
    26   18   19 1   
@<TRIPOS>SUBSTRUCTURE
     1 BS4         1 TEMP              0 ****  ****    0 ROOT
