@<TRIPOS>MOLECULE
BS5
   67    62     1     0     0
SMALL
bcc


@<TRIPOS>ATOM
      1 S          -0.9590    3.6530   -3.2950 ss        1 BS5      2.805000
      2 N1          0.1370   -5.9410   -2.8280 n1        1 BS5     -0.269000
      3 C2          0.6490   -5.2070   -1.8010 c1        1 BS5      0.028000
      4 N3          1.1710   -3.9680   -2.0380 n1        1 BS5     -0.233000
      5 C4          1.1810   -3.4630   -3.3020 c1        1 BS5     -0.089000
      6 C5          0.6750   -4.1880   -4.3190 c1        1 BS5     -0.089000
      7 C6          0.1450   -5.4470   -4.0760 c1        1 BS5      0.245000
      8 N6         -0.2460   -6.5750   -4.8410 n3        1 BS5     -0.355000
      9 N7          0.7340   -3.4270   -5.4470 n1        1 BS5     -0.165000
     10 C8          1.2800   -2.2280   -5.1160 c1        1 BS5     -0.032000
     11 N9          1.5570   -2.2460   -3.7960 n1        1 BS5     -0.165000
     12 C1'         1.8720   -1.1080   -3.0290 c2        1 BS5      0.138000
     13 N1B        -0.6590   -0.0610    7.9220 n         1 BS5     -0.323000
     14 S1B        -1.5680    2.2100    5.3100 ss        1 BS5      0.070000
     15 C2'         3.1110   -0.7320   -3.2670 c3        1 BS5     -0.029000
     16 O2'         4.0160   -1.3020   -2.2630 oh        1 BS5     -0.324000
     17 C2B        -2.4570    0.8470    4.9600 c3        1 BS5     -0.231000
     18 N2B        -1.0420   -0.8980    5.5840 n         1 BS5     -0.329000
     19 C3'         3.0910    0.8200   -3.1540 c3        1 BS5      0.012000
     20 O3'         3.6910    1.2100   -2.0390 oh        1 BS5     -0.310000
     21 C3B        -0.1080   -1.0490    6.8240 c2        1 BS5      0.341000
     22 O3B         0.7350   -1.9100    6.9890 o         1 BS5     -0.338000
     23 C4'         1.5660    1.2250   -3.1250 c3        1 BS5     -0.032000
     24 O4'         0.9210    0.1500   -3.4670 os        1 BS5     -0.255000
     25 C4B        -2.0580   -0.1500    5.9750 c3        1 BS5     -0.014000
     26 C5'         1.2950    2.3540   -4.1270 c3        1 BS5     -0.022000
     27 N5'         0.7210    3.4990   -3.4290 n2        1 BS5     -0.880000
     28 C5B        -1.5400    0.7010    7.3180 c3        1 BS5     -0.018000
     29 C6B        -0.8740    1.9030    6.8220 c3        1 BS5     -0.304000
     30 C7B        -2.1070    0.3150    3.4930 c3        1 BS5     -0.150000
     31 C8B        -1.3110    1.4150    2.7120 c3        1 BS5     -0.161000
     32 C9B        -1.7630    1.4130    1.1780 c3        1 BS5     -0.154000
     33 CAB        -1.7550    2.8470    0.6430 c3        1 BS5     -0.179000
     34 CBB        -1.9210    2.8260   -0.9060 c2        1 BS5      0.335000
     35 NBB        -1.3900    3.9160   -1.7030 n2        1 BS5     -0.859000
     36 OCB        -2.6260    1.9760   -1.4310 o         1 BS5     -0.351000
     37 OP1        -1.4610    4.7060   -4.1560 o         1 BS5     -0.916000
     38 OP2        -1.6320    2.5070   -3.8340 o         1 BS5     -0.916000
     39 H2          0.6420   -5.5660   -0.9000 ha        1 BS5      0.188000
     40 HN6        -0.5620   -6.4640   -5.6900 hn        1 BS5      0.246000
     41 HN6A       -0.1760   -7.4150   -4.4870 hn        1 BS5      0.246000
     42 H8          1.5060   -1.5200   -5.7330 DU        1 BS5      0.217000
     43 H1'         1.7560   -1.3020   -2.0730 h4        1 BS5      0.145000
     44 HN1B       -0.3110    0.0700    8.7640 hn        1 BS5      0.227000
     45 H2'         3.3850   -1.0060   -4.1710 h1        1 BS5      0.129000
     46 HO2'        4.7970   -1.4800   -2.6370 ho        1 BS5      0.232000
     47 H2B        -3.4080    1.0380    5.0320 h1        1 BS5      0.122000
     48 HN2B       -0.9710   -1.3480    4.7880 hn        1 BS5      0.232000
     49 H3'         3.5340    1.2230   -3.9380 h1        1 BS5      0.128000
     50 HO3'        4.3190    1.7980   -2.2340 ho        1 BS5      0.229000
     51 H4'         1.3050    1.5050   -2.2150 h1        1 BS5      0.145000
     52 H4B        -2.8280   -0.7220    6.2120 h1        1 BS5      0.128000
     53 H5'         0.6740    2.0440   -4.8050 h1        1 BS5      0.111500
     54 H5'A        2.1460    2.6240   -4.5570 h1        1 BS5      0.111500
     55 HN5'        1.2680    4.1800   -3.1400 hn        1 BS5      0.253000
     56 H5B        -2.2940    0.9250    7.9150 h1        1 BS5      0.129000
     57 H6B        -1.0380    2.6630    7.4350 h1        1 BS5      0.123000
     58 H6BA        0.0910    1.7420    6.7290 h1        1 BS5      0.123000
     59 H7B        -1.5670   -0.4890    3.5600 hc        1 BS5      0.099000
     60 H7BA       -2.9370    0.1120    3.0140 hc        1 BS5      0.099000
     61 H8B        -0.3460    1.2240    2.7700 hc        1 BS5      0.089500
     62 H8BA       -1.4940    2.2910    3.1050 hc        1 BS5      0.089500
     63 H9B        -2.6620    1.0430    1.1040 hc        1 BS5      0.102000
     64 H9BA       -1.1400    0.8660    0.6540 hc        1 BS5      0.102000
     65 HAB        -0.9150    3.2730    0.8720 hc        1 BS5      0.113000
     66 HABA       -2.4910    3.3460    1.0410 hc        1 BS5      0.113000
     67 HNBB       -1.3520    4.7530   -1.3570 hn        1 BS5      0.250000
@<TRIPOS>BOND
     1    1   37 1   
     2    1   38 1   
     3    2    7 1   
     4    3    4 1   
     5    3   39 1   
     6    5    6 1   
     7    7    8 1   
     8    8   40 1   
     9    8   41 1   
    10    9   10 1   
    11   10   11 1   
    12   12   15 1   
    13   12   24 1   
    14   12   43 1   
    15   13   21 1   
    16   13   28 1   
    17   13   44 1   
    18   14   17 1   
    19   14   29 1   
    20   15   16 1   
    21   15   19 1   
    22   15   45 1   
    23   16   46 1   
    24   17   25 1   
    25   17   30 1   
    26   17   47 1   
    27   18   21 1   
    28   18   25 1   
    29   18   48 1   
    30   19   20 1   
    31   19   23 1   
    32   19   49 1   
    33   20   50 1   
    34   21   22 1   
    35   23   24 1   
    36   23   26 1   
    37   23   51 1   
    38   25   28 1   
    39   25   52 1   
    40   26   27 1   
    41   26   53 1   
    42   26   54 1   
    43   27   55 1   
    44   28   29 1   
    45   28   56 1   
    46   29   57 1   
    47   29   58 1   
    48   30   31 1   
    49   30   59 1   
    50   30   60 1   
    51   31   32 1   
    52   31   61 1   
    53   31   62 1   
    54   32   33 1   
    55   32   63 1   
    56   32   64 1   
    57   33   34 1   
    58   33   65 1   
    59   33   66 1   
    60   34   35 1   
    61   34   36 1   
    62   35   67 1   
@<TRIPOS>SUBSTRUCTURE
     1 BS5         1 TEMP              0 ****  ****    0 ROOT
