@<TRIPOS>MOLECULE
BS5
   67    71     1     0     0
SMALL
bcc


@<TRIPOS>ATOM
      1 S          -1.6700    4.6730    0.7910 s6        1 BS5      1.581500
      2 N1         -2.4280   -4.6650    0.4100 nb        1 BS5     -0.787000
      3 C2         -3.6990   -4.2140    0.2460 ca        1 BS5      0.689900
      4 N3         -4.1530   -2.9730   -0.0510 nb        1 BS5     -0.759000
      5 C4         -3.1380   -2.0670   -0.1990 ca        1 BS5      0.446800
      6 C5         -1.7260   -2.3960   -0.0500 ca        1 BS5     -0.223200
      7 C6         -1.4040   -3.7570    0.2740 ca        1 BS5      0.753200
      8 N6         -0.0980   -4.1280    0.4860 nh        1 BS5     -0.943500
      9 N7         -0.9440   -1.2530   -0.2780 nc        1 BS5     -0.557100
     10 C8         -1.8170   -0.2750   -0.5560 cd        1 BS5      0.430700
     11 N9         -3.1690   -0.6980   -0.5070 na        1 BS5     -0.296000
     12 C1'        -4.3680    0.0190   -0.8820 c3        1 BS5      0.226800
     13 N1B         7.2530   -3.5190   -0.8270 n         1 BS5     -0.516900
     14 S1B         6.5710   -0.1550    0.3510 ss        1 BS5     -0.289200
     15 C2'        -5.5030   -0.0530    0.1950 c3        1 BS5      0.084100
     16 O2'        -6.6850   -0.5110   -0.4210 oh        1 BS5     -0.592800
     17 C2B         5.2120   -1.1530    0.9370 c3        1 BS5     -0.010600
     18 N2B         4.9370   -3.1970   -0.5850 n         1 BS5     -0.512900
     19 C3'        -5.7230    1.4050    0.6560 c3        1 BS5      0.131100
     20 O3'        -7.0290    1.8790    0.4480 oh        1 BS5     -0.570800
     21 C3B         5.9840   -3.5870   -1.4780 c         1 BS5      0.747500
     22 O3B         5.8030   -4.0230   -2.6270 o         1 BS5     -0.610500
     23 C4'        -4.6860    2.2380   -0.1260 c3        1 BS5      0.085100
     24 O4'        -4.0820    1.3990   -1.1210 os        1 BS5     -0.409600
     25 C4B         5.5300   -2.6130    0.6130 c3        1 BS5      0.055700
     26 C5'        -3.6050    2.7940    0.8160 c3        1 BS5      0.213800
     27 N5'        -2.5830    3.5270    0.1300 n3        1 BS5     -0.912100
     28 C5B         7.1030   -2.7860    0.4260 c3        1 BS5      0.058700
     29 C6B         7.7880   -1.4260    0.4950 c3        1 BS5     -0.045300
     30 C7B         3.9090   -0.6350    0.3760 c3        1 BS5     -0.071400
     31 C8B         3.5110    0.6780    1.0220 c3        1 BS5     -0.080400
     32 C9B         2.2160    1.1890    0.4270 c3        1 BS5     -0.082400
     33 CAB         1.7630    2.4510    1.1300 c3        1 BS5     -0.147400
     34 CBB         0.4580    2.9500    0.5490 c         1 BS5      0.695100
     35 NBB        -0.2730    3.8860    1.2760 n         1 BS5     -0.679300
     36 OCB         0.0150    2.5590   -0.5480 o         1 BS5     -0.606100
     37 OP1        -1.3350    5.6390   -0.1750 o         1 BS5     -0.637800
     38 OP2        -2.2610    5.1610    1.9840 o         1 BS5     -0.637800
     39 H2         -4.4850   -4.9900    0.3720 h5        1 BS5      0.053100
     40 HN6         0.1290   -5.0900    0.5690 hn        1 BS5      0.442300
     41 HN6A        0.6110   -3.5020    0.1890 hn        1 BS5      0.442300
     42 H8         -1.5560    0.7670   -0.8040 h5        1 BS5      0.100800
     43 H1'        -4.7360   -0.3890   -1.8740 h2        1 BS5      0.104700
     44 H2'        -5.2280   -0.7020    1.0670 h1        1 BS5      0.086700
     45 HO2'       -6.6280   -1.4760   -0.4560 ho        1 BS5      0.438000
     46 H2B         5.1820   -1.0600    2.0560 h1        1 BS5      0.081700
     47 HN2B        4.1750   -2.7150   -1.0060 hn        1 BS5      0.312500
     48 H3'        -5.5650    1.4960    1.7670 h1        1 BS5      0.095700
     49 HO3'       -7.3250    1.5880   -0.4260 ho        1 BS5      0.427000
     50 H4'        -5.1830    3.0660   -0.7040 h1        1 BS5      0.103700
     51 H4B         5.1970   -3.2540    1.4800 h1        1 BS5      0.087700
     52 H5'        -4.1080    3.4700    1.5680 h1        1 BS5      0.059200
     53 H5'A       -3.1430    1.9230    1.3700 h1        1 BS5      0.059200
     54 HN5'       -2.3940    3.1810   -0.7880 hn        1 BS5      0.474800
     55 H5B         7.4980   -3.4470    1.2480 h1        1 BS5      0.089700
     56 H6B         8.5420   -1.2750   -0.3150 h1        1 BS5      0.083200
     57 H6BA        8.3250   -1.3290    1.4710 h1        1 BS5      0.083200
     58 H7B         3.9930   -0.4860   -0.7340 hc        1 BS5      0.059700
     59 H7BA        3.0970   -1.3910    0.5600 hc        1 BS5      0.059700
     60 H8B         3.3900    0.5330    2.1280 hc        1 BS5      0.048700
     61 H8BA        4.3270    1.4340    0.8710 hc        1 BS5      0.048700
     62 H9B         2.3500    1.4000   -0.6670 hc        1 BS5      0.069700
     63 H9BA        1.4170    0.4050    0.5120 hc        1 BS5      0.069700
     64 HAB         1.6480    2.2550    2.2290 hc        1 BS5      0.072700
     65 HABA        2.5300    3.2620    1.0040 hc        1 BS5      0.072700
     66 HNBB        0.1000    4.1040    2.1730 hn        1 BS5      0.336500
     67 HN1B        8.0320   -3.3000   -1.4030 hn        1 BS5      0.314500
@<TRIPOS>BOND
     1    1   27 1   
     2    1   35 1   
     3    1   37 2   
     4    1   38 2   
     5    2    3 ar  
     6    2    7 ar  
     7    3    4 ar  
     8    3   39 1   
     9    4    5 ar  
    10    5    6 ar  
    11    5   11 1   
    12    6    7 ar  
    13    6    9 1   
    14    7    8 1   
    15    8   40 1   
    16    8   41 1   
    17    9   10 2   
    18   10   11 1   
    19   10   42 1   
    20   11   12 1   
    21   12   15 1   
    22   12   24 1   
    23   12   43 1   
    24   13   21 1   
    25   13   28 1   
    26   13   67 1   
    27   14   17 1   
    28   14   29 1   
    29   15   16 1   
    30   15   19 1   
    31   15   44 1   
    32   16   45 1   
    33   17   25 1   
    34   17   30 1   
    35   17   46 1   
    36   18   21 1   
    37   18   25 1   
    38   18   47 1   
    39   19   20 1   
    40   19   23 1   
    41   19   48 1   
    42   20   49 1   
    43   21   22 2   
    44   23   24 1   
    45   23   26 1   
    46   23   50 1   
    47   25   28 1   
    48   25   51 1   
    49   26   27 1   
    50   26   52 1   
    51   26   53 1   
    52   27   54 1   
    53   28   29 1   
    54   28   55 1   
    55   29   56 1   
    56   29   57 1   
    57   30   31 1   
    58   30   58 1   
    59   30   59 1   
    60   31   32 1   
    61   31   60 1   
    62   31   61 1   
    63   32   33 1   
    64   32   62 1   
    65   32   63 1   
    66   33   34 1   
    67   33   64 1   
    68   33   65 1   
    69   34   35 1   
    70   34   36 2   
    71   35   66 1   
@<TRIPOS>SUBSTRUCTURE
     1 BS5         1 TEMP              0 ****  ****    0 ROOT
