@<TRIPOS>MOLECULE
BS5
   67    71     1     0     0
SMALL
bcc


@<TRIPOS>ATOM
      1 S           0.2030   -1.5930    0.5320 s6        1 BS5      1.582500
      2 N1          7.4930    1.9090    5.1260 nb        1 BS5     -0.787000
      3 C2          8.0290    1.2470    4.0670 ca        1 BS5      0.689900
      4 N3          7.4500    0.8290    2.9170 nb        1 BS5     -0.764000
      5 C4          6.1200    1.1410    2.8560 ca        1 BS5      0.445800
      6 C5          5.4010    1.8380    3.9140 ca        1 BS5     -0.222200
      7 C6          6.1530    2.2140    5.0780 ca        1 BS5      0.753200
      8 N6          5.5290    2.8250    6.1390 nh        1 BS5     -0.942500
      9 N7          4.0580    2.0110    3.5440 nc        1 BS5     -0.558100
     10 C8          3.9510    1.4580    2.3270 cd        1 BS5      0.432700
     11 N9          5.1650    0.8980    1.8560 na        1 BS5     -0.295000
     12 C1'         5.4700    0.3500    0.5520 c3        1 BS5      0.229800
     13 N1B         0.2130    7.0370    9.1890 n         1 BS5     -0.516900
     14 S1B        -1.8060    4.4210    7.6900 ss        1 BS5     -0.289200
     15 C2'         6.2130   -1.0260    0.6120 c3        1 BS5      0.085100
     16 O2'         7.4790   -0.9180    0.0040 oh        1 BS5     -0.597800
     17 C2B        -0.1530    3.7550    7.7850 c3        1 BS5     -0.010600
     18 N2B         1.5400    5.6800    7.8020 n         1 BS5     -0.512900
     19 C3'         5.3420   -1.9920   -0.2220 c3        1 BS5      0.132100
     20 O3'         5.8870   -2.3390   -1.4770 oh        1 BS5     -0.586800
     21 C3B         1.1200    7.0180    8.0870 c         1 BS5      0.747500
     22 O3B         1.5650    8.0300    7.5210 o         1 BS5     -0.610500
     23 C4'         4.0370   -1.2180   -0.4940 c3        1 BS5      0.119100
     24 O4'         4.2700    0.1690   -0.2040 os        1 BS5     -0.408600
     25 C4B         0.7090    4.7520    8.5610 c3        1 BS5      0.055700
     26 C5'         2.8910   -1.7530    0.3790 c3        1 BS5      0.211800
     27 N5'         1.6710   -1.0200    0.2140 n3        1 BS5     -0.912100
     28 C5B        -0.2270    5.6740    9.4640 c3        1 BS5      0.058700
     29 C6B        -1.6920    5.3690    9.1750 c3        1 BS5     -0.045300
     30 C7B         0.3470    3.4080    6.4030 c3        1 BS5     -0.071400
     31 C8B        -0.3500    2.1770    5.8560 c3        1 BS5     -0.079400
     32 C9B         0.1490    1.8620    4.4620 c3        1 BS5     -0.082400
     33 CAB        -0.4660    0.5790    3.9470 c3        1 BS5     -0.147400
     34 CBB         0.0500    0.2520    2.5630 c         1 BS5      0.695100
     35 NBB        -0.1550   -1.0350    2.0700 n         1 BS5     -0.679300
     36 OCB         0.6440    1.0830    1.8510 o         1 BS5     -0.606100
     37 OP1        -0.7320   -1.0590   -0.3730 o         1 BS5     -0.638300
     38 OP2         0.2300   -3.0070    0.6400 o         1 BS5     -0.638300
     39 H2          9.1140    1.0240    4.1630 h5        1 BS5      0.053100
     40 HN6         4.6250    3.2020    5.9820 hn        1 BS5      0.441300
     41 HN6A        6.0770    3.2090    6.8710 hn        1 BS5      0.441300
     42 H8          3.0320    1.4160    1.7200 h5        1 BS5      0.102800
     43 H1'         6.0860    1.1070   -0.0240 h2        1 BS5      0.105700
     44 H2'         6.3110   -1.4060    1.6650 h1        1 BS5      0.077700
     45 HO2'        8.0600   -0.4690    0.6350 ho        1 BS5      0.443000
     46 H2B        -0.2020    2.8130    8.3950 h1        1 BS5      0.081700
     47 HN2B        1.6980    5.4790    6.8400 hn        1 BS5      0.312500
     48 H3'         5.1510   -2.9350    0.3590 h1        1 BS5      0.062700
     49 HO3'        6.8480   -2.3990   -1.3850 ho        1 BS5      0.435000
     50 H4'         3.7700   -1.2450   -1.5870 h1        1 BS5      0.116700
     51 H4B         1.4050    4.1760    9.2360 h1        1 BS5      0.087700
     52 H5'         3.2210   -1.7090    1.4590 h1        1 BS5      0.057700
     53 H5'A        2.7150   -2.8350    0.1060 h1        1 BS5      0.057700
     54 HN5'        1.8130   -0.0580   -0.0150 hn        1 BS5      0.475800
     55 H5B        -0.0080    5.4650   10.5490 h1        1 BS5      0.089700
     56 H6B        -2.3120    6.2890    9.0450 h1        1 BS5      0.083200
     57 H6BA       -2.1280    4.7930   10.0280 h1        1 BS5      0.083200
     58 H7B         1.4530    3.2100    6.4450 hc        1 BS5      0.059700
     59 H7BA        0.1790    4.2670    5.6990 hc        1 BS5      0.059700
     60 H8B        -0.1600    1.3030    6.5340 hc        1 BS5      0.048700
     61 H8BA       -1.4590    2.3500    5.8360 hc        1 BS5      0.048700
     62 H9B        -0.1030    2.7030    3.7620 hc        1 BS5      0.069700
     63 H9BA        1.2680    1.7670    4.4650 hc        1 BS5      0.069700
     64 HAB        -1.5830    0.6820    3.8850 hc        1 BS5      0.072200
     65 HABA       -0.2380   -0.2640    4.6530 hc        1 BS5      0.072200
     66 HNBB       -0.5710   -1.6690    2.7140 hn        1 BS5      0.336500
     67 HN1B       -0.4750    7.7550    9.1800 hn        1 BS5      0.314500
@<TRIPOS>BOND
     1    1   27 1   
     2    1   35 1   
     3    1   37 2   
     4    1   38 2   
     5    2    3 ar  
     6    2    7 ar  
     7    3    4 ar  
     8    3   39 1   
     9    4    5 ar  
    10    5    6 ar  
    11    5   11 1   
    12    6    7 ar  
    13    6    9 1   
    14    7    8 1   
    15    8   40 1   
    16    8   41 1   
    17    9   10 2   
    18   10   11 1   
    19   10   42 1   
    20   11   12 1   
    21   12   15 1   
    22   12   24 1   
    23   12   43 1   
    24   13   21 1   
    25   13   28 1   
    26   13   67 1   
    27   14   17 1   
    28   14   29 1   
    29   15   16 1   
    30   15   19 1   
    31   15   44 1   
    32   16   45 1   
    33   17   25 1   
    34   17   30 1   
    35   17   46 1   
    36   18   21 1   
    37   18   25 1   
    38   18   47 1   
    39   19   20 1   
    40   19   23 1   
    41   19   48 1   
    42   20   49 1   
    43   21   22 2   
    44   23   24 1   
    45   23   26 1   
    46   23   50 1   
    47   25   28 1   
    48   25   51 1   
    49   26   27 1   
    50   26   52 1   
    51   26   53 1   
    52   27   54 1   
    53   28   29 1   
    54   28   55 1   
    55   29   56 1   
    56   29   57 1   
    57   30   31 1   
    58   30   58 1   
    59   30   59 1   
    60   31   32 1   
    61   31   60 1   
    62   31   61 1   
    63   32   33 1   
    64   32   62 1   
    65   32   63 1   
    66   33   34 1   
    67   33   64 1   
    68   33   65 1   
    69   34   35 1   
    70   34   36 2   
    71   35   66 1   
@<TRIPOS>SUBSTRUCTURE
     1 BS5         1 TEMP              0 ****  ****    0 ROOT
