@<TRIPOS>MOLECULE
BSA
   26    26     1     0     0
SMALL
bcc


@<TRIPOS>ATOM
      1 C1         -0.3160    0.3960   -0.1340 ca        1 BSA     -0.200600
      2 C2          1.0080    0.7060    0.2350 ca        1 BSA     -0.066500
      3 C3          1.8370   -0.2840    0.7490 ca        1 BSA     -0.142500
      4 C4          1.3590   -1.5870    0.9010 ca        1 BSA     -0.069000
      5 C5          0.0490   -1.8960    0.5370 ca        1 BSA     -0.142500
      6 C6         -0.7960   -0.9130    0.0190 ca        1 BSA     -0.066500
      7 C7         -4.0050    0.2800   -2.8380 c3        1 BSA     -0.330600
      8 S8         -4.9310   -0.5270   -1.4970 s6        1 BSA      1.436800
      9 N9         -2.5280    1.2240   -1.0650 n4        1 BSA     -0.681800
     10 C10        -2.5960    0.6400   -2.4530 c3        1 BSA      0.193800
     11 O11        -5.9700   -1.2200   -2.0950 o         1 BSA     -0.733867
     12 O12        -5.2130    0.6010   -0.6870 o         1 BSA     -0.733867
     13 C13        -1.1190    1.5040   -0.6600 c         1 BSA      0.573700
     14 O14        -0.7520    2.6710   -0.7990 o         1 BSA     -0.479100
     15 O15        -3.8810   -1.2710   -0.8810 o         1 BSA     -0.733867
     16 H2          1.3780    1.7380    0.1150 ha        1 BSA      0.184000
     17 H3          2.8710   -0.0370    1.0370 ha        1 BSA      0.155000
     18 H4          2.0160   -2.3700    1.3100 ha        1 BSA      0.148000
     19 H5         -0.3330   -2.9220    0.6570 ha        1 BSA      0.155000
     20 H6         -1.8300   -1.2140   -0.2540 ha        1 BSA      0.184000
     21 H71        -3.9620   -0.4150   -3.7110 h1        1 BSA      0.104700
     22 H72        -4.5730    1.1830   -3.1620 h1        1 BSA      0.104700
     23 HN9        -2.9590    0.5490   -0.3950 hn        1 BSA      0.486800
     24 H101       -2.1540    1.4030   -3.1520 hx        1 BSA      0.083700
     25 H102       -1.9530   -0.2870   -2.4450 hx        1 BSA      0.083700
     26 H92        -3.0980    2.0800   -1.0380 hn        1 BSA      0.486800
@<TRIPOS>BOND
     1    1    2 ar  
     2    1    6 ar  
     3    1   13 1   
     4    2    3 ar  
     5    2   16 1   
     6    3    4 ar  
     7    3   17 1   
     8    4    5 ar  
     9    4   18 1   
    10    5    6 ar  
    11    5   19 1   
    12    6   20 1   
    13    7    8 1   
    14    7   10 1   
    15    7   21 1   
    16    7   22 1   
    17    8   11 1   
    18    8   12 1   
    19    8   15 1   
    20    9   10 1   
    21    9   13 1   
    22    9   23 1   
    23    9   26 1   
    24   10   24 1   
    25   10   25 1   
    26   13   14 2   
@<TRIPOS>SUBSTRUCTURE
     1 BSA         1 TEMP              0 ****  ****    0 ROOT
