@<TRIPOS>MOLECULE
BSA
   26    26     1     0     0
SMALL
bcc


@<TRIPOS>ATOM
      1 C1         -0.2270   -0.3660   -0.3160 ca        1 BSA     -0.200600
      2 C2          1.1460   -0.6090   -0.1130 ca        1 BSA     -0.066500
      3 C3          1.9520    0.3760    0.4460 ca        1 BSA     -0.142500
      4 C4          1.4010    1.6080    0.8080 ca        1 BSA     -0.069000
      5 C5          0.0430    1.8500    0.6080 ca        1 BSA     -0.142500
      6 C6         -0.7790    0.8710    0.0480 ca        1 BSA     -0.066500
      7 C7         -4.1720   -0.2260   -2.6290 c3        1 BSA     -0.330600
      8 S8         -5.0100    0.3320   -1.1150 s6        1 BSA      1.436800
      9 N9         -2.4590   -1.2540   -1.1380 ny        1 BSA     -0.681800
     10 C10        -2.7100   -0.5130   -2.4260 c3        1 BSA      0.193800
     11 O11        -6.1510    1.0040   -1.5200 o         1 BSA     -0.733867
     12 O12        -3.9570    1.0800   -0.5090 o         1 BSA     -0.733867
     13 C13        -1.0000   -1.4640   -0.9040 c         1 BSA      0.573700
     14 O14        -0.5680   -2.5710   -1.2270 o         1 BSA     -0.479100
     15 O15        -5.1280   -0.9050   -0.4340 o         1 BSA     -0.733867
     16 H2          1.5740   -1.5840   -0.4000 ha        1 BSA      0.184000
     17 H3          3.0250    0.1830    0.6030 ha        1 BSA      0.155000
     18 H4          2.0410    2.3870    1.2520 ha        1 BSA      0.148000
     19 H5         -0.3960    2.8190    0.8950 ha        1 BSA      0.155000
     20 H6         -1.8540    1.1170   -0.0870 ha        1 BSA      0.184000
     21 H71        -4.7060   -1.1280   -3.0130 h1        1 BSA      0.104700
     22 H72        -4.2680    0.5700   -3.4060 h1        1 BSA      0.104700
     23 HN9        -2.9610   -2.1510   -1.1670 hn        1 BSA      0.486800
     24 H101       -2.1350    0.4560   -2.3580 hx        1 BSA      0.083700
     25 H102       -2.2880   -1.1460   -3.2550 hx        1 BSA      0.083700
     26 H92        -2.8650   -0.7030   -0.3490 hn        1 BSA      0.486800
@<TRIPOS>BOND
     1    1    2 ar  
     2    1    6 ar  
     3    1   13 1   
     4    2    3 ar  
     5    2   16 1   
     6    3    4 ar  
     7    3   17 1   
     8    4    5 ar  
     9    4   18 1   
    10    5    6 ar  
    11    5   19 1   
    12    6   20 1   
    13    7    8 1   
    14    7   10 1   
    15    7   21 1   
    16    7   22 1   
    17    8   11 1   
    18    8   12 1   
    19    8   15 1   
    20    9   10 1   
    21    9   13 1   
    22    9   23 1   
    23    9   26 1   
    24   10   24 1   
    25   10   25 1   
    26   13   14 2   
@<TRIPOS>SUBSTRUCTURE
     1 BSA         1 TEMP              0 ****  ****    0 ROOT
