@<TRIPOS>MOLECULE
BSA
   25    21     1     0     0
SMALL
bcc


@<TRIPOS>ATOM
      1 C1          1.5410   -0.2130    0.8970 cg        1 BSA     -0.077200
      2 C2          0.8650   -0.2290    2.1120 c1        1 BSA     -0.072750
      3 C3          1.5890   -0.2910    3.3140 c1        1 BSA     -0.072750
      4 C4          2.9560   -0.3370    3.2880 c1        1 BSA     -0.072750
      5 C5          3.6420   -0.3210    2.0520 c1        1 BSA     -0.072750
      6 C6          2.9350   -0.2600    0.8730 c1        1 BSA     -0.027500
      7 C7         -2.4410   -0.2830   -2.0010 c3        1 BSA     -0.343100
      8 S8         -3.4930    0.7220   -2.9890 s4        1 BSA      1.650500
      9 N9         -0.6310   -0.2140   -0.3980 n         1 BSA     -0.538900
     10 C10        -1.3690    0.5790   -1.3500 c3        1 BSA      0.116000
     11 O11        -2.6800    1.5220   -3.9660 os        1 BSA     -1.066000
     12 O12        -4.3760    1.6320   -2.1220 o         1 BSA     -0.680400
     13 C13         0.7590   -0.2070   -0.4190 c         1 BSA      0.601300
     14 O14         1.3570   -0.3390   -1.4880 o         1 BSA     -0.619100
     15 O15        -4.5340   -0.1130   -3.6950 o         1 BSA     -0.680400
     16 H2         -0.1020   -0.1960    2.1290 ha        1 BSA      0.071750
     17 H3          1.1150   -0.3020    4.1720 ha        1 BSA      0.071750
     18 H4          3.4520   -0.3800    4.1120 ha        1 BSA      0.071750
     19 H5          4.5920   -0.4290    2.0310 ha        1 BSA      0.071750
     20 H6          3.4070   -0.2480    0.0240 ha        1 BSA      0.096500
     21 H71        -2.0050   -0.9760   -2.5790 h1        1 BSA      0.065700
     22 H72        -2.9650   -0.7180   -1.3150 h1        1 BSA      0.065700
     23 HN9        -1.0670   -0.6590    0.2450 hn        1 BSA      0.296500
     24 H101       -0.7530    0.9170   -2.0430 h1        1 BSA      0.073700
     25 H102       -1.7940    1.3450   -0.8840 h1        1 BSA      0.073700
@<TRIPOS>BOND
     1    1    6 3   
     2    1   13 1   
     3    2    3 3   
     4    2   16 1   
     5    3   17 1   
     6    4    5 3   
     7    4   18 1   
     8    5   19 1   
     9    6   20 1   
    10    7    8 1   
    11    7   10 1   
    12    7   21 1   
    13    7   22 1   
    14    8   12 1   
    15    8   15 1   
    16    9   10 1   
    17    9   13 1   
    18    9   23 1   
    19   10   24 1   
    20   10   25 1   
    21   13   14 2   
@<TRIPOS>SUBSTRUCTURE
     1 BSA         1 TEMP              0 ****  ****    0 ROOT
