@<TRIPOS>MOLECULE
BSA
   26    26     1     0     0
SMALL
bcc


@<TRIPOS>ATOM
      1 C1         -0.2080   -0.3730   -0.3750 ca        1 BSA     -0.200600
      2 C2          1.1710   -0.6190   -0.2260 ca        1 BSA     -0.066500
      3 C3          1.9980    0.3580    0.3160 ca        1 BSA     -0.142500
      4 C4          1.4620    1.5840    0.7160 ca        1 BSA     -0.069000
      5 C5          0.0970    1.8290    0.5700 ca        1 BSA     -0.142500
      6 C6         -0.7460    0.8590    0.0270 ca        1 BSA     -0.066500
      7 C7         -4.2390   -0.2010   -2.5350 c3        1 BSA     -0.330600
      8 S8         -5.0180    0.3360   -0.9820 s6        1 BSA      1.436800
      9 N9         -2.4700   -1.2490   -1.1250 n4        1 BSA     -0.681800
     10 C10        -2.7700   -0.4910   -2.3920 c3        1 BSA      0.193800
     11 O11        -6.1730    1.0140   -1.3340 o         1 BSA     -0.733867
     12 O12        -3.9430    1.0760   -0.4070 o         1 BSA     -0.733867
     13 C13        -1.0030   -1.4620   -0.9500 c         1 BSA      0.573700
     14 O14        -0.5840   -2.5640   -1.3060 o         1 BSA     -0.479100
     15 O15        -5.1100   -0.9100   -0.3150 o         1 BSA     -0.733867
     16 H2          1.5870   -1.5910   -0.5420 ha        1 BSA      0.184000
     17 H3          3.0750    0.1610    0.4310 ha        1 BSA      0.155000
     18 H4          2.1180    2.3560    1.1480 ha        1 BSA      0.148000
     19 H5         -0.3300    2.7950    0.8860 ha        1 BSA      0.155000
     20 H6         -1.8250    1.1070   -0.0660 ha        1 BSA      0.184000
     21 H71        -4.3640    0.6060   -3.2960 h1        1 BSA      0.104700
     22 H72        -4.7870   -1.0970   -2.9100 h1        1 BSA      0.104700
     23 HN9        -2.8460   -0.7090   -0.3140 hn        1 BSA      0.486800
     24 H101       -2.3810   -1.1120   -3.2460 hx        1 BSA      0.083700
     25 H102       -2.1930    0.4770   -2.3330 hx        1 BSA      0.083700
     26 H92        -2.9730   -2.1460   -1.1480 hn        1 BSA      0.486800
@<TRIPOS>BOND
     1    1    2 ar  
     2    1    6 ar  
     3    1   13 1   
     4    2    3 ar  
     5    2   16 1   
     6    3    4 ar  
     7    3   17 1   
     8    4    5 ar  
     9    4   18 1   
    10    5    6 ar  
    11    5   19 1   
    12    6   20 1   
    13    7    8 1   
    14    7   10 1   
    15    7   21 1   
    16    7   22 1   
    17    8   11 1   
    18    8   12 1   
    19    8   15 1   
    20    9   10 1   
    21    9   13 1   
    22    9   23 1   
    23    9   26 1   
    24   10   24 1   
    25   10   25 1   
    26   13   14 2   
@<TRIPOS>SUBSTRUCTURE
     1 BSA         1 TEMP              0 ****  ****    0 ROOT
