@<TRIPOS>MOLECULE
BSA
   25    25     1     0     0
SMALL
bcc


@<TRIPOS>ATOM
      1 C1         -2.7760   -0.1610    0.1600 ca        1 BSA     -0.126600
      2 C2         -3.8740   -1.0130    0.0020 ca        1 BSA     -0.096500
      3 C3         -5.1540   -0.4800   -0.1430 ca        1 BSA     -0.144000
      4 C4         -5.3430    0.9020   -0.1220 ca        1 BSA     -0.126000
      5 C5         -4.2500    1.7510    0.0480 ca        1 BSA     -0.144000
      6 C6         -2.9660    1.2230    0.1880 ca        1 BSA     -0.096500
      7 C7          1.8830    0.6490    0.1330 c3        1 BSA     -0.309600
      8 S8          3.6360    0.2940   -0.0440 s6        1 BSA      1.430800
      9 N9         -0.3890   -0.2070   -0.3850 n         1 BSA     -0.537900
     10 C10         1.0050   -0.5400   -0.1790 c3        1 BSA      0.116000
     11 O11         4.2200    1.5830   -0.0680 o         1 BSA     -0.747200
     12 O12         3.7420   -0.4050   -1.2680 o         1 BSA     -0.747200
     13 C13        -1.4160   -0.7720    0.3290 c         1 BSA      0.652700
     14 O14        -1.2740   -1.7930    1.0370 o         1 BSA     -0.620100
     15 O15         3.9730   -0.4700    1.0930 o         1 BSA     -0.747200
     16 H2         -3.7130   -2.1030    0.0060 ha        1 BSA      0.146500
     17 H3         -6.0150   -1.1510   -0.2710 ha        1 BSA      0.126500
     18 H4         -6.3520    1.3210   -0.2360 ha        1 BSA      0.122000
     19 H5         -4.3980    2.8400    0.0730 ha        1 BSA      0.126500
     20 H6         -2.1120    1.9020    0.3350 ha        1 BSA      0.146500
     21 H71         1.7040    1.0000    1.1760 h1        1 BSA      0.065200
     22 H72         1.6580    1.5050   -0.5470 h1        1 BSA      0.065200
     23 HN9        -0.5620    0.6580   -0.8420 hn        1 BSA      0.296500
     24 H101        1.3760   -1.0240   -1.1320 h1        1 BSA      0.074200
     25 H102        1.0810   -1.2980    0.6530 h1        1 BSA      0.074200
@<TRIPOS>BOND
     1    1    2 ar  
     2    1    6 ar  
     3    1   13 1   
     4    2    3 ar  
     5    2   16 1   
     6    3    4 ar  
     7    3   17 1   
     8    4    5 ar  
     9    4   18 1   
    10    5    6 ar  
    11    5   19 1   
    12    6   20 1   
    13    7    8 1   
    14    7   10 1   
    15    7   21 1   
    16    7   22 1   
    17    8   11 1   
    18    8   12 1   
    19    8   15 1   
    20    9   10 1   
    21    9   13 1   
    22    9   23 1   
    23   10   24 1   
    24   10   25 1   
    25   13   14 2   
@<TRIPOS>SUBSTRUCTURE
     1 BSA         1 TEMP              0 ****  ****    0 ROOT
