@<TRIPOS>MOLECULE
BSB
   34    29     1     0     0
SMALL
bcc


@<TRIPOS>ATOM
      1 C01         1.8030   -0.1770    2.2580 c1        1 BSB     -0.110000
      2 C02         3.1690   -0.4390    2.2340 c1        1 BSB     -0.027000
      3 C03         3.8340   -0.5470    1.0200 c1        1 BSB     -0.807000
      4 C04         3.1340   -0.3930   -0.1720 c1        1 BSB     -0.103000
      5 C05         1.7660   -0.1300   -0.1480 c1        1 BSB     -0.103000
      6 C06         1.1020   -0.0230    1.0640 c1        1 BSB     -0.061000
      7 C07        -0.4130    0.2540    1.0920 c2        1 BSB      0.330000
      8 O08        -0.9940    0.3370    2.1540 o         1 BSB     -0.351000
      9 N09        -1.1230    0.5030   -0.1380 n         1 BSB     -0.358000
     10 C10        -2.3230    1.3110   -0.1300 c3        1 BSB      0.001000
     11 S11         5.5870   -0.8910    0.9880 s4        1 BSB      2.080800
     12 NP2         6.4330    0.4940    0.7160 n2        1 BSB     -0.953000
     13 O13         6.0150   -1.5350    2.2020 o         1 BSB     -0.543400
     14 O14         5.9040   -1.8950    0.0130 o         1 BSB     -0.543400
     15 C15        -3.4460    0.5680   -0.8670 c2        1 BSB     -0.117000
     16 C16        -3.5440    0.6560   -2.2490 c2        1 BSB     -0.124000
     17 C17        -4.6180    0.0660   -2.9090 c1        1 BSB     -0.130000
     18 C18        -5.5910   -0.6100   -2.1860 c1        1 BSB     -0.103000
     19 C19        -5.4930   -0.6980   -0.8030 c1        1 BSB     -0.103000
     20 C20        -4.4210   -0.1100   -0.1430 c1        1 BSB     -0.109000
     21 H01C        1.3340   -0.1010    3.1130 ha        1 BSB      0.161000
     22 H02C        3.6620   -0.5480    3.0730 ha        1 BSB      0.157000
     23 H04C        3.6030   -0.4690   -1.0270 ha        1 BSB      0.143500
     24 H05C        1.2750   -0.0220   -0.9860 ha        1 BSB      0.143500
     25 H09N       -0.8380    0.1160   -0.9150 hn        1 BSB      0.221000
     26 H101       -2.1450    2.1640   -0.5800 h1        1 BSB      0.112500
     27 H102       -2.5960    1.4820    0.7960 h1        1 BSB      0.112500
     28 HNP1        6.9180    0.5900   -0.0530 hn        1 BSB      0.245000
     29 HNP2        6.4300    1.1610    1.3400 hn        1 BSB      0.245000
     30 H16C       -2.8580    1.1330   -2.7590 ha        1 BSB      0.128000
     31 H17C       -4.6870    0.1280   -3.8830 ha        1 BSB      0.134000
     32 H18C       -6.3450   -1.0240   -2.6510 ha        1 BSB      0.143500
     33 H19C       -6.1790   -1.1750   -0.2930 ha        1 BSB      0.143500
     34 H20C       -4.3530   -0.1720    0.8310 ha        1 BSB      0.142000
@<TRIPOS>BOND
     1    1    6 1   
     2    1   21 1   
     3    2    3 1   
     4    2   22 1   
     5    3   11 1   
     6    4    5 1   
     7    4   23 1   
     8    5   24 1   
     9    6    7 1   
    10    7    8 1   
    11    7    9 1   
    12    9   10 1   
    13    9   25 1   
    14   10   15 1   
    15   10   26 1   
    16   10   27 1   
    17   11   13 1   
    18   11   14 1   
    19   12   28 1   
    20   12   29 1   
    21   15   16 1   
    22   15   20 1   
    23   16   17 1   
    24   16   30 1   
    25   17   31 1   
    26   18   19 1   
    27   18   32 1   
    28   19   33 1   
    29   20   34 1   
@<TRIPOS>SUBSTRUCTURE
     1 BSB         1 TEMP              0 ****  ****    0 ROOT
