@<TRIPOS>MOLECULE
BSB
   36    37     1     0     0
SMALL
bcc


@<TRIPOS>ATOM
      1 C01        -0.2020    0.4730    0.4060 ca        1 BSB     -0.098500
      2 C02         1.0770   -0.0250    0.1600 ca        1 BSB      0.013000
      3 C03         2.0460   -0.0760    1.1790 ca        1 BSB     -0.461500
      4 C04         1.6900    0.3850    2.4600 ca        1 BSB      0.013000
      5 C05         0.4120    0.8760    2.7220 ca        1 BSB     -0.098500
      6 C06        -0.5350    0.9180    1.6920 ca        1 BSB     -0.078600
      7 C07        -1.8860    1.4950    1.8970 c         1 BSB      0.535700
      8 O08        -2.4280    2.3120    1.1680 o         1 BSB     -0.363100
      9 N09        -2.6600    1.0270    3.0910 ny        1 BSB     -0.680800
     10 C10        -3.8430    0.1610    2.6900 c3        1 BSB      0.193100
     11 S11         3.5070   -0.7790    0.9150 sy        1 BSB      1.462200
     12 NP2         4.4710    0.7310    0.3270 nz        1 BSB     -0.801500
     13 O13         3.5320   -1.5550   -0.2180 o         1 BSB     -0.534300
     14 O14         4.1740   -1.0720    2.0810 o         1 BSB     -0.534300
     15 C15        -4.6750   -0.1470    3.8780 ca        1 BSB     -0.216300
     16 C16        -5.7030    0.7290    4.2540 ca        1 BSB     -0.094000
     17 C17        -6.5230    0.4130    5.3350 ca        1 BSB     -0.115500
     18 C18        -6.3220   -0.7760    6.0420 ca        1 BSB     -0.057000
     19 C19        -5.2980   -1.6500    5.6670 ca        1 BSB     -0.115500
     20 C20        -4.4740   -1.3390    4.5880 ca        1 BSB     -0.094000
     21 H01C       -0.9420    0.5210   -0.4150 ha        1 BSB      0.186000
     22 H02C        1.3190   -0.4040   -0.8550 ha        1 BSB      0.195000
     23 H04C        2.4280    0.3400    3.2870 ha        1 BSB      0.195000
     24 H05C        0.1790    1.2450    3.7350 ha        1 BSB      0.186000
     25 H09N       -3.0350    1.8450    3.5970 hn        1 BSB      0.466300
     26 H101       -4.4280    0.7440    1.9190 hx        1 BSB      0.113200
     27 H102       -3.4290   -0.7760    2.2200 hx        1 BSB      0.113200
     28 HNP1        5.2750    0.9030    0.9380 hn        1 BSB      0.471800
     29 HNP2        3.9250    1.5880    0.2960 hn        1 BSB      0.471800
     30 H16C       -5.8830    1.6550    3.6860 ha        1 BSB      0.138500
     31 H17C       -7.3380    1.0960    5.6260 ha        1 BSB      0.169500
     32 H18C       -6.9780   -1.0280    6.8930 ha        1 BSB      0.173000
     33 H19C       -5.1490   -2.5920    6.2200 ha        1 BSB      0.169500
     34 H20C       -3.6850   -2.0430    4.2830 ha        1 BSB      0.138500
     35 H092       -2.0610    0.4990    3.7330 hn        1 BSB      0.466300
     36 HP23        4.8420    0.5730   -0.6150 hn        1 BSB      0.471800
@<TRIPOS>BOND
     1    1    2 ar  
     2    1    6 ar  
     3    1   21 1   
     4    2    3 ar  
     5    2   22 1   
     6    3    4 ar  
     7    3   11 1   
     8    4    5 ar  
     9    4   23 1   
    10    5    6 ar  
    11    5   24 1   
    12    6    7 1   
    13    7    8 2   
    14    7    9 1   
    15    9   10 1   
    16    9   25 1   
    17    9   35 1   
    18   10   15 1   
    19   10   26 1   
    20   10   27 1   
    21   11   12 1   
    22   11   13 2   
    23   11   14 2   
    24   12   28 1   
    25   12   29 1   
    26   12   36 1   
    27   15   16 ar  
    28   15   20 ar  
    29   16   17 ar  
    30   16   30 1   
    31   17   18 ar  
    32   17   31 1   
    33   18   19 ar  
    34   18   32 1   
    35   19   20 ar  
    36   19   33 1   
    37   20   34 1   
@<TRIPOS>SUBSTRUCTURE
     1 BSB         1 TEMP              0 ****  ****    0 ROOT
