@<TRIPOS>MOLECULE
BSB
   34    35     1     0     0
SMALL
bcc


@<TRIPOS>ATOM
      1 C01        -1.7840   -0.3970    1.4020 ca        1 BSB     -0.122500
      2 C02        -1.2950   -0.2360    2.6970 ca        1 BSB     -0.026000
      3 C03         0.0560    0.0440    2.9250 ca        1 BSB     -0.363500
      4 C04         0.9120    0.1710    1.8260 ca        1 BSB     -0.026000
      5 C05         0.4360    0.0200    0.5260 ca        1 BSB     -0.122500
      6 C06        -0.9150   -0.2650    0.3140 ca        1 BSB     -0.077600
      7 C07        -1.4610   -0.4630   -1.0650 c         1 BSB      0.659700
      8 O08        -2.2250   -1.4130   -1.3260 o         1 BSB     -0.593100
      9 N09        -1.1330    0.4920   -2.0080 n         1 BSB     -0.552900
     10 C10        -1.4650    0.3400   -3.4010 c3        1 BSB      0.127300
     11 S11         0.6410    0.2570    4.5040 sy        1 BSB      1.525200
     12 NP2         1.0410   -1.2280    4.9450 n3        1 BSB     -1.026700
     13 O13        -0.4240    0.7120    5.3090 o         1 BSB     -0.655300
     14 O14         1.8030    1.0530    4.4360 o         1 BSB     -0.655300
     15 C15        -0.2720    0.1310   -4.2910 ca        1 BSB     -0.123300
     16 C16        -0.0230   -1.1220   -4.8560 ca        1 BSB     -0.117000
     17 C17         1.0730   -1.3030   -5.7000 ca        1 BSB     -0.131000
     18 C18         1.9260   -0.2350   -5.9770 ca        1 BSB     -0.122000
     19 C19         1.6830    1.0160   -5.4110 ca        1 BSB     -0.131000
     20 C20         0.5870    1.2000   -4.5690 ca        1 BSB     -0.117000
     21 H01C       -2.8450   -0.6340    1.2260 ha        1 BSB      0.153000
     22 H02C       -1.9860   -0.3150    3.5560 ha        1 BSB      0.157500
     23 H04C        1.9770    0.4140    1.9950 ha        1 BSB      0.157500
     24 H05C        1.1310    0.1130   -0.3230 ha        1 BSB      0.153000
     25 H09N       -0.4210    1.1500   -1.7880 hn        1 BSB      0.309500
     26 H101       -2.1830   -0.5250   -3.5120 h1        1 BSB      0.072700
     27 H102       -1.9970    1.2810   -3.7290 h1        1 BSB      0.072700
     28 HNP1        1.9410   -1.6160    4.8090 hn        1 BSB      0.449800
     29 HNP2        0.4230   -1.8490    5.4020 hn        1 BSB      0.449800
     30 H16C       -0.6940   -1.9670   -4.6360 ha        1 BSB      0.136000
     31 H17C        1.2630   -2.2900   -6.1460 ha        1 BSB      0.134500
     32 H18C        2.7900   -0.3790   -6.6420 ha        1 BSB      0.134000
     33 H19C        2.3540    1.8600   -5.6300 ha        1 BSB      0.134500
     34 H20C        0.3900    2.1890   -4.1300 ha        1 BSB      0.136000
@<TRIPOS>BOND
     1    1    2 ar  
     2    1    6 ar  
     3    1   21 1   
     4    2    3 ar  
     5    2   22 1   
     6    3    4 ar  
     7    3   11 1   
     8    4    5 ar  
     9    4   23 1   
    10    5    6 ar  
    11    5   24 1   
    12    6    7 1   
    13    7    8 2   
    14    7    9 1   
    15    9   10 1   
    16    9   25 1   
    17   10   15 1   
    18   10   26 1   
    19   10   27 1   
    20   11   12 1   
    21   11   13 2   
    22   11   14 2   
    23   12   28 1   
    24   12   29 1   
    25   15   16 ar  
    26   15   20 ar  
    27   16   17 ar  
    28   16   30 1   
    29   17   18 ar  
    30   17   31 1   
    31   18   19 ar  
    32   18   32 1   
    33   19   20 ar  
    34   19   33 1   
    35   20   34 1   
@<TRIPOS>SUBSTRUCTURE
     1 BSB         1 TEMP              0 ****  ****    0 ROOT
