@<TRIPOS>MOLECULE
BSB
   36    37     1     0     0
SMALL
bcc


@<TRIPOS>ATOM
      1 C01        -0.1940    0.4140    0.4040 ca        1 BSB     -0.098500
      2 C02         1.0930   -0.0770    0.1800 ca        1 BSB      0.013000
      3 C03         2.0560   -0.0840    1.2050 ca        1 BSB     -0.461500
      4 C04         1.6880    0.4150    2.4690 ca        1 BSB      0.013000
      5 C05         0.4030    0.8990    2.7080 ca        1 BSB     -0.098500
      6 C06        -0.5380    0.8970    1.6730 ca        1 BSB     -0.078600
      7 C07        -1.8970    1.4660    1.8520 c         1 BSB      0.535700
      8 O08        -2.4440    2.2530    1.0940 o         1 BSB     -0.363100
      9 N09        -2.6720    1.0280    3.0570 n4        1 BSB     -0.680800
     10 C10        -3.8420    0.1340    2.6770 c3        1 BSB      0.193100
     11 S11         3.5260   -0.7780    0.9720 sy        1 BSB      1.462200
     12 NP2         4.4770    0.7230    0.3400 n4        1 BSB     -0.801500
     13 O13         3.5660   -1.5900   -0.1350 o         1 BSB     -0.534300
     14 O14         4.1900   -1.0260    2.1500 o         1 BSB     -0.534300
     15 C15        -4.6770   -0.1450    3.8710 ca        1 BSB     -0.216300
     16 C16        -5.7190    0.7290    4.2120 ca        1 BSB     -0.094000
     17 C17        -6.5410    0.4380    5.2980 ca        1 BSB     -0.115500
     18 C18        -6.3290   -0.7240    6.0450 ca        1 BSB     -0.057000
     19 C19        -5.2910   -1.5960    5.7060 ca        1 BSB     -0.115500
     20 C20        -4.4650   -1.3100    4.6220 ca        1 BSB     -0.094000
     21 H01C       -0.9290    0.4270   -0.4230 ha        1 BSB      0.186000
     22 H02C        1.3430   -0.4850   -0.8210 ha        1 BSB      0.195000
     23 H04C        2.4220    0.4050    3.3010 ha        1 BSB      0.195000
     24 H05C        0.1610    1.2980    3.7080 ha        1 BSB      0.186000
     25 H09N       -3.0610    1.8570    3.5320 hn        1 BSB      0.466300
     26 H101       -4.4300    0.6840    1.8840 hx        1 BSB      0.113200
     27 H102       -3.4140   -0.8130    2.2410 hx        1 BSB      0.113200
     28 HNP1        5.2750    0.9240    0.9490 hn        1 BSB      0.471800
     29 HNP2        3.9210    1.5730    0.2790 hn        1 BSB      0.471800
     30 H16C       -5.9080    1.6330    3.6110 ha        1 BSB      0.138500
     31 H17C       -7.3670    1.1190    5.5610 ha        1 BSB      0.169500
     32 H18C       -6.9870   -0.9560    6.9000 ha        1 BSB      0.173000
     33 H19C       -5.1330   -2.5180    6.2900 ha        1 BSB      0.169500
     34 H20C       -3.6650   -2.0130    4.3450 ha        1 BSB      0.138500
     35 H092       -2.0700    0.5290    3.7190 hn        1 BSB      0.466300
     36 HP23        4.8540    0.5390   -0.5950 hn        1 BSB      0.471800
@<TRIPOS>BOND
     1    1    2 ar  
     2    1    6 ar  
     3    1   21 1   
     4    2    3 ar  
     5    2   22 1   
     6    3    4 ar  
     7    3   11 1   
     8    4    5 ar  
     9    4   23 1   
    10    5    6 ar  
    11    5   24 1   
    12    6    7 1   
    13    7    8 2   
    14    7    9 1   
    15    9   10 1   
    16    9   25 1   
    17    9   35 1   
    18   10   15 1   
    19   10   26 1   
    20   10   27 1   
    21   11   12 1   
    22   11   13 2   
    23   11   14 2   
    24   12   28 1   
    25   12   29 1   
    26   12   36 1   
    27   15   16 ar  
    28   15   20 ar  
    29   16   17 ar  
    30   16   30 1   
    31   17   18 ar  
    32   17   31 1   
    33   18   19 ar  
    34   18   32 1   
    35   19   20 ar  
    36   19   33 1   
    37   20   34 1   
@<TRIPOS>SUBSTRUCTURE
     1 BSB         1 TEMP              0 ****  ****    0 ROOT
