@<TRIPOS>MOLECULE
BSB
   36    37     1     0     0
SMALL
bcc


@<TRIPOS>ATOM
      1 C01        -0.2030    0.4980    0.4080 ca        1 BSB     -0.098500
      2 C02         1.0690   -0.0120    0.1490 ca        1 BSB      0.013000
      3 C03         2.0400   -0.0930    1.1630 ca        1 BSB     -0.461500
      4 C04         1.6940    0.3500    2.4540 ca        1 BSB      0.013000
      5 C05         0.4230    0.8520    2.7290 ca        1 BSB     -0.098500
      6 C06        -0.5260    0.9250    1.7030 ca        1 BSB     -0.078600
      7 C07        -1.8690    1.5150    1.9230 c         1 BSB      0.535700
      8 O08        -2.4030    2.3520    1.2100 o         1 BSB     -0.363100
      9 N09        -2.6450    1.0360    3.1120 n4        1 BSB     -0.680800
     10 C10        -3.8410    0.1930    2.6990 c3        1 BSB      0.193100
     11 S11         3.4910   -0.8090    0.8820 sy        1 BSB      1.462200
     12 NP2         4.4720    0.6980    0.3170 n4        1 BSB     -0.801500
     13 O13         3.5020   -1.5660   -0.2650 o         1 BSB     -0.534300
     14 O14         4.1580   -1.1320    2.0400 o         1 BSB     -0.534300
     15 C15        -4.6720   -0.1270    3.8850 ca        1 BSB     -0.216300
     16 C16        -5.6880    0.7550    4.2820 ca        1 BSB     -0.094000
     17 C17        -6.5070    0.4290    5.3600 ca        1 BSB     -0.115500
     18 C18        -6.3180   -0.7750    6.0440 ca        1 BSB     -0.057000
     19 C19        -5.3080   -1.6550    5.6480 ca        1 BSB     -0.115500
     20 C20        -4.4840   -1.3340    4.5720 ca        1 BSB     -0.094000
     21 H01C       -0.9450    0.5700   -0.4090 ha        1 BSB      0.186000
     22 H02C        1.3020   -0.3750   -0.8730 ha        1 BSB      0.195000
     23 H04C        2.4340    0.2800    3.2770 ha        1 BSB      0.195000
     24 H05C        0.1990    1.2050    3.7500 ha        1 BSB      0.186000
     25 H09N       -2.0510    0.4890    3.7420 hn        1 BSB      0.466300
     26 H101       -3.4410   -0.7400    2.2100 hx        1 BSB      0.113200
     27 H102       -4.4210    0.7980    1.9410 hx        1 BSB      0.113200
     28 HNP1        5.2800    0.8500    0.9280 hn        1 BSB      0.471800
     29 HNP2        3.9370    1.5630    0.3040 hn        1 BSB      0.471800
     30 H16C       -5.8570    1.6940    3.7310 ha        1 BSB      0.138500
     31 H17C       -7.3120    1.1180    5.6670 ha        1 BSB      0.169500
     32 H18C       -6.9740   -1.0350    6.8920 ha        1 BSB      0.173000
     33 H19C       -5.1690   -2.6100    6.1820 ha        1 BSB      0.169500
     34 H20C       -3.7060   -2.0430    4.2500 ha        1 BSB      0.138500
     35 H092       -3.0080    1.8490    3.6330 hn        1 BSB      0.466300
     36 HP23        4.8380    0.5530   -0.6290 hn        1 BSB      0.471800
@<TRIPOS>BOND
     1    1    2 ar  
     2    1    6 ar  
     3    1   21 1   
     4    2    3 ar  
     5    2   22 1   
     6    3    4 ar  
     7    3   11 1   
     8    4    5 ar  
     9    4   23 1   
    10    5    6 ar  
    11    5   24 1   
    12    6    7 1   
    13    7    8 2   
    14    7    9 1   
    15    9   10 1   
    16    9   25 1   
    17    9   35 1   
    18   10   15 1   
    19   10   26 1   
    20   10   27 1   
    21   11   12 1   
    22   11   13 2   
    23   11   14 2   
    24   12   28 1   
    25   12   29 1   
    26   12   36 1   
    27   15   16 ar  
    28   15   20 ar  
    29   16   17 ar  
    30   16   30 1   
    31   17   18 ar  
    32   17   31 1   
    33   18   19 ar  
    34   18   32 1   
    35   19   20 ar  
    36   19   33 1   
    37   20   34 1   
@<TRIPOS>SUBSTRUCTURE
     1 BSB         1 TEMP              0 ****  ****    0 ROOT
