@<TRIPOS>MOLECULE
BSD
   89    92     1     0     0
SMALL
bcc


@<TRIPOS>ATOM
      1 C11         4.3450   -4.8860   31.5660 ca        1 BSD     -0.118500
      2 C12         5.3690   -4.0620   32.0320 ca        1 BSD     -0.129000
      3 C13         5.2820   -3.4830   33.2970 ca        1 BSD     -0.124000
      4 C14         4.1680   -3.7290   34.0990 ca        1 BSD     -0.129000
      5 C15         3.1440   -4.5540   33.6370 ca        1 BSD     -0.118500
      6 C16         3.2290   -5.1400   32.3700 ca        1 BSD     -0.112300
      7 C17         2.1290   -6.0430   31.8600 c3        1 BSD      0.139000
      8 C18         2.0000   -7.2560   32.7880 c3        1 BSD     -0.101100
      9 N21         0.8710   -5.3370   31.7110 n         1 BSD     -0.561900
     10 C21         0.2860   -5.1310   30.4750 c         1 BSD      0.670700
     11 O21         0.7220   -5.6670   29.4390 o         1 BSD     -0.581100
     12 C23        -0.9350   -4.2660   30.4560 ca        1 BSD     -0.127600
     13 C24        -1.0060   -3.2350   29.5170 ca        1 BSD     -0.091000
     14 C25        -2.1610   -2.4220   29.4480 ca        1 BSD      0.135600
     15 C26        -3.2340   -2.6920   30.3250 ca        1 BSD     -0.098000
     16 C27        -3.1360   -3.7220   31.2590 ca        1 BSD     -0.138600
     17 C28        -1.9860   -4.5100   31.3410 ca        1 BSD     -0.098000
     18 N22        -2.2420   -1.3490   28.5350 nh        1 BSD     -0.675900
     19 C29        -2.8530   -0.1430   29.0300 c3        1 BSD      0.184100
     20 S2         -1.8800   -1.4780   26.9330 s6        1 BSD      1.457900
     21 O23        -1.9260   -0.2000   26.3380 o         1 BSD     -0.645800
     22 O24        -0.6860   -2.1990   26.7540 o         1 BSD     -0.645800
     23 C20        -3.1630   -2.4030   26.3180 c3        1 BSD     -0.377300
     24 C22        -4.3030   -3.9900   32.1520 c         1 BSD      0.680700
     25 O22        -5.4480   -4.1880   31.6910 o         1 BSD     -0.623100
     26 N3         -4.0590   -3.9460   33.5090 n         1 BSD     -0.545900
     27 C31        -5.0110   -4.4130   34.4900 c3        1 BSD      0.065700
     28 C32        -4.3840   -5.4260   35.4740 c3        1 BSD     -0.057100
     29 C33        -3.7560   -6.5770   34.7760 ca        1 BSD     -0.083300
     30 C34        -4.5190   -7.6990   34.4270 ca        1 BSD     -0.132500
     31 C35        -3.9270   -8.7740   33.7670 ca        1 BSD     -0.126500
     32 C36        -2.5690   -8.7390   33.4470 ca        1 BSD     -0.126000
     33 C37        -1.8030   -7.6270   33.7940 ca        1 BSD     -0.126500
     34 C38        -2.3930   -6.5520   34.4570 ca        1 BSD     -0.132500
     35 C39        -5.6080   -3.2510   35.3350 c3        1 BSD      0.138100
     36 O3         -6.5130   -3.7820   36.2830 oh        1 BSD     -0.598800
     37 C30        -6.2570   -2.1370   34.4950 c3        1 BSD      0.133800
     38 N4         -7.3320   -2.6120   33.6510 n3        1 BSD     -0.839200
     39 C41        -8.1180   -1.5740   33.0240 c3        1 BSD      0.210100
     40 C42        -7.5290   -0.8910   31.8190 ca        1 BSD     -0.089300
     41 C43        -7.0530   -1.6570   30.7510 ca        1 BSD     -0.193000
     42 C44        -6.5370   -1.0160   29.6200 ca        1 BSD      0.110100
     43 C45        -6.5060    0.3880   29.5370 ca        1 BSD     -0.162000
     44 C46        -6.9880    1.1340   30.6070 ca        1 BSD     -0.103000
     45 C47        -7.4950    0.5040   31.7450 ca        1 BSD     -0.153000
     46 O4         -6.0030   -1.6850   28.5320 os        1 BSD     -0.350900
     47 C48        -6.2870   -3.0820   28.4660 c3        1 BSD      0.100700
     48 H11         4.4150   -5.3340   30.5630 ha        1 BSD      0.133500
     49 H12         6.2460   -3.8680   31.3960 ha        1 BSD      0.134000
     50 H13         6.0900   -2.8320   33.6620 ha        1 BSD      0.134000
     51 H14         4.0970   -3.2730   35.0970 ha        1 BSD      0.134000
     52 H15         2.2710   -4.7520   34.2770 ha        1 BSD      0.133500
     53 H17         2.4220   -6.4280   30.8330 h1        1 BSD      0.096700
     54 H181        1.2640   -7.9870   32.3740 hc        1 BSD      0.043367
     55 H182        2.9960   -7.7540   32.8660 hc        1 BSD      0.043367
     56 H183        1.6700   -6.9540   33.8100 hc        1 BSD      0.043367
     57 H21         0.5900   -4.7650   32.4720 hn        1 BSD      0.304500
     58 H24        -0.1610   -3.0860   28.8160 ha        1 BSD      0.194000
     59 H28        -1.9250   -5.3320   32.0750 ha        1 BSD      0.155000
     60 H26        -4.1670   -2.1010   30.2710 ha        1 BSD      0.166000
     61 H291       -2.5390    0.0480   30.0900 h1        1 BSD      0.060033
     62 H292       -2.5260    0.7270   28.3970 h1        1 BSD      0.060033
     63 H293       -3.9780   -0.2200   28.9980 h1        1 BSD      0.060033
     64 H201       -4.1690   -2.1250   26.7260 h1        1 BSD      0.122700
     65 H202       -3.2370   -2.2770   25.2070 h1        1 BSD      0.122700
     66 H203       -3.0370   -3.4980   26.5010 h1        1 BSD      0.122700
     67 H3         -3.1130   -3.8860   33.8100 hn        1 BSD      0.309500
     68 H31        -5.8590   -4.9330   33.9490 h1        1 BSD      0.087700
     69 H321       -3.6260   -4.9030   36.1150 hc        1 BSD      0.068200
     70 H322       -5.2070   -5.7780   36.1530 hc        1 BSD      0.068200
     71 H39        -4.7940   -2.7860   35.9630 h1        1 BSD      0.071700
     72 H34        -5.5900   -7.7280   34.6760 ha        1 BSD      0.128000
     73 H38        -1.7800   -5.6840   34.7440 ha        1 BSD      0.128000
     74 H35        -4.5330   -9.6510   33.4960 ha        1 BSD      0.136000
     75 H36        -2.1040   -9.5870   32.9220 ha        1 BSD      0.136000
     76 H37        -0.7300   -7.5960   33.5430 ha        1 BSD      0.136000
     77 HA         -7.3180   -4.0380   35.8150 ho        1 BSD      0.419000
     78 H301       -6.6880   -1.3880   35.2220 h1        1 BSD      0.043700
     79 H302       -5.4440   -1.6140   33.9140 h1        1 BSD      0.043700
     80 H4         -6.9830   -3.2610   32.9660 hn        1 BSD      0.387800
     81 H411       -9.0820   -2.0650   32.6940 h1        1 BSD      0.060200
     82 H412       -8.3790   -0.7990   33.8000 h1        1 BSD      0.060200
     83 H43        -7.0770   -2.7580   30.8090 ha        1 BSD      0.164000
     84 H47        -7.8720    1.1100   32.5820 ha        1 BSD      0.134000
     85 H45        -6.1100    0.8730   28.6340 ha        1 BSD      0.148000
     86 H46        -6.9710    2.2330   30.5540 ha        1 BSD      0.135000
     87 H481       -5.7750   -3.6230   29.3020 h1        1 BSD      0.053367
     88 H482       -7.3890   -3.2620   28.4970 h1        1 BSD      0.053367
     89 H483       -5.8650   -3.3880   27.4750 h1        1 BSD      0.053367
@<TRIPOS>BOND
     1    1    2 ar  
     2    1    6 ar  
     3    1   48 1   
     4    2    3 ar  
     5    2   49 1   
     6    3    4 ar  
     7    3   50 1   
     8    4    5 ar  
     9    4   51 1   
    10    5    6 ar  
    11    5   52 1   
    12    6    7 1   
    13    7    8 1   
    14    7    9 1   
    15    7   53 1   
    16    8   54 1   
    17    8   55 1   
    18    8   56 1   
    19    9   10 1   
    20    9   57 1   
    21   10   11 2   
    22   10   12 1   
    23   12   13 ar  
    24   12   17 ar  
    25   13   14 ar  
    26   13   58 1   
    27   14   15 ar  
    28   14   18 1   
    29   15   16 ar  
    30   15   60 1   
    31   16   17 ar  
    32   16   24 1   
    33   17   59 1   
    34   18   19 1   
    35   18   20 1   
    36   19   61 1   
    37   19   62 1   
    38   19   63 1   
    39   20   21 2   
    40   20   22 2   
    41   20   23 1   
    42   23   64 1   
    43   23   65 1   
    44   23   66 1   
    45   24   25 2   
    46   24   26 1   
    47   26   27 1   
    48   26   67 1   
    49   27   28 1   
    50   27   35 1   
    51   27   68 1   
    52   28   29 1   
    53   28   69 1   
    54   28   70 1   
    55   29   30 ar  
    56   29   34 ar  
    57   30   31 ar  
    58   30   72 1   
    59   31   32 ar  
    60   31   74 1   
    61   32   33 ar  
    62   32   75 1   
    63   33   34 ar  
    64   33   76 1   
    65   34   73 1   
    66   35   36 1   
    67   35   37 1   
    68   35   71 1   
    69   36   77 1   
    70   37   38 1   
    71   37   78 1   
    72   37   79 1   
    73   38   39 1   
    74   38   80 1   
    75   39   40 1   
    76   39   81 1   
    77   39   82 1   
    78   40   41 ar  
    79   40   45 ar  
    80   41   42 ar  
    81   41   83 1   
    82   42   43 ar  
    83   42   46 1   
    84   43   44 ar  
    85   43   85 1   
    86   44   45 ar  
    87   44   86 1   
    88   45   84 1   
    89   46   47 1   
    90   47   87 1   
    91   47   88 1   
    92   47   89 1   
@<TRIPOS>SUBSTRUCTURE
     1 BSD         1 TEMP              0 ****  ****    0 ROOT
