@<TRIPOS>MOLECULE
BSD
   93    94     1     0     0
SMALL
bcc


@<TRIPOS>ATOM
      1 C11       -52.7590 -152.8740  150.2890 ca        1 BSD     -0.106000
      2 C12       -53.3860 -153.4170  151.4090 ca        1 BSD     -0.110500
      3 C13       -54.1220 -152.5970  152.2670 ca        1 BSD     -0.063000
      4 C14       -54.2340 -151.2300  152.0020 ca        1 BSD     -0.110500
      5 C15       -53.6160 -150.6840  150.8790 ca        1 BSD     -0.106000
      6 C16       -52.8770 -151.5050  150.0170 ca        1 BSD     -0.200000
      7 C17       -52.2580 -150.9510  148.7740 c3        1 BSD      0.017000
      8 C18       -53.2660 -150.2240  147.8990 c3        1 BSD     -0.252000
      9 N21       -51.1070 -150.0160  149.1840 n4        1 BSD     -0.116000
     10 C21       -50.1590 -149.7440  148.0600 c2        1 BSD      0.290000
     11 O21       -50.4690 -148.8390  147.2940 o         1 BSD     -0.159000
     12 C23       -48.9150 -150.5410  147.9650 ca        1 BSD     -0.097000
     13 C24       -48.7630 -151.7950  148.5390 ca        1 BSD     -0.131000
     14 C25       -47.5410 -152.5240  148.3810 ca        1 BSD      0.152000
     15 C26       -46.5010 -151.9290  147.6150 ca        1 BSD     -0.166000
     16 C27       -46.6800 -150.6690  147.0410 ca        1 BSD     -0.110000
     17 C28       -47.8800 -149.9650  147.2080 ca        1 BSD     -0.065000
     18 N22       -47.4020 -153.7530  148.9650 nh        1 BSD     -0.301000
     19 C29       -46.2330 -154.5670  148.8270 c3        1 BSD     -0.090000
     20 S2        499.5000    0.1960-1735.5150 s         1 BSD      2.850000
     21 O23       500.0540    0.0160-1735.2010 o         1 BSD     -0.746000
     22 O24       499.1940    0.1500-1734.6250 o         1 BSD     -0.746000
     23 C20       499.1850    0.4820-1737.0380 c2        1 BSD     -1.157000
     24 C22       -45.6680 -150.0010  146.2030 c2        1 BSD      0.312000
     25 O22       -45.8340 -148.9980  145.5210 o         1 BSD     -0.186000
     26 N3        -44.2780 -150.5970  146.1670 n4        1 BSD     -0.110000
     27 C31       -43.2300 -149.7080  145.5400 c3        1 BSD     -0.069000
     28 C32       -41.8310 -150.1090  146.0330 c3        1 BSD     -0.139000
     29 C33       -41.7670 -150.2680  147.5110 ca        1 BSD     -0.183000
     30 C34       -41.6540 -149.1420  148.3370 ca        1 BSD     -0.131000
     31 C35       -41.5110 -149.2970  149.7150 ca        1 BSD     -0.110000
     32 C36       -41.4730 -150.5750  150.2760 ca        1 BSD     -0.081000
     33 C37       -41.5860 -151.7000  149.4560 ca        1 BSD     -0.110000
     34 C38       -41.7330 -151.5490  148.0780 ca        1 BSD     -0.131000
     35 C39       -43.3300 -149.7400  143.9900 c3        1 BSD     -0.008000
     36 O3        -43.2210 -151.0960  143.5920 oh        1 BSD     -0.351000
     37 C30       -42.2610 -148.8640  143.3060 c3        1 BSD     -0.168000
     38 N4        -41.0230 -149.5760  142.8930 n4        1 BSD     -0.037000
     39 C41       -40.0480 -148.6630  142.1790 c3        1 BSD     -0.063000
     40 C42       -39.3320 -147.7740  143.1310 ca        1 BSD     -0.163000
     41 C43       -38.1340 -148.2150  143.7120 ca        1 BSD     -0.198000
     42 C44       -37.4230 -147.3460  144.5470 ca        1 BSD      0.108000
     43 C45       -37.9090 -146.0430  144.8080 ca        1 BSD     -0.095000
     44 C46       -39.0970 -145.6290  144.2220 ca        1 BSD     -0.093000
     45 C47       -39.8150 -146.4890  143.3850 ca        1 BSD     -0.144000
     46 O4        -36.2590 -147.6670  145.1940 os        1 BSD     -0.185000
     47 C48       -35.5500 -148.8130  144.7220 c3        1 BSD     -0.085000
     48 H11       -52.2010 -153.5320  149.6060 ha        1 BSD      0.133000
     49 H12       -53.3110 -154.4980  151.6110 ha        1 BSD      0.169500
     50 H13       -54.6250 -153.0310  153.1490 ha        1 BSD      0.175000
     51 H14       -54.8230 -150.5840  152.6750 ha        1 BSD      0.169500
     52 H15       -53.7350 -149.6100  150.6660 ha        1 BSD      0.133000
     53 H17       -51.7700 -151.7790  148.1760 hx        1 BSD      0.130000
     54 H181      -52.7840 -149.7970  146.9850 hc        1 BSD      0.129000
     55 H182      -54.0400 -150.9700  147.5790 hc        1 BSD      0.129000
     56 H183      -53.7880 -149.4060  148.4530 hc        1 BSD      0.129000
     57 H21       -50.6140 -150.4320  149.9810 hn        1 BSD      0.262000
     58 H24       -49.5860 -152.2660  149.1060 ha        1 BSD      0.159000
     59 H28       -48.0240 -148.9740  146.7370 ha        1 BSD      0.196000
     60 H26       -45.5670 -152.4960  147.4790 ha        1 BSD      0.145000
     61 H291      -45.3330 -154.0410  149.2470 h1        1 BSD      0.105000
     62 H292      -46.0430 -154.8180  147.7470 h1        1 BSD      0.105000
     63 H293      -46.3890 -155.5240  149.3970 h1        1 BSD      0.105000
     64 H201      500.0310    0.2850-1737.7760 h4        1 BSD      0.261000
     65 H202      498.3510    0.8620-1737.5090 DU        1 BSD      0.269000
     66 H203      498.8660    0.5440-1737.2950 ha        1 BSD      0.269000
     67 H3        -43.9770 -150.8060  147.1360 hn        1 BSD      0.275500
     68 H31       -43.4540 -148.6490  145.8780 hx        1 BSD      0.171000
     69 H321      -41.5150 -151.0600  145.5250 hc        1 BSD      0.121000
     70 H322      -41.1250 -149.2870  145.7300 hc        1 BSD      0.121000
     71 H39       -44.3340 -149.3080  143.6940 h1        1 BSD      0.150000
     72 H34       -41.6490 -148.1320  147.8990 ha        1 BSD      0.137000
     73 H38       -41.7670 -152.4420  147.4350 ha        1 BSD      0.137000
     74 H35       -41.4040 -148.4080  150.3600 ha        1 BSD      0.168000
     75 H36       -41.3350 -150.6960  151.3640 ha        1 BSD      0.174000
     76 H37       -41.5300 -152.7090  149.8960 ha        1 BSD      0.168000
     77 HA        -43.7480 -151.2230  142.7880 ho        1 BSD      0.257000
     78 H301      -42.7190 -148.4190  142.3710 hx        1 BSD      0.169000
     79 H302      -41.9650 -148.0080  143.9820 hx        1 BSD      0.169000
     80 H4        -41.2770 -150.3570  142.2770 hn        1 BSD      0.249000
     81 H411      -39.3200 -149.3390  141.6380 hx        1 BSD      0.159500
     82 H412      -40.6270 -148.0670  141.4160 hx        1 BSD      0.159500
     83 H43       -37.7340 -149.2130  143.4800 ha        1 BSD      0.146000
     84 H47       -40.7320 -146.1270  142.8960 ha        1 BSD      0.136000
     85 H45       -37.3220 -145.3710  145.4570 ha        1 BSD      0.189000
     86 H46       -39.4660 -144.6040  144.3990 ha        1 BSD      0.170000
     87 H481      -36.1130 -149.7440  144.9720 h1        1 BSD      0.101333
     88 H482      -34.5860 -148.7660  145.2940 h1        1 BSD      0.101333
     89 H483      -35.3620 -148.7410  143.6240 h1        1 BSD      0.101333
     90 H212      -51.5290 -149.1260  149.4870 hn        1 BSD      0.262000
     91 H221      -48.1750 -154.1300  149.4670 hn        1 BSD      0.260000
     92 H32       -44.3080 -151.4810  145.6390 hn        1 BSD      0.275500
     93 H42       -40.5600 -149.9650  143.7250 hn        1 BSD      0.249000
@<TRIPOS>BOND
     1    1    2 1   
     2    1    6 1   
     3    1   48 1   
     4    2    3 1   
     5    2   49 1   
     6    3    4 1   
     7    3   50 1   
     8    4    5 1   
     9    4   51 1   
    10    5    6 1   
    11    5   52 1   
    12    6    7 1   
    13    7    8 1   
    14    7    9 1   
    15    7   53 1   
    16    8   54 1   
    17    8   55 1   
    18    8   56 1   
    19    9   10 1   
    20    9   57 1   
    21    9   90 1   
    22   10   11 1   
    23   10   12 1   
    24   12   13 1   
    25   12   17 1   
    26   13   14 1   
    27   13   58 1   
    28   14   15 1   
    29   14   18 1   
    30   15   16 1   
    31   15   60 1   
    32   16   17 1   
    33   16   24 1   
    34   17   59 1   
    35   18   19 1   
    36   18   91 1   
    37   19   61 1   
    38   19   62 1   
    39   19   63 1   
    40   20   23 1   
    41   21   22 1   
    42   23   64 1   
    43   23   65 1   
    44   24   25 1   
    45   24   26 1   
    46   26   27 1   
    47   26   67 1   
    48   26   92 1   
    49   27   28 1   
    50   27   35 1   
    51   27   68 1   
    52   28   29 1   
    53   28   69 1   
    54   28   70 1   
    55   29   30 1   
    56   29   34 1   
    57   30   31 1   
    58   30   72 1   
    59   31   32 1   
    60   31   74 1   
    61   32   33 1   
    62   32   75 1   
    63   33   34 1   
    64   33   76 1   
    65   34   73 1   
    66   35   36 1   
    67   35   37 1   
    68   35   71 1   
    69   36   77 1   
    70   37   38 1   
    71   37   78 1   
    72   37   79 1   
    73   38   39 1   
    74   38   80 1   
    75   38   93 1   
    76   39   40 1   
    77   39   81 1   
    78   39   82 1   
    79   40   41 1   
    80   40   45 1   
    81   41   42 1   
    82   41   83 1   
    83   42   43 1   
    84   42   46 1   
    85   43   44 1   
    86   43   85 1   
    87   44   45 1   
    88   44   86 1   
    89   45   84 1   
    90   46   47 1   
    91   47   87 1   
    92   47   88 1   
    93   47   89 1   
    94   65   66 1   
@<TRIPOS>SUBSTRUCTURE
     1 BSD         1 TEMP              0 ****  ****    0 ROOT
