@<TRIPOS>MOLECULE
BSD
   92    95     1     0     0
SMALL
bcc


@<TRIPOS>ATOM
      1 C11        -0.7850   -0.4290   -1.6350 ca        1 BSD     -0.100000
      2 C12         0.0010   -0.4320   -2.7850 ca        1 BSD     -0.114000
      3 C13         1.3940   -0.4240   -2.6830 ca        1 BSD     -0.067000
      4 C14         2.0020   -0.4130   -1.4250 ca        1 BSD     -0.114000
      5 C15         1.2210   -0.4190   -0.2720 ca        1 BSD     -0.100000
      6 C16        -0.1770   -0.4290   -0.3720 ca        1 BSD     -0.203300
      7 C17        -1.0330   -0.5020    0.8500 c3        1 BSD      0.220800
      8 C18        -0.6660   -1.6760    1.7440 c3        1 BSD     -0.133100
      9 N21        -0.9140    0.8280    1.6110 ny        1 BSD     -0.681800
     10 C21        -2.1360    1.1880    2.3950 c         1 BSD      0.554700
     11 O21        -2.8280    0.2850    2.8510 o         1 BSD     -0.412100
     12 C23        -2.3820    2.6330    2.6090 ca        1 BSD     -0.153600
     13 C24        -2.0720    3.5600    1.6140 ca        1 BSD     -0.072000
     14 C25        -2.0750    4.9500    1.8990 ca        1 BSD      0.201600
     15 C26        -2.6470    5.3640    3.1270 ca        1 BSD     -0.055000
     16 C27        -3.0990    4.4150    4.0600 ca        1 BSD     -0.170600
     17 C28        -2.9300    3.0450    3.8300 ca        1 BSD     -0.066000
     18 N22        -1.4910    5.8450    1.0040 nh        1 BSD     -0.646900
     19 C29        -2.0040    7.1910    0.9720 c3        1 BSD      0.172100
     20 S2          0.0060    5.4950    0.2740 s6        1 BSD      1.463900
     21 O23         0.9960    6.1940    0.9570 o         1 BSD     -0.642800
     22 O24         0.1140    4.0810    0.2870 o         1 BSD     -0.642800
     23 C20        -0.1830    6.0540   -1.2850 c3        1 BSD     -0.406300
     24 C22        -3.6780    4.9620    5.2970 c         1 BSD      0.574700
     25 O22        -3.5090    6.0860    5.7510 o         1 BSD     -0.422100
     26 N3         -4.6020    4.0620    6.0900 ny        1 BSD     -0.678800
     27 C31        -5.5320    4.7970    7.0260 c3        1 BSD      0.128500
     28 C32        -6.7750    3.9420    7.3200 c3        1 BSD     -0.050100
     29 C33        -7.3850    3.3710    6.0900 ca        1 BSD     -0.193300
     30 C34        -8.2240    4.1560    5.2880 ca        1 BSD     -0.131000
     31 C35        -8.8620    3.5950    4.1830 ca        1 BSD     -0.109500
     32 C36        -8.6710    2.2470    3.8740 ca        1 BSD     -0.081000
     33 C37        -7.8350    1.4600    4.6700 ca        1 BSD     -0.109500
     34 C38        -7.1930    2.0180    5.7740 ca        1 BSD     -0.131000
     35 C39        -4.7960    5.2160    8.3290 c3        1 BSD      0.103100
     36 O3         -4.2410    4.0400    8.8900 oh        1 BSD     -0.621800
     37 C30        -5.7230    5.9390    9.3290 c3        1 BSD      0.069800
     38 N4         -6.3490    5.0740   10.3590 ny        1 BSD     -0.769000
     39 C41        -7.0760    5.8820   11.4180 c3        1 BSD      0.188100
     40 C42        -7.7750    4.9670   12.3560 ca        1 BSD     -0.172300
     41 C43        -7.2280    4.7210   13.6240 ca        1 BSD     -0.186000
     42 C44        -7.9280    3.9010   14.5160 ca        1 BSD      0.155100
     43 C45        -9.1620    3.3170   14.1400 ca        1 BSD     -0.089000
     44 C46        -9.6810    3.5720   12.8790 ca        1 BSD     -0.088000
     45 C47        -8.9950    4.3970   11.9820 ca        1 BSD     -0.145000
     46 O4         -7.5010    3.5740   15.7760 os        1 BSD     -0.296900
     47 C48        -6.3840    4.2950   16.2930 c3        1 BSD      0.104700
     48 H11        -1.8830   -0.4540   -1.7260 ha        1 BSD      0.135500
     49 H12        -0.4780   -0.4520   -3.7780 ha        1 BSD      0.167500
     50 H13         2.0140   -0.4360   -3.5950 ha        1 BSD      0.171000
     51 H14         3.1020   -0.4140   -1.3450 ha        1 BSD      0.167500
     52 H15         1.7110   -0.4350    0.7140 ha        1 BSD      0.135500
     53 H17        -2.1250   -0.5890    0.5590 hx        1 BSD      0.106700
     54 H181       -0.7740   -2.6130    1.1370 hc        1 BSD      0.085033
     55 H182        0.3920   -1.6200    2.0980 hc        1 BSD      0.085033
     56 H183       -1.3530   -1.7450    2.6220 hc        1 BSD      0.085033
     57 H21        -0.1250    0.7490    2.2670 hn        1 BSD      0.475800
     58 H24        -1.8110    3.2180    0.5930 ha        1 BSD      0.195000
     59 H28        -3.1970    2.2810    4.5780 ha        1 BSD      0.154000
     60 H26        -2.7270    6.4420    3.3650 ha        1 BSD      0.192000
     61 H291       -1.5560    7.8150    1.7940 h1        1 BSD      0.070367
     62 H292       -3.1210    7.2010    1.0750 h1        1 BSD      0.070367
     63 H293       -1.7430    7.6570   -0.0180 h1        1 BSD      0.070367
     64 H201       -1.2060    5.9730   -1.7340 h1        1 BSD      0.157367
     65 H202        0.1180    7.1310   -1.4150 h1        1 BSD      0.157367
     66 H203        0.4830    5.4890   -1.9990 h1        1 BSD      0.157367
     67 H3         -4.0350    3.4090    6.6490 hn        1 BSD      0.480300
     68 H31        -5.8510    5.7440    6.4910 hx        1 BSD      0.128700
     69 H321       -7.5290    4.6150    7.8140 hc        1 BSD      0.079200
     70 H322       -6.5010    3.1210    8.0370 hc        1 BSD      0.079200
     71 H39        -3.9850    5.9570    8.0520 h1        1 BSD      0.112700
     72 H34        -8.4050    5.2120    5.5430 ha        1 BSD      0.137500
     73 H38        -6.5800    1.3770    6.4260 ha        1 BSD      0.137500
     74 H35        -9.5370    4.2120    3.5660 ha        1 BSD      0.169000
     75 H36        -9.1980    1.7980    3.0140 ha        1 BSD      0.174000
     76 H37        -7.7040    0.3900    4.4400 ha        1 BSD      0.169000
     77 HA         -3.4300    4.2810    9.3660 ho        1 BSD      0.459000
     78 H301       -5.1070    6.7180    9.8740 hx        1 BSD      0.125200
     79 H302       -6.5380    6.4800    8.7670 hx        1 BSD      0.125200
     80 H4         -5.6260    4.4980   10.8120 hn        1 BSD      0.455300
     81 H411       -6.3090    6.5160   11.9490 hx        1 BSD      0.111200
     82 H412       -7.8080    6.5520   10.8830 hx        1 BSD      0.111200
     83 H43        -6.2810    5.1910   13.9250 ha        1 BSD      0.146000
     84 H47        -9.4400    4.6180   11.0010 ha        1 BSD      0.128000
     85 H45        -9.6950    2.6780   14.8640 ha        1 BSD      0.190000
     86 H46       -10.6500    3.1340   12.5880 ha        1 BSD      0.170000
     87 H481       -6.5800    5.3940   16.2770 h1        1 BSD      0.061367
     88 H482       -5.4610    4.0440   15.7170 h1        1 BSD      0.061367
     89 H483       -6.3090    3.9190   17.3470 h1        1 BSD      0.061367
     90 H212       -0.6770    1.5740    0.9350 hn        1 BSD      0.475800
     91 H32        -5.1830    3.5090    5.4320 hn        1 BSD      0.480300
     92 H42        -7.0200    4.4270    9.9250 hn        1 BSD      0.455300
@<TRIPOS>BOND
     1    1    2 ar  
     2    1    6 ar  
     3    1   48 1   
     4    2    3 ar  
     5    2   49 1   
     6    3    4 ar  
     7    3   50 1   
     8    4    5 ar  
     9    4   51 1   
    10    5    6 ar  
    11    5   52 1   
    12    6    7 1   
    13    7    8 1   
    14    7    9 1   
    15    7   53 1   
    16    8   54 1   
    17    8   55 1   
    18    8   56 1   
    19    9   10 1   
    20    9   57 1   
    21    9   90 1   
    22   10   11 2   
    23   10   12 1   
    24   12   13 ar  
    25   12   17 ar  
    26   13   14 ar  
    27   13   58 1   
    28   14   15 ar  
    29   14   18 1   
    30   15   16 ar  
    31   15   60 1   
    32   16   17 ar  
    33   16   24 1   
    34   17   59 1   
    35   18   19 1   
    36   18   20 1   
    37   19   61 1   
    38   19   62 1   
    39   19   63 1   
    40   20   21 2   
    41   20   22 2   
    42   20   23 1   
    43   23   64 1   
    44   23   65 1   
    45   23   66 1   
    46   24   25 2   
    47   24   26 1   
    48   26   27 1   
    49   26   67 1   
    50   26   91 1   
    51   27   28 1   
    52   27   35 1   
    53   27   68 1   
    54   28   29 1   
    55   28   69 1   
    56   28   70 1   
    57   29   30 ar  
    58   29   34 ar  
    59   30   31 ar  
    60   30   72 1   
    61   31   32 ar  
    62   31   74 1   
    63   32   33 ar  
    64   32   75 1   
    65   33   34 ar  
    66   33   76 1   
    67   34   73 1   
    68   35   36 1   
    69   35   37 1   
    70   35   71 1   
    71   36   77 1   
    72   37   38 1   
    73   37   78 1   
    74   37   79 1   
    75   38   39 1   
    76   38   80 1   
    77   38   92 1   
    78   39   40 1   
    79   39   81 1   
    80   39   82 1   
    81   40   41 ar  
    82   40   45 ar  
    83   41   42 ar  
    84   41   83 1   
    85   42   43 ar  
    86   42   46 1   
    87   43   44 ar  
    88   43   85 1   
    89   44   45 ar  
    90   44   86 1   
    91   45   84 1   
    92   46   47 1   
    93   47   87 1   
    94   47   88 1   
    95   47   89 1   
@<TRIPOS>SUBSTRUCTURE
     1 BSD         1 TEMP              0 ****  ****    0 ROOT
