@<TRIPOS>MOLECULE
BSD
   89    82     1     0     0
SMALL
bcc


@<TRIPOS>ATOM
      1 C11         4.0040    0.6490    4.6170 c1        1 BSD     -0.125000
      2 C12         5.1260    0.2050    5.2770 c1        1 BSD     -0.129875
      3 C13         4.9960   -0.5580    6.4280 c1        1 BSD     -0.129875
      4 C14         3.7350   -0.8730    6.9120 c1        1 BSD     -0.129875
      5 C15         2.6120   -0.4270    6.2500 c1        1 BSD     -0.129875
      6 C16         2.7410    0.3350    5.1020 c1        1 BSD     -0.096000
      7 C17         1.5090    0.7230    4.3090 c3        1 BSD      0.063000
      8 C18         1.6190    2.1750    3.8910 c3        1 BSD     -0.233000
      9 N21         1.4120   -0.0960    3.1540 n         1 BSD     -0.368000
     10 C21         0.1690   -0.1520    2.4070 c2        1 BSD      0.353000
     11 O21        -0.6150    0.7760    2.4640 o         1 BSD     -0.379000
     12 C23        -0.1070   -1.3680    1.4070 c2        1 BSD     -0.099000
     13 C24        -0.1320   -2.6810    1.8930 c2        1 BSD     -0.101000
     14 C25        -0.4610   -3.7390    1.0380 c1        1 BSD      0.063000
     15 C26        -0.7670   -3.4790   -0.3100 c1        1 BSD     -0.127000
     16 C27        -0.7410   -2.1640   -0.7930 c1        1 BSD     -0.098000
     17 C28        -0.4120   -1.1100    0.0650 c1        1 BSD     -0.102000
     18 N22        -0.6950   -5.0540    1.5830 n3        1 BSD     -0.773000
     19 C29         0.2220   -6.1040    1.3210 c3        1 BSD     -0.083000
     20 S2         -2.0480   -5.3420    2.5340 s4        1 BSD      2.032800
     21 O23        -3.1290   -5.8970    1.7540 o         1 BSD     -0.533900
     22 O24        -2.6320   -4.1220    2.9870 o         1 BSD     -0.533900
     23 C20        -1.6280   -6.3950    3.8890 c2        1 BSD     -0.951000
     24 C22        -1.0990   -1.8700   -2.3160 c2        1 BSD      0.352000
     25 O22        -1.4000   -2.8060   -3.0680 o         1 BSD     -0.370000
     26 N3         -1.2350   -0.4830   -2.7810 n         1 BSD     -0.357000
     27 C31        -0.4990   -0.0340   -3.9240 c3        1 BSD      0.013000
     28 C32        -0.4400   -1.1580   -4.9660 c3        1 BSD     -0.128000
     29 C33         0.9650   -1.1810   -5.6250 c2        1 BSD     -0.077000
     30 C34         1.0860   -1.1050   -7.0070 c2        1 BSD     -0.129000
     31 C35         2.3380   -1.2030   -7.5990 c1        1 BSD     -0.128000
     32 C36         3.4740   -1.3790   -6.8060 c1        1 BSD     -0.129875
     33 C37         3.3520   -1.4560   -5.4220 c1        1 BSD     -0.129875
     34 C38         2.1070   -1.3580   -4.8310 c1        1 BSD     -0.127000
     35 C39        -1.1870    1.1850   -4.5290 c3        1 BSD      0.007000
     36 O3         -0.2860    2.2640   -4.5710 oh        1 BSD     -0.330000
     37 C30        -2.3850    1.5580   -3.6850 c3        1 BSD     -0.103000
     38 N4         -1.9700    2.4820   -2.6210 n3        1 BSD     -0.327000
     39 C41        -2.9660    3.5340   -2.4750 c3        1 BSD     -0.035000
     40 C42        -2.9250    4.0870   -1.0170 c2        1 BSD     -0.058000
     41 C43        -1.7420    4.6120   -0.5070 c2        1 BSD     -0.149000
     42 C44        -1.7220    5.1750    0.7650 c1        1 BSD      0.077000
     43 C45        -2.8950    5.2130    1.5280 c1        1 BSD     -0.129875
     44 C46        -4.0770    4.6880    1.0170 c1        1 BSD     -0.129875
     45 C47        -4.0970    4.1270   -0.2500 c1        1 BSD     -0.154000
     46 O4         -0.5120    5.5610    1.3340 os        1 BSD     -0.221000
     47 C48        -0.3690    6.9690    1.4840 c3        1 BSD     -0.085000
     48 H11         4.0950    1.1840    3.8110 ha        1 BSD      0.128000
     49 H12         6.0300    0.4300    4.9290 ha        1 BSD      0.134750
     50 H13         5.7860   -0.8720    6.8930 ha        1 BSD      0.134750
     51 H14         3.6430   -1.4120    7.7250 ha        1 BSD      0.134750
     52 H15         1.7470   -0.6430    6.5830 ha        1 BSD      0.134750
     53 H17         0.7100    0.6010    4.8650 h1        1 BSD      0.129000
     54 H181        0.7170    2.5400    3.7240 hc        1 BSD      0.089333
     55 H182        2.1640    2.2390    3.0560 hc        1 BSD      0.089333
     56 H183        2.0630    2.7020    4.6230 hc        1 BSD      0.089333
     57 H21         2.1020   -0.6050    2.9090 hn        1 BSD      0.226000
     58 H24         0.0770   -2.8550    2.8080 ha        1 BSD      0.161000
     59 H28        -0.3950   -0.1800   -0.2760 ha        1 BSD      0.159000
     60 H26        -0.9970   -4.2160   -0.9110 ha        1 BSD      0.185000
     61 H291        0.8490   -5.8200    0.6680 h1        1 BSD      0.096333
     62 H292        0.6990   -6.3420    2.1550 h1        1 BSD      0.096333
     63 H293       -0.2670   -6.8930    0.9860 h1        1 BSD      0.096333
     64 H201       -0.8950   -5.9900    4.4020 ha        1 BSD      0.162667
     65 H202       -2.4370   -6.5120    4.4890 ha        1 BSD      0.162667
     66 H203       -1.3450   -7.2690    3.5480 ha        1 BSD      0.162667
     67 H3         -1.7660    0.0920   -2.3340 hn        1 BSD      0.228000
     68 H31         0.4420    0.2170   -3.6410 h1        1 BSD      0.104000
     69 H321       -1.1440   -0.9970   -5.6770 hc        1 BSD      0.114500
     70 H322       -0.6030   -1.9870   -4.5440 hc        1 BSD      0.114500
     71 H39        -1.4800    0.9750   -5.4300 h1        1 BSD      0.126000
     72 H34         0.2940   -0.9830   -7.5600 ha        1 BSD      0.130000
     73 H38         2.0210   -1.4110   -3.8440 ha        1 BSD      0.134000
     74 H35         2.4230   -1.1500   -8.5570 ha        1 BSD      0.132000
     75 H36         4.3520   -1.4480   -7.2220 ha        1 BSD      0.134750
     76 H37         4.1620   -1.5810   -4.8570 ha        1 BSD      0.134750
     77 HA         -0.3780    2.7000   -5.3550 ho        1 BSD      0.207000
     78 H301       -2.7690    0.7400   -3.2800 h1        1 BSD      0.084000
     79 H302       -3.0770    2.0030   -4.2660 h1        1 BSD      0.084000
     80 H4         -1.8920    2.0230   -1.8300 hn        1 BSD      0.178000
     81 H411       -3.8230    3.1820   -2.6560 h1        1 BSD      0.078500
     82 H412       -2.7730    4.2520   -3.1000 h1        1 BSD      0.078500
     83 H43        -0.8960    4.5830   -1.0590 ha        1 BSD      0.146000
     84 H47        -4.9280    3.7600   -0.6090 ha        1 BSD      0.138000
     85 H45        -2.8830    5.5980    2.3990 ha        1 BSD      0.134750
     86 H46        -4.9220    4.7160    1.5680 ha        1 BSD      0.134750
     87 H481       -0.9960    7.4410    0.8470 h1        1 BSD      0.090667
     88 H482        0.5840    7.2330    1.2770 h1        1 BSD      0.090667
     89 H483       -0.5940    7.2330    2.4410 h1        1 BSD      0.090667
@<TRIPOS>BOND
     1    1    6 1   
     2    1   48 1   
     3    2    3 1   
     4    2   49 1   
     5    3   50 1   
     6    4    5 1   
     7    4   51 1   
     8    5   52 1   
     9    6    7 1   
    10    7    8 1   
    11    7    9 1   
    12    7   53 1   
    13    8   54 1   
    14    8   55 1   
    15    8   56 1   
    16    9   10 1   
    17    9   57 1   
    18   10   11 1   
    19   10   12 1   
    20   12   13 1   
    21   12   17 1   
    22   13   14 1   
    23   13   58 1   
    24   14   18 1   
    25   15   16 1   
    26   15   60 1   
    27   16   24 1   
    28   17   59 1   
    29   18   19 1   
    30   18   20 1   
    31   19   61 1   
    32   19   62 1   
    33   19   63 1   
    34   20   21 1   
    35   20   22 1   
    36   23   64 1   
    37   23   65 1   
    38   23   66 1   
    39   24   25 1   
    40   24   26 1   
    41   26   27 1   
    42   26   67 1   
    43   27   28 1   
    44   27   35 1   
    45   27   68 1   
    46   28   29 1   
    47   28   69 1   
    48   28   70 1   
    49   29   30 1   
    50   29   34 1   
    51   30   31 1   
    52   30   72 1   
    53   31   74 1   
    54   32   33 1   
    55   32   75 1   
    56   33   76 1   
    57   34   73 1   
    58   35   36 1   
    59   35   37 1   
    60   35   71 1   
    61   36   77 1   
    62   37   38 1   
    63   37   78 1   
    64   37   79 1   
    65   38   39 1   
    66   38   80 1   
    67   39   40 1   
    68   39   81 1   
    69   39   82 1   
    70   40   41 1   
    71   40   45 1   
    72   41   42 1   
    73   41   83 1   
    74   42   46 1   
    75   43   44 1   
    76   43   85 1   
    77   44   86 1   
    78   45   84 1   
    79   46   47 1   
    80   47   87 1   
    81   47   88 1   
    82   47   89 1   
@<TRIPOS>SUBSTRUCTURE
     1 BSD         1 TEMP              0 ****  ****    0 ROOT
