@<TRIPOS>MOLECULE
BSD
   92    95     1     0     0
SMALL
bcc


@<TRIPOS>ATOM
      1 C11        -0.8610   -0.5040   -1.6230 ca        1 BSD     -0.100000
      2 C12        -0.0670   -0.5240   -2.7680 ca        1 BSD     -0.114000
      3 C13         1.3250   -0.5630   -2.6570 ca        1 BSD     -0.067000
      4 C14         1.9240   -0.5810   -1.3950 ca        1 BSD     -0.114000
      5 C15         1.1360   -0.5680   -0.2470 ca        1 BSD     -0.100000
      6 C16        -0.2610   -0.5320   -0.3570 ca        1 BSD     -0.203300
      7 C17        -1.1280   -0.5860    0.8590 c3        1 BSD      0.220800
      8 C18        -0.8060   -1.7770    1.7470 c3        1 BSD     -0.133100
      9 N21        -0.9700    0.7350    1.6310 n4        1 BSD     -0.681800
     10 C21        -2.1860    1.1290    2.4090 c         1 BSD      0.554700
     11 O21        -2.9050    0.2450    2.8610 o         1 BSD     -0.412100
     12 C23        -2.3920    2.5800    2.6230 ca        1 BSD     -0.153600
     13 C24        -2.0490    3.4980    1.6310 ca        1 BSD     -0.072000
     14 C25        -2.0140    4.8880    1.9170 ca        1 BSD      0.200600
     15 C26        -2.5820    5.3160    3.1420 ca        1 BSD     -0.055000
     16 C27        -3.0670    4.3800    4.0710 ca        1 BSD     -0.170600
     17 C28        -2.9360    3.0060    3.8410 ca        1 BSD     -0.066000
     18 N22        -1.3980    5.7660    1.0280 nh        1 BSD     -0.646900
     19 C29        -1.8710    7.1270    0.9930 c3        1 BSD      0.172100
     20 S2          0.0950    5.3730    0.3080 s6        1 BSD      1.463900
     21 O23         1.0980    6.0430    1.0000 o         1 BSD     -0.642800
     22 O24         0.1610    3.9570    0.3210 o         1 BSD     -0.642800
     23 C20        -0.0660    5.9390   -1.2520 c3        1 BSD     -0.406300
     24 C22        -3.6390    4.9430    5.3040 c         1 BSD      0.574700
     25 O22        -3.4430    6.0620    5.7590 o         1 BSD     -0.423100
     26 N3         -4.5910    4.0670    6.0920 n4        1 BSD     -0.678800
     27 C31        -5.5080    4.8280    7.0210 c3        1 BSD      0.128500
     28 C32        -6.7750    4.0050    7.3080 c3        1 BSD     -0.050100
     29 C33        -7.3910    3.4490    6.0740 ca        1 BSD     -0.193300
     30 C34        -8.2030    4.2540    5.2660 ca        1 BSD     -0.131000
     31 C35        -8.8490    3.7090    4.1570 ca        1 BSD     -0.109500
     32 C36        -8.6910    2.3550    3.8520 ca        1 BSD     -0.081000
     33 C37        -7.8810    1.5490    4.6540 ca        1 BSD     -0.109500
     34 C38        -7.2320    2.0910    5.7620 ca        1 BSD     -0.131000
     35 C39        -4.7700    5.2290    8.3280 c3        1 BSD      0.103100
     36 O3         -4.2500    4.0400    8.8950 oh        1 BSD     -0.621800
     37 C30        -5.6840    5.9770    9.3210 c3        1 BSD      0.069800
     38 N4         -6.3390    5.1310   10.3480 n4        1 BSD     -0.769000
     39 C41        -7.0530    5.9580   11.4010 c3        1 BSD      0.188100
     40 C42        -7.7810    5.0630   12.3360 ca        1 BSD     -0.172300
     41 C43        -7.2490    4.8070   13.6080 ca        1 BSD     -0.186000
     42 C44        -7.9760    4.0070   14.4970 ca        1 BSD      0.155100
     43 C45        -9.2210    3.4530   14.1140 ca        1 BSD     -0.089000
     44 C46        -9.7240    3.7180   12.8480 ca        1 BSD     -0.088000
     45 C47        -9.0120    4.5230   11.9540 ca        1 BSD     -0.145000
     46 O4         -7.5660    3.6730   15.7610 os        1 BSD     -0.296900
     47 C48        -6.4340    4.3670   16.2840 c3        1 BSD      0.104700
     48 H11        -1.9580   -0.4920   -1.7220 ha        1 BSD      0.135500
     49 H12        -0.5400   -0.5220   -3.7640 ha        1 BSD      0.167500
     50 H13         1.9510   -0.5880   -3.5650 ha        1 BSD      0.171000
     51 H14         3.0230   -0.6180   -1.3070 ha        1 BSD      0.167500
     52 H15         1.6180   -0.6070    0.7420 ha        1 BSD      0.135500
     53 H17        -2.2200   -0.6340    0.5600 hx        1 BSD      0.106700
     54 H181       -1.5000   -1.8300    2.6200 hc        1 BSD      0.085033
     55 H182        0.2520   -1.7590    2.1070 hc        1 BSD      0.085033
     56 H183       -0.9410   -2.7060    1.1320 hc        1 BSD      0.085033
     57 H21        -0.7040    1.4770    0.9620 hn        1 BSD      0.475800
     58 H24        -1.7920    3.1500    0.6110 ha        1 BSD      0.195000
     59 H28        -3.2290    2.2490    4.5850 ha        1 BSD      0.154000
     60 H26        -2.6320    6.3960    3.3810 ha        1 BSD      0.192000
     61 H291       -1.5900    7.5850    0.0050 h1        1 BSD      0.070367
     62 H292       -2.9880    7.1690    1.0880 h1        1 BSD      0.070367
     63 H293       -1.4110    7.7370    1.8190 h1        1 BSD      0.070367
     64 H201        0.2670    7.0070   -1.3780 h1        1 BSD      0.157367
     65 H202        0.5890    5.3550   -1.9610 h1        1 BSD      0.157367
     66 H203       -1.0880    5.8880   -1.7090 h1        1 BSD      0.157367
     67 H3         -5.1820    3.5300    5.4310 hn        1 BSD      0.480300
     68 H31        -5.7980    5.7820    6.4830 hx        1 BSD      0.128700
     69 H321       -6.5270    3.1790    8.0280 hc        1 BSD      0.079200
     70 H322       -7.5130    4.6990    7.7960 hc        1 BSD      0.079200
     71 H39        -3.9380    5.9480    8.0560 h1        1 BSD      0.112700
     72 H34        -8.3580    5.3150    5.5180 ha        1 BSD      0.137500
     73 H38        -6.6410    1.4350    6.4190 ha        1 BSD      0.137500
     74 H35        -9.5030    4.3430    3.5350 ha        1 BSD      0.169000
     75 H36        -9.2230    1.9190    2.9890 ha        1 BSD      0.174000
     76 H37        -7.7760    0.4750    4.4270 ha        1 BSD      0.169000
     77 HA         -3.4360    4.2590    9.3750 ho        1 BSD      0.459000
     78 H301       -6.4810    6.5390    8.7540 hx        1 BSD      0.125200
     79 H302       -5.0520    6.7400    9.8690 hx        1 BSD      0.125200
     80 H4         -5.6350    4.5370   10.8070 hn        1 BSD      0.455300
     81 H411       -6.2740    6.5740   11.9350 hx        1 BSD      0.111200
     82 H412       -7.7640    6.6460   10.8590 hx        1 BSD      0.111200
     83 H43        -6.2930    5.2540   13.9150 ha        1 BSD      0.146000
     84 H47        -9.4450    4.7530   10.9700 ha        1 BSD      0.128000
     85 H45        -9.7750    2.8290   14.8360 ha        1 BSD      0.190000
     86 H46       -10.7020    3.3030   12.5510 ha        1 BSD      0.170000
     87 H481       -6.6030    5.4710   16.2640 h1        1 BSD      0.061367
     88 H482       -6.3760    3.9910   17.3390 h1        1 BSD      0.061367
     89 H483       -5.5140    4.0910   15.7150 h1        1 BSD      0.061367
     90 H212       -0.1900    0.6240    2.2920 hn        1 BSD      0.475800
     91 H32        -4.0450    3.4010    6.6560 hn        1 BSD      0.480300
     92 H42        -7.0230    4.5000    9.9100 hn        1 BSD      0.455300
@<TRIPOS>BOND
     1    1    2 ar  
     2    1    6 ar  
     3    1   48 1   
     4    2    3 ar  
     5    2   49 1   
     6    3    4 ar  
     7    3   50 1   
     8    4    5 ar  
     9    4   51 1   
    10    5    6 ar  
    11    5   52 1   
    12    6    7 1   
    13    7    8 1   
    14    7    9 1   
    15    7   53 1   
    16    8   54 1   
    17    8   55 1   
    18    8   56 1   
    19    9   10 1   
    20    9   57 1   
    21    9   90 1   
    22   10   11 2   
    23   10   12 1   
    24   12   13 ar  
    25   12   17 ar  
    26   13   14 ar  
    27   13   58 1   
    28   14   15 ar  
    29   14   18 1   
    30   15   16 ar  
    31   15   60 1   
    32   16   17 ar  
    33   16   24 1   
    34   17   59 1   
    35   18   19 1   
    36   18   20 1   
    37   19   61 1   
    38   19   62 1   
    39   19   63 1   
    40   20   21 2   
    41   20   22 2   
    42   20   23 1   
    43   23   64 1   
    44   23   65 1   
    45   23   66 1   
    46   24   25 2   
    47   24   26 1   
    48   26   27 1   
    49   26   67 1   
    50   26   91 1   
    51   27   28 1   
    52   27   35 1   
    53   27   68 1   
    54   28   29 1   
    55   28   69 1   
    56   28   70 1   
    57   29   30 ar  
    58   29   34 ar  
    59   30   31 ar  
    60   30   72 1   
    61   31   32 ar  
    62   31   74 1   
    63   32   33 ar  
    64   32   75 1   
    65   33   34 ar  
    66   33   76 1   
    67   34   73 1   
    68   35   36 1   
    69   35   37 1   
    70   35   71 1   
    71   36   77 1   
    72   37   38 1   
    73   37   78 1   
    74   37   79 1   
    75   38   39 1   
    76   38   80 1   
    77   38   92 1   
    78   39   40 1   
    79   39   81 1   
    80   39   82 1   
    81   40   41 ar  
    82   40   45 ar  
    83   41   42 ar  
    84   41   83 1   
    85   42   43 ar  
    86   42   46 1   
    87   43   44 ar  
    88   43   85 1   
    89   44   45 ar  
    90   44   86 1   
    91   45   84 1   
    92   46   47 1   
    93   47   87 1   
    94   47   88 1   
    95   47   89 1   
@<TRIPOS>SUBSTRUCTURE
     1 BSD         1 TEMP              0 ****  ****    0 ROOT
