@<TRIPOS>MOLECULE
BSE
   16    15     1     0     0
SMALL
bcc


@<TRIPOS>ATOM
      1 N           0.0080   -3.2440   -1.1750 n3        1 BSE     -0.910800
      2 CC         -0.8060   -2.4100   -0.3180 c3        1 BSE      0.147800
      3 CA         -0.1620   -1.9290    0.9820 c3        1 BSE     -0.265700
      4 C          -1.2440   -1.4990    2.0030 c         1 BSE      0.917600
      5 O          -2.3820   -2.0390    1.9480 o         1 BSE     -0.842800
      6 CB          0.8080   -0.7890    0.7140 c3        1 BSE      0.170400
      7 OG          1.6450   -0.5170    1.8200 oh        1 BSE     -0.656800
      8 OXT        -0.9130   -0.6400    2.8750 o         1 BSE     -0.842800
      9 H           0.2310   -4.1010   -0.7040 hn        1 BSE      0.322800
     10 H2          0.8750   -2.7840   -1.3810 hn        1 BSE      0.322800
     11 HC1        -1.1210   -1.5110   -0.9190 h1        1 BSE      0.062200
     12 HC2        -1.7410   -2.9830   -0.0500 h1        1 BSE      0.062200
     13 HA          0.3990   -2.7720    1.4700 hc        1 BSE      0.042700
     14 HB2         1.5170   -1.0420   -0.1220 h1        1 BSE      0.010200
     15 HB3         0.2370    0.1390    0.4390 h1        1 BSE      0.010200
     16 HG          1.0580   -0.3920    2.5870 ho        1 BSE      0.449000
@<TRIPOS>BOND
     1    1    2 1   
     2    1    9 1   
     3    1   10 1   
     4    2    3 1   
     5    2   11 1   
     6    2   12 1   
     7    3    4 1   
     8    3    6 1   
     9    3   13 1   
    10    4    5 1   
    11    4    8 1   
    12    6    7 1   
    13    6   14 1   
    14    6   15 1   
    15    7   16 1   
@<TRIPOS>SUBSTRUCTURE
     1 BSE         1 TEMP              0 ****  ****    0 ROOT
