@<TRIPOS>MOLECULE
BSE
   16    15     1     0     0
SMALL
bcc


@<TRIPOS>ATOM
      1 N          -2.0140   -0.1150   -1.0730 n3        1 BSE     -0.910800
      2 CC         -0.5880   -0.1150   -1.0730 c3        1 BSE      0.147800
      3 CA         -0.0840   -0.1150    0.3530 c3        1 BSE     -0.265700
      4 C          -0.2170    1.2750    0.9350 c         1 BSE      0.917600
      5 O           0.4360    2.2310    0.4390 o         1 BSE     -0.842800
      6 CB          1.3700   -0.5330    0.3740 c3        1 BSE      0.170400
      7 OG          1.8790   -0.3970    1.6820 oh        1 BSE     -0.656800
      8 OXT        -0.9810    1.4770    1.9150 o         1 BSE     -0.842800
      9 H          -2.3180    0.4790   -1.6950 hn        1 BSE      0.322800
     10 H2         -2.3180   -0.9500   -1.2770 hn        1 BSE      0.322800
     11 HC1        -0.2630   -0.9120   -1.5340 h1        1 BSE      0.062200
     12 HC2        -0.2630    0.6820   -1.5340 h1        1 BSE      0.062200
     13 HA         -0.6110   -0.7420    0.8840 hc        1 BSE      0.042700
     14 HB2         1.8800    0.0340   -0.2350 h1        1 BSE      0.010200
     15 HB3         1.4450   -1.4640    0.0910 h1        1 BSE      0.010200
     16 HG          2.6490   -0.8350    1.7470 ho        1 BSE      0.449000
@<TRIPOS>BOND
     1    1    2 1   
     2    1    9 1   
     3    1   10 1   
     4    2    3 1   
     5    2   11 1   
     6    2   12 1   
     7    3    4 1   
     8    3    6 1   
     9    3   13 1   
    10    4    5 1   
    11    4    8 1   
    12    6    7 1   
    13    6   14 1   
    14    6   15 1   
    15    7   16 1   
@<TRIPOS>SUBSTRUCTURE
     1 BSE         1 TEMP              0 ****  ****    0 ROOT
