@<TRIPOS>MOLECULE
BSI
   46    49     1     0     0
SMALL
bcc


@<TRIPOS>ATOM
      1 C1          0.2000   -0.1110   -0.2560 ca        1 BSI     -0.151000
      2 C2          1.5870   -0.1260   -0.1220 ca        1 BSI     -0.131000
      3 C3          2.1730   -0.0650    1.1450 ca        1 BSI     -0.094300
      4 C7          3.6700   -0.1190    1.2620 c3        1 BSI      0.260100
      5 C9          3.4670   -0.3000    3.6500 c3        1 BSI      0.098500
      6 C10         1.9810    0.0980    3.6380 c3        1 BSI     -0.058100
      7 C16         4.7760    2.8640    2.7830 ca        1 BSI     -0.338500
      8 C19         3.7250    5.4610    3.0780 cp        1 BSI     -0.006000
      9 C20         4.2710    4.7870    4.1760 ca        1 BSI     -0.162000
     10 C21         4.7920    3.5000    4.0270 ca        1 BSI      0.002000
     11 C22         3.1700    6.8060    3.2320 cp        1 BSI     -0.027000
     12 C24         1.8820    8.4140    4.5100 ca        1 BSI     -0.137000
     13 C27         3.3880    7.7840    2.2500 ca        1 BSI     -0.118000
     14 O28         6.4130    1.0710    3.5730 o         1 BSI     -0.663800
     15 C4          1.3650    0.0130    2.2900 ca        1 BSI     -0.037300
     16 C5         -0.0280    0.0270    2.1440 ca        1 BSI     -0.139000
     17 C6         -0.6070   -0.0350    0.8790 ca        1 BSI     -0.138000
     18 N8          4.2050    0.2790    2.5440 n3        1 BSI     -0.779500
     19 S15         5.4520    1.3160    2.5790 sy        1 BSI      1.503200
     20 C17         4.2320    3.5470    1.6880 ca        1 BSI      0.002000
     21 C18         3.7140    4.8290    1.8240 ca        1 BSI     -0.162000
     22 C23         2.4120    7.1340    4.3650 ca        1 BSI     -0.118000
     23 C25         2.1040    9.3820    3.5300 ca        1 BSI     -0.139000
     24 C26         2.8580    9.0630    2.4010 ca        1 BSI     -0.137000
     25 O29         6.0280    1.3300    1.2640 o         1 BSI     -0.663800
     26 C43         3.9700    0.0150    5.1080 c         1 BSI      0.924600
     27 O45         4.1020    1.2250    5.4360 o         1 BSI     -0.817800
     28 O46         4.1180   -0.9790    5.8590 o         1 BSI     -0.817800
     29 HC1        -0.2560   -0.1590   -1.2550 ha        1 BSI      0.115000
     30 HC2         2.2260   -0.1840   -1.0150 ha        1 BSI      0.123000
     31 HC71        4.1180    0.5230    0.4460 h1        1 BSI      0.058700
     32 HC72        3.9820   -1.1880    1.0590 h1        1 BSI      0.058700
     33 HC9         3.5310   -1.4240    3.5270 h1        1 BSI      0.050700
     34 HC01        1.8820    1.1500    4.0240 hc        1 BSI      0.070200
     35 HC02        1.4440   -0.5760    4.3570 hc        1 BSI      0.070200
     36 HC20        4.2890    5.2680    5.1650 ha        1 BSI      0.128500
     37 HC21        5.2030    2.9610    4.9070 ha        1 BSI      0.173500
     38 HC24        1.2860    8.6610    5.4010 ha        1 BSI      0.124500
     39 HC27        3.9860    7.5360    1.3600 ha        1 BSI      0.140500
     40 HC5        -0.6620    0.0880    3.0400 ha        1 BSI      0.128000
     41 HC6        -1.7010   -0.0230    0.7750 ha        1 BSI      0.115000
     42 HC17        4.2310    3.0580    0.6990 ha        1 BSI      0.173500
     43 HC18        3.2850    5.3460    0.9540 ha        1 BSI      0.128500
     44 HC23        2.2320    6.3700    5.1370 ha        1 BSI      0.140500
     45 HC25        1.6860   10.3910    3.6480 ha        1 BSI      0.121000
     46 HC26        3.0370    9.8240    1.6280 ha        1 BSI      0.124500
@<TRIPOS>BOND
     1    1    2 ar  
     2    1   17 ar  
     3    1   29 1   
     4    2    3 ar  
     5    2   30 1   
     6    3    4 1   
     7    3   15 ar  
     8    4   18 1   
     9    4   31 1   
    10    4   32 1   
    11    5    6 1   
    12    5   18 1   
    13    5   26 1   
    14    5   33 1   
    15    6   15 1   
    16    6   34 1   
    17    6   35 1   
    18    7   10 ar  
    19    7   19 1   
    20    7   20 ar  
    21    8    9 ar  
    22    8   11 1   
    23    8   21 ar  
    24    9   10 ar  
    25    9   36 1   
    26   10   37 1   
    27   11   13 ar  
    28   11   22 ar  
    29   12   22 ar  
    30   12   23 ar  
    31   12   38 1   
    32   13   24 ar  
    33   13   39 1   
    34   14   19 2   
    35   15   16 ar  
    36   16   17 ar  
    37   16   40 1   
    38   17   41 1   
    39   18   19 1   
    40   19   25 2   
    41   20   21 ar  
    42   20   42 1   
    43   21   43 1   
    44   22   44 1   
    45   23   24 ar  
    46   23   45 1   
    47   24   46 1   
    48   26   27 1   
    49   26   28 1   
@<TRIPOS>SUBSTRUCTURE
     1 BSI         1 TEMP              0 ****  ****    0 ROOT
