@<TRIPOS>MOLECULE
BSI
   46    49     1     0     0
SMALL
bcc


@<TRIPOS>ATOM
      1 C1         -4.2450   -1.0200    2.8190 ca        1 BSI     -0.151000
      2 C2         -2.9610   -1.5590    2.8560 ca        1 BSI     -0.131000
      3 C3         -1.8450   -0.7290    2.7220 ca        1 BSI     -0.094300
      4 C7         -0.4710   -1.3320    2.8030 c3        1 BSI      0.260100
      5 C9          0.4850    0.8730    2.8150 c3        1 BSI      0.098500
      6 C10        -0.8340    1.5380    2.3850 c3        1 BSI     -0.058100
      7 C16         1.1910   -0.7320   -0.2500 ca        1 BSI     -0.338500
      8 C19         0.3800   -0.1580   -2.8860 cp        1 BSI     -0.006000
      9 C20         1.3920    0.5910   -2.2760 ca        1 BSI     -0.162000
     10 C21         1.7930    0.3040   -0.9690 ca        1 BSI      0.002000
     11 C22        -0.0490    0.1450   -4.2510 cp        1 BSI     -0.027000
     12 C24        -0.5870    1.7640   -5.9750 ca        1 BSI     -0.137000
     13 C27        -0.3400   -0.8890   -5.1530 ca        1 BSI     -0.118000
     14 O28         3.0270   -0.6910    1.5250 o         1 BSI     -0.663800
     15 C4         -2.0140    0.6530    2.5480 ca        1 BSI     -0.037300
     16 C5         -3.3090    1.1840    2.5120 ca        1 BSI     -0.139000
     17 C6         -4.4190    0.3530    2.6470 ca        1 BSI     -0.138000
     18 N8          0.6030   -0.4880    2.3310 n3        1 BSI     -0.779500
     19 S15         1.7060   -1.1230    1.3240 sy        1 BSI      1.503200
     20 C17         0.1820   -1.4800   -0.8690 ca        1 BSI      0.002000
     21 C18        -0.2220   -1.2050   -2.1700 ca        1 BSI     -0.162000
     22 C23        -0.1760    1.4760   -4.6750 ca        1 BSI     -0.118000
     23 C25        -0.8720    0.7310   -6.8670 ca        1 BSI     -0.139000
     24 C26        -0.7470   -0.5950   -6.4530 ca        1 BSI     -0.137000
     25 O29         1.5880   -2.5510    1.4120 o         1 BSI     -0.663800
     26 C43         1.6150    1.8910    2.4140 c         1 BSI      0.924600
     27 O45         1.8780    2.0250    1.1880 o         1 BSI     -0.818300
     28 O46         2.1090    2.5560    3.3560 o         1 BSI     -0.818300
     29 HC1        -5.1200   -1.6770    2.9240 ha        1 BSI      0.115000
     30 HC2        -2.8220   -2.6420    2.9900 ha        1 BSI      0.123000
     31 HC71       -0.2800   -1.5820    3.8910 h1        1 BSI      0.058700
     32 HC72       -0.4720   -2.3060    2.2280 h1        1 BSI      0.058700
     33 HC9         0.4960    0.8140    3.9460 h1        1 BSI      0.050700
     34 HC01       -0.9570    2.4720    2.9950 hc        1 BSI      0.070700
     35 HC02       -0.7500    1.8490    1.3070 hc        1 BSI      0.070700
     36 HC20        1.8750    1.4140   -2.8220 ha        1 BSI      0.128500
     37 HC21        2.5810    0.9160   -0.4810 ha        1 BSI      0.173500
     38 HC24       -0.6860    2.8110   -6.2960 ha        1 BSI      0.124500
     39 HC27       -0.2370   -1.9360   -4.8310 ha        1 BSI      0.140500
     40 HC5        -3.4430    2.2670    2.3750 ha        1 BSI      0.128000
     41 HC6        -5.4310    0.7790    2.6170 ha        1 BSI      0.115000
     42 HC17       -0.2860   -2.3100   -0.3140 ha        1 BSI      0.173500
     43 HC18       -1.0210   -1.7980   -2.6360 ha        1 BSI      0.128500
     44 HC23        0.0440    2.2930   -3.9700 ha        1 BSI      0.140500
     45 HC25       -1.1940    0.9610   -7.8920 ha        1 BSI      0.121000
     46 HC26       -0.9680   -1.4130   -7.1540 ha        1 BSI      0.124500
@<TRIPOS>BOND
     1    1    2 ar  
     2    1   17 ar  
     3    1   29 1   
     4    2    3 ar  
     5    2   30 1   
     6    3    4 1   
     7    3   15 ar  
     8    4   18 1   
     9    4   31 1   
    10    4   32 1   
    11    5    6 1   
    12    5   18 1   
    13    5   26 1   
    14    5   33 1   
    15    6   15 1   
    16    6   34 1   
    17    6   35 1   
    18    7   10 ar  
    19    7   19 1   
    20    7   20 ar  
    21    8    9 ar  
    22    8   11 1   
    23    8   21 ar  
    24    9   10 ar  
    25    9   36 1   
    26   10   37 1   
    27   11   13 ar  
    28   11   22 ar  
    29   12   22 ar  
    30   12   23 ar  
    31   12   38 1   
    32   13   24 ar  
    33   13   39 1   
    34   14   19 2   
    35   15   16 ar  
    36   16   17 ar  
    37   16   40 1   
    38   17   41 1   
    39   18   19 1   
    40   19   25 2   
    41   20   21 ar  
    42   20   42 1   
    43   21   43 1   
    44   22   44 1   
    45   23   24 ar  
    46   23   45 1   
    47   24   46 1   
    48   26   27 1   
    49   26   28 1   
@<TRIPOS>SUBSTRUCTURE
     1 BSI         1 TEMP              0 ****  ****    0 ROOT
