@<TRIPOS>MOLECULE
BSI
   46    49     1     0     0
SMALL
bcc


@<TRIPOS>ATOM
      1 C1          0.2020   -0.1130   -0.2580 ca        1 BSI     -0.151000
      2 C2          1.5880   -0.1270   -0.1230 ca        1 BSI     -0.131000
      3 C3          2.1740   -0.0660    1.1450 ca        1 BSI     -0.094300
      4 C7          3.6700   -0.1190    1.2620 c3        1 BSI      0.260100
      5 C9          3.4660   -0.2990    3.6500 c3        1 BSI      0.098500
      6 C10         1.9800    0.0970    3.6370 c3        1 BSI     -0.058100
      7 C16         4.7750    2.8640    2.7840 ca        1 BSI     -0.338500
      8 C19         3.7250    5.4620    3.0790 cp        1 BSI     -0.006000
      9 C20         4.2730    4.7880    4.1760 ca        1 BSI     -0.162000
     10 C21         4.7930    3.5010    4.0270 ca        1 BSI      0.002000
     11 C22         3.1710    6.8060    3.2320 cp        1 BSI     -0.027000
     12 C24         1.8850    8.4160    4.5130 ca        1 BSI     -0.137000
     13 C27         3.3860    7.7830    2.2500 ca        1 BSI     -0.118000
     14 O28         6.4130    1.0710    3.5730 o         1 BSI     -0.663800
     15 C4          1.3650    0.0120    2.2890 ca        1 BSI     -0.037300
     16 C5         -0.0280    0.0260    2.1420 ca        1 BSI     -0.139000
     17 C6         -0.6070   -0.0370    0.8770 ca        1 BSI     -0.138000
     18 N8          4.2040    0.2790    2.5440 n3        1 BSI     -0.779500
     19 S15         5.4510    1.3160    2.5800 sy        1 BSI      1.503200
     20 C17         4.2290    3.5460    1.6900 ca        1 BSI      0.002000
     21 C18         3.7120    4.8280    1.8250 ca        1 BSI     -0.162000
     22 C23         2.4140    7.1360    4.3670 ca        1 BSI     -0.118000
     23 C25         2.1050    9.3830    3.5310 ca        1 BSI     -0.139000
     24 C26         2.8570    9.0630    2.4010 ca        1 BSI     -0.137000
     25 O29         6.0280    1.3310    1.2650 o         1 BSI     -0.663800
     26 C43         3.9680    0.0160    5.1080 c         1 BSI      0.924600
     27 O45         4.1030    1.2260    5.4340 o         1 BSI     -0.817800
     28 O46         4.1120   -0.9770    5.8610 o         1 BSI     -0.817800
     29 HC1        -0.2540   -0.1610   -1.2570 ha        1 BSI      0.115000
     30 HC2         2.2280   -0.1860   -1.0160 ha        1 BSI      0.123000
     31 HC71        4.1190    0.5230    0.4460 h1        1 BSI      0.058700
     32 HC72        3.9830   -1.1890    1.0600 h1        1 BSI      0.058700
     33 HC9         3.5310   -1.4230    3.5270 h1        1 BSI      0.050700
     34 HC01        1.8800    1.1500    4.0220 hc        1 BSI      0.070200
     35 HC02        1.4420   -0.5760    4.3560 hc        1 BSI      0.070200
     36 HC20        4.2930    5.2690    5.1650 ha        1 BSI      0.128500
     37 HC21        5.2060    2.9620    4.9070 ha        1 BSI      0.173500
     38 HC24        1.2910    8.6630    5.4040 ha        1 BSI      0.124500
     39 HC27        3.9820    7.5350    1.3590 ha        1 BSI      0.140500
     40 HC5        -0.6630    0.0870    3.0380 ha        1 BSI      0.128000
     41 HC6        -1.7000   -0.0260    0.7720 ha        1 BSI      0.115000
     42 HC17        4.2270    3.0570    0.7010 ha        1 BSI      0.173500
     43 HC18        3.2810    5.3450    0.9560 ha        1 BSI      0.128500
     44 HC23        2.2360    6.3720    5.1410 ha        1 BSI      0.140500
     45 HC25        1.6870   10.3920    3.6490 ha        1 BSI      0.121000
     46 HC26        3.0340    9.8230    1.6270 ha        1 BSI      0.124500
@<TRIPOS>BOND
     1    1    2 ar  
     2    1   17 ar  
     3    1   29 1   
     4    2    3 ar  
     5    2   30 1   
     6    3    4 1   
     7    3   15 ar  
     8    4   18 1   
     9    4   31 1   
    10    4   32 1   
    11    5    6 1   
    12    5   18 1   
    13    5   26 1   
    14    5   33 1   
    15    6   15 1   
    16    6   34 1   
    17    6   35 1   
    18    7   10 ar  
    19    7   19 1   
    20    7   20 ar  
    21    8    9 ar  
    22    8   11 1   
    23    8   21 ar  
    24    9   10 ar  
    25    9   36 1   
    26   10   37 1   
    27   11   13 ar  
    28   11   22 ar  
    29   12   22 ar  
    30   12   23 ar  
    31   12   38 1   
    32   13   24 ar  
    33   13   39 1   
    34   14   19 2   
    35   15   16 ar  
    36   16   17 ar  
    37   16   40 1   
    38   17   41 1   
    39   18   19 1   
    40   19   25 2   
    41   20   21 ar  
    42   20   42 1   
    43   21   43 1   
    44   22   44 1   
    45   23   24 ar  
    46   23   45 1   
    47   24   46 1   
    48   26   27 1   
    49   26   28 1   
@<TRIPOS>SUBSTRUCTURE
     1 BSI         1 TEMP              0 ****  ****    0 ROOT
