@<TRIPOS>MOLECULE
BSI
   46    40     1     0     0
SMALL
bcc


@<TRIPOS>ATOM
      1 C1         -4.3020    3.0800    3.5510 c1        1 BSI     -0.117875
      2 C2         -3.6600    2.0790    2.8070 c1        1 BSI     -0.117875
      3 C3         -2.3500    2.2590    2.3840 c1        1 BSI     -0.061000
      4 C7         -1.5800    1.1590    1.5650 c3        1 BSI      0.020000
      5 C9          0.2060    2.7150    1.0660 c3        1 BSI     -0.052000
      6 C10        -0.2450    3.6980    2.0850 c3        1 BSI     -0.118000
      7 C16         1.1140   -0.8930    0.3860 c1        1 BSI     -0.798000
      8 C19         1.5130   -2.5840   -1.7740 c1        1 BSI     -0.017500
      9 C20         2.1600   -1.3600   -1.7240 c1        1 BSI     -0.117875
     10 C21         1.9610   -0.5140   -0.6440 c1        1 BSI     -0.117875
     11 C22         1.7210   -3.4350   -2.8480 c1        1 BSI     -0.017500
     12 C24         2.9850   -5.1840   -3.8990 c1        1 BSI     -0.117875
     13 C27         0.9120   -3.3450   -3.9690 c1        1 BSI     -0.117875
     14 O28         2.0740    0.7770    2.2180 o         1 BSI     -0.953500
     15 C4         -1.6530    3.4730    2.7100 c2        1 BSI     -0.022000
     16 C5         -2.2910    4.4630    3.4470 c2        1 BSI     -0.141000
     17 C6         -3.6140    4.2770    3.8720 c1        1 BSI     -0.142000
     18 N8         -0.2470    1.3650    1.3500 n3        1 BSI     -0.821000
     19 S15         0.8410    0.2000    1.7580 s6        1 BSI      2.841000
     20 C17         0.4670   -2.1180    0.3370 c1        1 BSI     -0.034000
     21 C18         0.6670   -2.9640   -0.7430 c1        1 BSI     -0.142000
     22 C23         2.7580   -4.3550   -2.8130 c1        1 BSI     -0.142000
     23 C25         2.1760   -5.0950   -5.0210 c1        1 BSI     -0.117875
     24 C26         1.1390   -4.1750   -5.0560 c1        1 BSI     -0.117875
     25 O29         0.4180   -0.5230    2.9250 o         1 BSI     -0.953500
     26 C43        -0.2090    3.1700   -0.4050 c2        1 BSI      0.324000
     27 O45         0.6180    3.0790   -1.3490 o         1 BSI     -0.557500
     28 O46        -1.3740    3.5930   -0.6270 o         1 BSI     -0.557500
     29 HC1        -5.2230    2.9520    3.8480 ha        1 BSI      0.139000
     30 HC2        -4.1350    1.2550    2.5870 ha        1 BSI      0.139000
     31 HC71       -2.0150    1.0750    0.6910 h1        1 BSI      0.119000
     32 HC72       -1.6800    0.3070    2.0370 h1        1 BSI      0.119000
     33 HC9         1.1800    2.7320    0.9940 h1        1 BSI      0.105000
     34 HC01       -0.2380    4.5850    1.6710 hc        1 BSI      0.094000
     35 HC02        0.4100    3.6990    2.8120 hc        1 BSI      0.094000
     36 HC20        2.7560   -1.0930   -2.4500 ha        1 BSI      0.139000
     37 HC21        2.4160    0.3490   -0.6090 ha        1 BSI      0.139000
     38 HC24        3.7150   -5.8320   -3.8750 ha        1 BSI      0.139000
     39 HC27        0.1820   -2.6980   -3.9940 ha        1 BSI      0.139000
     40 HC5        -1.8160    5.2850    3.6740 ha        1 BSI      0.121000
     41 HC6        -4.0620    4.9730    4.3900 ha        1 BSI      0.112000
     42 HC17       -0.1280   -2.3840    1.0620 ha        1 BSI      0.152000
     43 HC18        0.2110   -3.8260   -0.7780 ha        1 BSI      0.130000
     44 HC23        3.3270   -4.4180   -2.0230 ha        1 BSI      0.130000
     45 HC25        2.3250   -5.6900   -5.7800 ha        1 BSI      0.139000
     46 HC26        0.5690   -4.1120   -5.8460 ha        1 BSI      0.139000
@<TRIPOS>BOND
     1    1    2 1   
     2    1   29 1   
     3    2   30 1   
     4    3    4 1   
     5    3   15 1   
     6    4   18 1   
     7    4   31 1   
     8    4   32 1   
     9    5    6 1   
    10    5   18 1   
    11    5   26 1   
    12    5   33 1   
    13    6   15 1   
    14    6   34 1   
    15    6   35 1   
    16    7   19 1   
    17    7   20 1   
    18    8   21 1   
    19    9   10 1   
    20    9   36 1   
    21   10   37 1   
    22   11   22 1   
    23   12   23 1   
    24   12   38 1   
    25   13   24 1   
    26   13   39 1   
    27   14   19 1   
    28   15   16 1   
    29   16   17 1   
    30   16   40 1   
    31   17   41 1   
    32   18   19 1   
    33   19   25 1   
    34   20   42 1   
    35   21   43 1   
    36   22   44 1   
    37   23   45 1   
    38   24   46 1   
    39   26   27 1   
    40   26   28 1   
@<TRIPOS>SUBSTRUCTURE
     1 BSI         1 TEMP              0 ****  ****    0 ROOT
