@<TRIPOS>MOLECULE
BSI
   46    49     1     0     0
SMALL
bcc


@<TRIPOS>ATOM
      1 C1          0.1960   -0.1240   -0.2420 ca        1 BSI     -0.151000
      2 C2          1.5820   -0.1360   -0.1110 ca        1 BSI     -0.131000
      3 C3          2.1710   -0.0710    1.1550 ca        1 BSI     -0.094300
      4 C7          3.6680   -0.1230    1.2690 c3        1 BSI      0.260100
      5 C9          3.4690   -0.2960    3.6590 c3        1 BSI      0.098500
      6 C10         1.9830    0.1000    3.6470 c3        1 BSI     -0.058100
      7 C16         4.7770    2.8650    2.7810 ca        1 BSI     -0.338500
      8 C19         3.7280    5.4630    3.0740 cp        1 BSI     -0.006000
      9 C20         4.2810    4.7930    4.1700 ca        1 BSI     -0.162000
     10 C21         4.8010    3.5050    4.0230 ca        1 BSI      0.002000
     11 C22         3.1740    6.8080    3.2260 cp        1 BSI     -0.027000
     12 C24         1.8950    8.4220    4.5080 ca        1 BSI     -0.137000
     13 C27         3.3840    7.7820    2.2390 ca        1 BSI     -0.118000
     14 O28         6.4170    1.0730    3.5690 o         1 BSI     -0.663800
     15 C4          1.3650    0.0100    2.3010 ca        1 BSI     -0.037300
     16 C5         -0.0280    0.0230    2.1580 ca        1 BSI     -0.139000
     17 C6         -0.6100   -0.0440    0.8940 ca        1 BSI     -0.138000
     18 N8          4.2050    0.2790    2.5490 n3        1 BSI     -0.779500
     19 S15         5.4520    1.3160    2.5790 sy        1 BSI      1.503200
     20 C17         4.2260    3.5440    1.6880 ca        1 BSI      0.002000
     21 C18         3.7090    4.8260    1.8220 ca        1 BSI     -0.162000
     22 C23         2.4240    7.1410    4.3640 ca        1 BSI     -0.118000
     23 C25         2.1100    9.3850    3.5230 ca        1 BSI     -0.139000
     24 C26         2.8560    9.0620    2.3890 ca        1 BSI     -0.137000
     25 O29         6.0240    1.3280    1.2620 o         1 BSI     -0.663800
     26 C43         3.9750    0.0240    5.1140 c         1 BSI      0.924600
     27 O45         4.1150    1.2340    5.4350 o         1 BSI     -0.818300
     28 O46         4.1180   -0.9670    5.8700 o         1 BSI     -0.818300
     29 HC1        -0.2620   -0.1750   -1.2400 ha        1 BSI      0.115000
     30 HC2         2.2200   -0.1980   -1.0050 ha        1 BSI      0.123000
     31 HC71        3.9810   -1.1930    1.0690 h1        1 BSI      0.058700
     32 HC72        4.1140    0.5170    0.4500 h1        1 BSI      0.058700
     33 HC9         3.5340   -1.4210    3.5390 h1        1 BSI      0.050700
     34 HC01        1.4480   -0.5710    4.3700 hc        1 BSI      0.070700
     35 HC02        1.8840    1.1540    4.0290 hc        1 BSI      0.070700
     36 HC20        4.3060    5.2770    5.1570 ha        1 BSI      0.128500
     37 HC21        5.2180    2.9690    4.9020 ha        1 BSI      0.173500
     38 HC24        1.3060    8.6710    5.4020 ha        1 BSI      0.124500
     39 HC27        3.9760    7.5310    1.3460 ha        1 BSI      0.140500
     40 HC5        -0.6610    0.0860    3.0550 ha        1 BSI      0.128000
     41 HC6        -1.7040   -0.0340    0.7920 ha        1 BSI      0.115000
     42 HC17        4.2180    3.0510    0.7000 ha        1 BSI      0.173500
     43 HC18        3.2730    5.3390    0.9540 ha        1 BSI      0.128500
     44 HC23        2.2500    6.3800    5.1400 ha        1 BSI      0.140500
     45 HC25        1.6930   10.3950    3.6390 ha        1 BSI      0.121000
     46 HC26        3.0300    9.8200    1.6120 ha        1 BSI      0.124500
@<TRIPOS>BOND
     1    1    2 ar  
     2    1   17 ar  
     3    1   29 1   
     4    2    3 ar  
     5    2   30 1   
     6    3    4 1   
     7    3   15 ar  
     8    4   18 1   
     9    4   31 1   
    10    4   32 1   
    11    5    6 1   
    12    5   18 1   
    13    5   26 1   
    14    5   33 1   
    15    6   15 1   
    16    6   34 1   
    17    6   35 1   
    18    7   10 ar  
    19    7   19 1   
    20    7   20 ar  
    21    8    9 ar  
    22    8   11 1   
    23    8   21 ar  
    24    9   10 ar  
    25    9   36 1   
    26   10   37 1   
    27   11   13 ar  
    28   11   22 ar  
    29   12   22 ar  
    30   12   23 ar  
    31   12   38 1   
    32   13   24 ar  
    33   13   39 1   
    34   14   19 2   
    35   15   16 ar  
    36   16   17 ar  
    37   16   40 1   
    38   17   41 1   
    39   18   19 1   
    40   19   25 2   
    41   20   21 ar  
    42   20   42 1   
    43   21   43 1   
    44   22   44 1   
    45   23   24 ar  
    46   23   45 1   
    47   24   46 1   
    48   26   27 1   
    49   26   28 1   
@<TRIPOS>SUBSTRUCTURE
     1 BSI         1 TEMP              0 ****  ****    0 ROOT
