@<TRIPOS>MOLECULE
BSM
   46    48     1     0     0
SMALL
bcc


@<TRIPOS>ATOM
      1 C22        -0.5440   -0.7570   -0.0880 c3        1 BSM      0.108700
      2 O21         0.7730   -0.2450    0.0950 os        1 BSM     -0.314900
      3 C18         1.2440   -0.2030    1.3850 ca        1 BSM      0.159100
      4 C19         2.5440    0.3260    1.5250 ca        1 BSM     -0.182500
      5 C20         3.1130    0.4100    2.7860 ca        1 BSM     -0.067500
      6 C17         0.5290   -0.6400    2.5090 ca        1 BSM     -0.182500
      7 C16         1.1160   -0.5500    3.7690 ca        1 BSM     -0.067500
      8 C7          2.4080   -0.0300    3.9200 ca        1 BSM     -0.115000
      9 C3          3.0180    0.0570    5.2270 cc        1 BSM     -0.070300
     10 C2          3.7160   -0.9960    5.9390 cc        1 BSM      0.171800
     11 C8          3.9010   -2.3560    5.4820 c         1 BSM      0.508600
     12 O9          3.4330   -2.9270    4.5100 o         1 BSM     -0.412100
     13 N10         4.8310   -3.1920    6.3620 n4        1 BSM     -0.677800
     14 C26         5.0540   -4.5730    5.8430 c3        1 BSM      0.107800
     15 C27         5.9780   -5.3830    6.7250 c3        1 BSM     -0.135100
     16 N1          4.1960   -0.5120    7.1460 nd        1 BSM     -0.508800
     17 N5          3.8230    0.7380    7.2220 na        1 BSM      0.075400
     18 C4          3.1080    1.1810    6.0900 cd        1 BSM      0.002700
     19 C6          2.5860    2.5230    5.9500 ca        1 BSM     -0.124000
     20 C11         1.4240    2.7230    5.1870 ca        1 BSM     -0.015000
     21 C12         0.8880    3.9940    5.0030 ca        1 BSM     -0.106600
     22 CL25       -0.5180    4.1790    4.0710 cl        1 BSM     -0.057400
     23 C13         1.5180    5.1130    5.5900 ca        1 BSM      0.214100
     24 O24         1.0780    6.3980    5.4670 oh        1 BSM     -0.468100
     25 C14         2.6760    4.9380    6.3640 ca        1 BSM     -0.242000
     26 C15         3.1960    3.6530    6.5430 ca        1 BSM      0.187100
     27 O23         4.3170    3.4500    7.3130 oh        1 BSM     -0.529100
     28 H221       -0.6950   -0.6820   -1.1960 h1        1 BSM      0.054033
     29 H222       -0.6020   -1.8210    0.2470 h1        1 BSM      0.054033
     30 H223       -1.2900   -0.1290    0.4560 h1        1 BSM      0.054033
     31 H19         3.0860    0.6680    0.6300 ha        1 BSM      0.158500
     32 H20         4.1250    0.8290    2.8990 ha        1 BSM      0.139000
     33 H17        -0.4860   -1.0500    2.4100 ha        1 BSM      0.158500
     34 H16         0.5540   -0.8930    4.6520 ha        1 BSM      0.139000
     35 H10         4.4260   -3.2430    7.3040 hn        1 BSM      0.460300
     36 H261        5.4800   -4.4800    4.8010 hx        1 BSM      0.112200
     37 H262        4.0460   -5.0730    5.7590 hx        1 BSM      0.112200
     38 H271        6.9930   -4.9210    6.7990 hc        1 BSM      0.076700
     39 H272        5.5620   -5.5120    7.7540 hc        1 BSM      0.076700
     40 H273        6.0910   -6.3990    6.2650 hc        1 BSM      0.076700
     41 H5          4.1150    1.3200    7.9870 hn        1 BSM      0.364700
     42 H11         0.9340    1.8500    4.7200 ha        1 BSM      0.170000
     43 H24         0.2770    6.4090    4.9150 ho        1 BSM      0.448000
     44 H14         3.1570    5.8180    6.8170 ha        1 BSM      0.174000
     45 H23         4.6690    4.3140    7.5810 ho        1 BSM      0.452000
     46 H102        5.7310   -2.7050    6.4360 hn        1 BSM      0.460300
@<TRIPOS>BOND
     1    1    2 1   
     2    1   28 1   
     3    1   29 1   
     4    1   30 1   
     5    2    3 1   
     6    3    4 ar  
     7    3    6 ar  
     8    4    5 ar  
     9    4   31 1   
    10    5    8 ar  
    11    5   32 1   
    12    6    7 ar  
    13    6   33 1   
    14    7    8 ar  
    15    7   34 1   
    16    8    9 1   
    17    9   10 1   
    18    9   18 2   
    19   10   11 1   
    20   10   16 2   
    21   11   12 2   
    22   11   13 1   
    23   13   14 1   
    24   13   35 1   
    25   13   46 1   
    26   14   15 1   
    27   14   36 1   
    28   14   37 1   
    29   15   38 1   
    30   15   39 1   
    31   15   40 1   
    32   16   17 1   
    33   17   18 1   
    34   17   41 1   
    35   18   19 1   
    36   19   20 ar  
    37   19   26 ar  
    38   20   21 ar  
    39   20   42 1   
    40   21   22 1   
    41   21   23 ar  
    42   23   24 1   
    43   23   25 ar  
    44   24   43 1   
    45   25   26 ar  
    46   25   44 1   
    47   26   27 1   
    48   27   45 1   
@<TRIPOS>SUBSTRUCTURE
     1 BSM         1 TEMP              0 ****  ****    0 ROOT
