@<TRIPOS>MOLECULE
BSM
   46    48     1     0     0
SMALL
bcc


@<TRIPOS>ATOM
      1 C22        -0.5730   -0.7900   -0.0650 c3        1 BSM      0.108700
      2 O21         0.7450   -0.2760    0.1080 os        1 BSM     -0.314900
      3 C18         1.2240   -0.2250    1.3950 ca        1 BSM      0.159100
      4 C19         2.5240    0.3060    1.5230 ca        1 BSM     -0.182500
      5 C20         3.1010    0.3980    2.7810 ca        1 BSM     -0.067500
      6 C17         0.5160   -0.6550    2.5260 ca        1 BSM     -0.182500
      7 C16         1.1100   -0.5570    3.7810 ca        1 BSM     -0.067500
      8 C7          2.4020   -0.0350    3.9210 ca        1 BSM     -0.115000
      9 C3          3.0200    0.0610    5.2240 cc        1 BSM     -0.070300
     10 C2          3.7230   -0.9870    5.9380 cc        1 BSM      0.171800
     11 C8          3.9060   -2.3500    5.4900 c         1 BSM      0.508600
     12 O9          3.4320   -2.9270    4.5250 o         1 BSM     -0.412100
     13 N10         4.8420   -3.1790    6.3690 ny        1 BSM     -0.677800
     14 C26         5.0630   -4.5630    5.8570 c3        1 BSM      0.107800
     15 C27         5.9940   -5.3670    6.7390 c3        1 BSM     -0.135100
     16 N1          4.2100   -0.4940    7.1400 nd        1 BSM     -0.508800
     17 N5          3.8370    0.7550    7.2100 na        1 BSM      0.075400
     18 C4          3.1150    1.1910    6.0790 cd        1 BSM      0.002700
     19 C6          2.5910    2.5320    5.9330 ca        1 BSM     -0.124000
     20 C11         1.4250    2.7270    5.1760 ca        1 BSM     -0.015000
     21 C12         0.8870    3.9960    4.9870 ca        1 BSM     -0.106600
     22 Cl25       -0.5250    4.1750    4.0630 cl        1 BSM     -0.057400
     23 C13         1.5200    5.1190    5.5640 ca        1 BSM      0.214100
     24 O24         1.0780    6.4030    5.4350 oh        1 BSM     -0.468100
     25 C14         2.6820    4.9490    6.3310 ca        1 BSM     -0.242000
     26 C15         3.2040    3.6660    6.5150 ca        1 BSM      0.187100
     27 O23         4.3300    3.4680    7.2800 oh        1 BSM     -0.529100
     28 H221       -0.7310   -0.7220   -1.1710 h1        1 BSM      0.054033
     29 H222       -1.3160   -0.1590    0.4800 h1        1 BSM      0.054033
     30 H223       -0.6280   -1.8510    0.2790 h1        1 BSM      0.054033
     31 H19         3.0610    0.6410    0.6230 ha        1 BSM      0.158500
     32 H20         4.1130    0.8190    2.8850 ha        1 BSM      0.139000
     33 H17        -0.5000   -1.0660    2.4350 ha        1 BSM      0.158500
     34 H16         0.5530   -0.8930    4.6700 ha        1 BSM      0.139000
     35 H10         5.7420   -2.6910    6.4350 hn        1 BSM      0.460300
     36 H261        4.0550   -5.0650    5.7830 hx        1 BSM      0.112200
     37 H262        5.4820   -4.4760    4.8120 hx        1 BSM      0.112200
     38 H271        5.5840   -5.4900    7.7710 hc        1 BSM      0.076700
     39 H272        7.0080   -4.9040    6.8030 hc        1 BSM      0.076700
     40 H273        6.1040   -6.3850    6.2850 hc        1 BSM      0.076700
     41 H5          4.1330    1.3430    7.9700 hn        1 BSM      0.364700
     42 H11         0.9320    1.8500    4.7180 ha        1 BSM      0.170000
     43 H24         0.2740    6.4100    4.8870 ho        1 BSM      0.448000
     44 H14         3.1650    5.8320    6.7770 ha        1 BSM      0.174000
     45 H23         4.6830    4.3340    7.5410 ho        1 BSM      0.452000
     46 H102        4.4440   -3.2250    7.3140 hn        1 BSM      0.460300
@<TRIPOS>BOND
     1    1    2 1   
     2    1   28 1   
     3    1   29 1   
     4    1   30 1   
     5    2    3 1   
     6    3    4 ar  
     7    3    6 ar  
     8    4    5 ar  
     9    4   31 1   
    10    5    8 ar  
    11    5   32 1   
    12    6    7 ar  
    13    6   33 1   
    14    7    8 ar  
    15    7   34 1   
    16    8    9 1   
    17    9   10 1   
    18    9   18 2   
    19   10   11 1   
    20   10   16 2   
    21   11   12 2   
    22   11   13 1   
    23   13   14 1   
    24   13   35 1   
    25   13   46 1   
    26   14   15 1   
    27   14   36 1   
    28   14   37 1   
    29   15   38 1   
    30   15   39 1   
    31   15   40 1   
    32   16   17 1   
    33   17   18 1   
    34   17   41 1   
    35   18   19 1   
    36   19   20 ar  
    37   19   26 ar  
    38   20   21 ar  
    39   20   42 1   
    40   21   22 1   
    41   21   23 ar  
    42   23   24 1   
    43   23   25 ar  
    44   24   43 1   
    45   25   26 ar  
    46   25   44 1   
    47   26   27 1   
    48   27   45 1   
@<TRIPOS>SUBSTRUCTURE
     1 BSM         1 TEMP              0 ****  ****    0 ROOT
