@<TRIPOS>MOLECULE
BSM
   45    47     1     0     0
SMALL
bcc


@<TRIPOS>ATOM
      1 C22        -5.6490    1.1460    0.1120 c3        1 BSM      0.112700
      2 O21        -5.0380    0.2000    0.9820 os        1 BSM     -0.324900
      3 C18        -3.6600    0.1240    0.9310 ca        1 BSM      0.136100
      4 C19        -3.0860   -0.8250    1.7970 ca        1 BSM     -0.185000
      5 C20        -1.7070   -0.9800    1.8220 ca        1 BSM     -0.074000
      6 C17        -2.8530    0.9110    0.1000 ca        1 BSM     -0.185000
      7 C16        -1.4710    0.7420    0.1360 ca        1 BSM     -0.074000
      8 C7         -0.8830   -0.2030    0.9900 ca        1 BSM     -0.080000
      9 C3          0.5500   -0.3620    1.0110 cc        1 BSM     -0.133300
     10 C2          1.4350   -0.4100    2.1610 cc        1 BSM      0.262800
     11 C8          1.0550   -0.3860    3.6000 c         1 BSM      0.604600
     12 O9          0.2760   -1.2310    4.0830 o         1 BSM     -0.601100
     13 N10         1.5870    0.6440    4.3480 n         1 BSM     -0.551900
     14 C26         1.4070    0.7290    5.7730 c3        1 BSM      0.082000
     15 C27         2.6660    0.4720    6.5880 c3        1 BSM     -0.121100
     16 N1          2.7360   -0.5090    1.7500 nd        1 BSM     -0.489800
     17 N5          2.7210   -0.5370    0.4280 na        1 BSM      0.004400
     18 C4          1.4210   -0.4550   -0.1030 cd        1 BSM     -0.065300
     19 C6          1.1680   -0.4790   -1.5300 ca        1 BSM     -0.152000
     20 C11         1.7460    0.4960   -2.3510 ca        1 BSM     -0.037000
     21 C12         1.5420    0.4820   -3.7290 ca        1 BSM     -0.114600
     22 CL25        2.2630    1.6870   -4.6910 cl        1 BSM     -0.088400
     23 C13         0.7430   -0.5260   -4.3090 ca        1 BSM      0.185100
     24 O24         0.4900   -0.6220   -5.6520 oh        1 BSM     -0.482100
     25 C14         0.1510   -1.5080   -3.5070 ca        1 BSM     -0.195000
     26 C15         0.3650   -1.4810   -2.1200 ca        1 BSM      0.206100
     27 O23        -0.2320   -2.4880   -1.4140 oh        1 BSM     -0.483100
     28 H221       -6.7420    1.0240    0.3230 h1        1 BSM      0.045367
     29 H222       -5.3130    2.1820    0.3590 h1        1 BSM      0.045367
     30 H223       -5.4240    0.9050   -0.9550 h1        1 BSM      0.045367
     31 H19        -3.7360   -1.4300    2.4460 ha        1 BSM      0.146500
     32 H20        -1.2500   -1.7090    2.5140 ha        1 BSM      0.153500
     33 H17        -3.2910    1.6570   -0.5770 ha        1 BSM      0.146500
     34 H16        -0.8330    1.3570   -0.5160 ha        1 BSM      0.153500
     35 H10         2.3110    1.1950    3.9520 hn        1 BSM      0.314500
     36 H261        0.6100   -0.0070    6.0830 h1        1 BSM      0.062200
     37 H262        1.0320    1.7680    6.0050 h1        1 BSM      0.062200
     38 H271        2.4250    0.5990    7.6710 hc        1 BSM      0.042367
     39 H272        3.0460   -0.5650    6.4280 hc        1 BSM      0.042367
     40 H273        3.4770    1.1910    6.3200 hc        1 BSM      0.042367
     41 H5          3.5640   -0.6420   -0.0900 hn        1 BSM      0.330700
     42 H11         2.3650    1.2880   -1.8980 ha        1 BSM      0.152000
     43 H24         0.9420    0.1090   -6.1050 ho        1 BSM      0.435000
     44 H14        -0.4730   -2.2930   -3.9570 ha        1 BSM      0.179000
     45 H23        -0.1540   -2.2920   -0.4640 ho        1 BSM      0.446000
@<TRIPOS>BOND
     1    1    2 1   
     2    1   28 1   
     3    1   29 1   
     4    1   30 1   
     5    2    3 1   
     6    3    4 ar  
     7    3    6 ar  
     8    4    5 ar  
     9    4   31 1   
    10    5    8 ar  
    11    5   32 1   
    12    6    7 ar  
    13    6   33 1   
    14    7    8 ar  
    15    7   34 1   
    16    8    9 1   
    17    9   10 1   
    18    9   18 2   
    19   10   11 1   
    20   10   16 2   
    21   11   12 2   
    22   11   13 1   
    23   13   14 1   
    24   13   35 1   
    25   14   15 1   
    26   14   36 1   
    27   14   37 1   
    28   15   38 1   
    29   15   39 1   
    30   15   40 1   
    31   16   17 1   
    32   17   18 1   
    33   17   41 1   
    34   18   19 1   
    35   19   20 ar  
    36   19   26 ar  
    37   20   21 ar  
    38   20   42 1   
    39   21   22 1   
    40   21   23 ar  
    41   23   24 1   
    42   23   25 ar  
    43   24   43 1   
    44   25   26 ar  
    45   25   44 1   
    46   26   27 1   
    47   27   45 1   
@<TRIPOS>SUBSTRUCTURE
     1 BSM         1 TEMP              0 ****  ****    0 ROOT
