@<TRIPOS>MOLECULE
BSM
   46    48     1     0     0
SMALL
bcc


@<TRIPOS>ATOM
      1 C22        -0.6040   -0.8000   -0.0410 c3        1 BSM      0.108700
      2 O21         0.7160   -0.2860    0.1210 os        1 BSM     -0.314900
      3 C18         1.2030   -0.2330    1.4050 ca        1 BSM      0.159100
      4 C19         2.5050    0.2970    1.5240 ca        1 BSM     -0.182500
      5 C20         3.0890    0.3930    2.7770 ca        1 BSM     -0.067500
      6 C17         0.5020   -0.6580    2.5420 ca        1 BSM     -0.182500
      7 C16         1.1040   -0.5570    3.7930 ca        1 BSM     -0.067500
      8 C7          2.3980   -0.0360    3.9240 ca        1 BSM     -0.115000
      9 C3          3.0230    0.0630    5.2220 cc        1 BSM     -0.070300
     10 C2          3.7300   -0.9840    5.9350 cc        1 BSM      0.171800
     11 C8          3.9090   -2.3490    5.4890 c         1 BSM      0.508600
     12 O9          3.4290   -2.9280    4.5280 o         1 BSM     -0.412100
     13 N10         4.8480   -3.1770    6.3650 n4        1 BSM     -0.677800
     14 C26         5.0650   -4.5620    5.8560 c3        1 BSM      0.107800
     15 C27         5.9990   -5.3650    6.7340 c3        1 BSM     -0.135100
     16 N1          4.2250   -0.4890    7.1320 nd        1 BSM     -0.508800
     17 N5          3.8530    0.7610    7.2010 na        1 BSM      0.075400
     18 C4          3.1250    1.1950    6.0730 cd        1 BSM      0.002700
     19 C6          2.6020    2.5350    5.9270 ca        1 BSM     -0.124000
     20 C11         1.4310    2.7300    5.1770 ca        1 BSM     -0.015000
     21 C12         0.8930    3.9990    4.9870 ca        1 BSM     -0.106600
     22 CL25       -0.5240    4.1760    4.0710 cl        1 BSM     -0.057400
     23 C13         1.5310    5.1230    5.5560 ca        1 BSM      0.214100
     24 O24         1.0900    6.4070    5.4270 oh        1 BSM     -0.468100
     25 C14         2.6980    4.9540    6.3170 ca        1 BSM     -0.242000
     26 C15         3.2200    3.6710    6.5020 ca        1 BSM      0.187100
     27 O23         4.3500    3.4740    7.2600 oh        1 BSM     -0.529100
     28 H221       -0.7680   -0.7350   -1.1480 h1        1 BSM      0.054033
     29 H222       -1.3420   -0.1670    0.5060 h1        1 BSM      0.054033
     30 H223       -0.6570   -1.8610    0.3050 h1        1 BSM      0.054033
     31 H19         3.0360    0.6300    0.6190 ha        1 BSM      0.158500
     32 H20         4.1020    0.8130    2.8730 ha        1 BSM      0.139000
     33 H17        -0.5140   -1.0690    2.4590 ha        1 BSM      0.158500
     34 H16         0.5530   -0.8910    4.6860 ha        1 BSM      0.139000
     35 H10         5.7500   -2.6900    6.4240 hn        1 BSM      0.460300
     36 H261        4.0560   -5.0630    5.7890 hx        1 BSM      0.112200
     37 H262        5.4790   -4.4790    4.8090 hx        1 BSM      0.112200
     38 H271        5.5960   -5.4850    7.7690 hc        1 BSM      0.076700
     39 H272        7.0150   -4.9030    6.7920 hc        1 BSM      0.076700
     40 H273        6.1060   -6.3850    6.2820 hc        1 BSM      0.076700
     41 H5          4.1550    1.3510    7.9570 hn        1 BSM      0.364700
     42 H11         0.9340    1.8520    4.7240 ha        1 BSM      0.170000
     43 H24         0.2830    6.4130    4.8840 ho        1 BSM      0.448000
     44 H14         3.1850    5.8380    6.7570 ha        1 BSM      0.174000
     45 H23         4.7060    4.3400    7.5170 ho        1 BSM      0.452000
     46 H102        4.4560   -3.2190    7.3120 hn        1 BSM      0.460300
@<TRIPOS>BOND
     1    1    2 1   
     2    1   28 1   
     3    1   29 1   
     4    1   30 1   
     5    2    3 1   
     6    3    4 ar  
     7    3    6 ar  
     8    4    5 ar  
     9    4   31 1   
    10    5    8 ar  
    11    5   32 1   
    12    6    7 ar  
    13    6   33 1   
    14    7    8 ar  
    15    7   34 1   
    16    8    9 1   
    17    9   10 1   
    18    9   18 2   
    19   10   11 1   
    20   10   16 2   
    21   11   12 2   
    22   11   13 1   
    23   13   14 1   
    24   13   35 1   
    25   13   46 1   
    26   14   15 1   
    27   14   36 1   
    28   14   37 1   
    29   15   38 1   
    30   15   39 1   
    31   15   40 1   
    32   16   17 1   
    33   17   18 1   
    34   17   41 1   
    35   18   19 1   
    36   19   20 ar  
    37   19   26 ar  
    38   20   21 ar  
    39   20   42 1   
    40   21   22 1   
    41   21   23 ar  
    42   23   24 1   
    43   23   25 ar  
    44   24   43 1   
    45   25   26 ar  
    46   25   44 1   
    47   26   27 1   
    48   27   45 1   
@<TRIPOS>SUBSTRUCTURE
     1 BSM         1 TEMP              0 ****  ****    0 ROOT
