@<TRIPOS>MOLECULE
BSM
   45    39     1     0     0
SMALL
bcc


@<TRIPOS>ATOM
      1 C22        -1.9770   -1.3190   -4.9400 c3        1 BSM     -0.076000
      2 O21        -1.9190   -0.0470   -4.3300 os        1 BSM     -0.210000
      3 C18        -1.3270   -0.0520   -3.0540 c2        1 BSM      0.086000
      4 C19         0.0180    0.2530   -2.9140 c2        1 BSM     -0.157000
      5 C20         0.5870    0.3160   -1.6510 c1        1 BSM     -0.062000
      6 C17        -2.1030   -0.2950   -1.9310 c1        1 BSM     -0.209000
      7 C16        -1.5340   -0.2320   -0.6680 c1        1 BSM     -0.085000
      8 C7         -0.1890    0.0740   -0.5280 c1        1 BSM     -0.053000
      9 C3          0.3890    0.0970    0.7320 c1        1 BSM     -0.075000
     10 C2          1.0710   -0.9280    1.3210 c1        1 BSM     -0.153000
     11 C8          1.2260   -2.3260    0.7660 c1        1 BSM      0.381000
     12 O9          0.7160   -2.6180   -0.2970 o         1 BSM     -0.347000
     13 N10         1.9300   -3.3100    1.5080 n3        1 BSM     -0.364000
     14 C26         1.7910   -4.6870    1.1760 c3        1 BSM     -0.036000
     15 C27         2.6670   -5.5170    2.0900 c3        1 BSM     -0.240000
     16 N1          1.5290   -0.4930    2.5130 n2        1 BSM     -0.065000
     17 N5          1.1320    0.8110    2.6710 n2        1 BSM     -0.129000
     18 C4          0.4310    1.1700    1.5750 c2        1 BSM     -0.013000
     19 C6         -0.2030    2.3860    1.3760 c1        1 BSM     -0.074000
     20 C11        -1.5160    2.5570    1.7860 c1        1 BSM     -0.029000
     21 C12        -2.1330    3.7890    1.6370 c1        1 BSM     -0.181000
     22 CL25       -3.7790    4.0090    2.1650 cl        1 BSM     -0.004000
     23 C13        -1.4370    4.8500    1.0780 c2        1 BSM      0.140000
     24 O24        -2.0470    6.1130    0.9730 oh        1 BSM     -0.239000
     25 C14        -0.1250    4.6780    0.6680 c1        1 BSM     -0.244000
     26 C15         0.4930    3.4470    0.8170 c1        1 BSM      0.126000
     27 O23         1.8410    3.2860    0.4470 oh        1 BSM     -0.266000
     28 H221       -2.5230   -1.2670   -5.7540 h1        1 BSM      0.083333
     29 H222       -1.0690   -1.6110   -5.1720 h1        1 BSM      0.083333
     30 H223       -2.3780   -1.9620   -4.3170 h1        1 BSM      0.083333
     31 H19         0.5650    0.4240   -3.7040 ha        1 BSM      0.151000
     32 H20         1.5340    0.5310   -1.5520 ha        1 BSM      0.145000
     33 H17        -3.0500   -0.5100   -2.0290 ha        1 BSM      0.137000
     34 H16        -2.0810   -0.4020    0.1230 ha        1 BSM      0.135000
     35 H10         2.4750   -3.0600    2.1950 hn        1 BSM      0.225000
     36 H261        2.0630   -4.8280    0.2460 h1        1 BSM      0.100000
     37 H262        0.8560   -4.9570    1.2870 h1        1 BSM      0.100000
     38 H271        2.3710   -6.4510    2.0670 hc        1 BSM      0.080333
     39 H272        3.5980   -5.4620    1.7880 hc        1 BSM      0.080333
     40 H273        2.6000   -5.1760    3.0060 hc        1 BSM      0.080333
     41 H5          1.3100    1.3410    3.3900 DU        1 BSM      0.288000
     42 H11        -1.9980    1.8170    2.2000 ha        1 BSM      0.173000
     43 H24        -2.4890    6.1660    0.2040 ho        1 BSM      0.236000
     44 H14         0.3650    5.4250    0.2750 ha        1 BSM      0.161000
     45 H23         2.3180    3.9670    0.7640 ho        1 BSM      0.235000
@<TRIPOS>BOND
     1    1    2 1   
     2    1   28 1   
     3    1   29 1   
     4    1   30 1   
     5    2    3 1   
     6    3    4 1   
     7    3    6 1   
     8    4    5 1   
     9    4   31 1   
    10    5   32 1   
    11    6   33 1   
    12    7    8 1   
    13    7   34 1   
    14    9   10 1   
    15    9   18 1   
    16   10   16 1   
    17   11   12 1   
    18   11   13 1   
    19   13   14 1   
    20   13   35 1   
    21   14   15 1   
    22   14   36 1   
    23   14   37 1   
    24   15   38 1   
    25   15   39 1   
    26   15   40 1   
    27   16   17 1   
    28   17   18 1   
    29   18   19 1   
    30   19   26 1   
    31   20   21 1   
    32   20   42 1   
    33   21   23 1   
    34   23   24 1   
    35   23   25 1   
    36   24   43 1   
    37   25   44 1   
    38   26   27 1   
    39   27   45 1   
@<TRIPOS>SUBSTRUCTURE
     1 BSM         1 TEMP              0 ****  ****    0 ROOT
