@<TRIPOS>MOLECULE
BSO
   32    33     1     0     0
SMALL
bcc


@<TRIPOS>ATOM
      1 C11        -0.0830    0.4600   -0.0030 c         1 BSO      0.909600
      2 O11         0.8970    1.2560   -0.0500 o         1 BSO     -0.847300
      3 O12        -0.4720   -0.1280    1.0470 o         1 BSO     -0.847300
      4 C10        -0.8390    0.1810   -1.3170 c3        1 BSO     -0.199400
      5 C9         -2.3300    0.2320   -1.0970 c3        1 BSO     -0.064400
      6 C8         -3.0940   -0.1710   -2.3420 c3        1 BSO     -0.084400
      7 C7         -4.5920   -0.0540   -2.1280 c3        1 BSO     -0.066400
      8 C2         -5.3560   -0.2630   -3.4180 c3        1 BSO     -0.075400
      9 S1         -4.7510    0.9100   -4.6140 s4        1 BSO      0.286600
     10 C6         -6.1910    1.9210   -4.6070 c3        1 BSO     -0.122100
     11 C5         -7.3850    1.1330   -4.0980 c3        1 BSO      0.070700
     12 N1         -8.2790    1.8170   -3.1690 ns        1 BSO     -0.513900
     13 C3         -8.1780    1.1830   -1.8900 c         1 BSO      0.742500
     14 O3         -8.7160    1.6110   -0.8530 o         1 BSO     -0.627500
     15 N2         -7.4890   -0.0600   -1.9950 ns        1 BSO     -0.513900
     16 C4         -6.8750   -0.1580   -3.3140 c3        1 BSO      0.080700
     17 O10        -4.7680    0.2000   -5.9200 o         1 BSO     -0.510200
     18 H101       -0.5370   -0.8350   -1.6770 hc        1 BSO      0.021200
     19 H102       -0.5300    0.9280   -2.0890 hc        1 BSO      0.021200
     20 H9C1       -2.6260    1.2700   -0.7940 hc        1 BSO      0.049200
     21 H9C2       -2.5920   -0.4500   -0.2440 hc        1 BSO      0.049200
     22 H8C1       -2.8340   -1.2260   -2.6200 hc        1 BSO      0.030200
     23 H8C2       -2.7760    0.4840   -3.2000 hc        1 BSO      0.030200
     24 H7C1       -4.8310    0.9540   -1.6960 hc        1 BSO      0.047700
     25 H7C2       -4.8950   -0.8250   -1.3700 hc        1 BSO      0.047700
     26 H2         -5.1120   -1.2950   -3.7940 h1        1 BSO      0.108700
     27 H6C1       -6.4040    2.3050   -5.6350 h1        1 BSO      0.092700
     28 H6C2       -5.9730    2.8100   -3.9630 h1        1 BSO      0.092700
     29 H5         -8.0100    0.7960   -4.9730 h1        1 BSO      0.085700
     30 H1         -8.2480    2.8110   -3.1580 hn        1 BSO      0.303500
     31 HA         -6.9500   -0.3340   -1.2040 hn        1 BSO      0.321500
     32 H4         -7.3290   -1.0650   -3.8080 h1        1 BSO      0.082700
@<TRIPOS>BOND
     1    1    2 1   
     2    1    3 1   
     3    1    4 1   
     4    4    5 1   
     5    4   18 1   
     6    4   19 1   
     7    5    6 1   
     8    5   20 1   
     9    5   21 1   
    10    6    7 1   
    11    6   22 1   
    12    6   23 1   
    13    7    8 1   
    14    7   24 1   
    15    7   25 1   
    16    8    9 1   
    17    8   16 1   
    18    8   26 1   
    19    9   10 1   
    20    9   17 2   
    21   10   11 1   
    22   10   27 1   
    23   10   28 1   
    24   11   12 1   
    25   11   16 1   
    26   11   29 1   
    27   12   13 1   
    28   12   30 1   
    29   13   14 2   
    30   13   15 1   
    31   15   16 1   
    32   15   31 1   
    33   16   32 1   
@<TRIPOS>SUBSTRUCTURE
     1 BSO         1 TEMP              0 ****  ****    0 ROOT
