@<TRIPOS>MOLECULE
BSO
   32    33     1     0     0
SMALL
bcc


@<TRIPOS>ATOM
      1 C11        -0.0520    0.4360   -0.0540 c         1 BSO      0.909600
      2 O11         0.9460    1.2070   -0.1400 o         1 BSO     -0.847300
      3 O12        -0.4410   -0.1070    1.0190 o         1 BSO     -0.847300
      4 C10        -0.8300    0.1320   -1.3490 c3        1 BSO     -0.199400
      5 C9         -2.3170    0.2250   -1.1150 c3        1 BSO     -0.064400
      6 C8         -3.1060   -0.2010   -2.3360 c3        1 BSO     -0.084400
      7 C7         -4.5980   -0.0410   -2.1090 c3        1 BSO     -0.066400
      8 C2         -5.3830   -0.2760   -3.3820 c3        1 BSO     -0.075400
      9 S1         -4.7650    0.8420   -4.6240 s4        1 BSO      0.286600
     10 C6         -6.1820    1.8870   -4.6340 c3        1 BSO     -0.122100
     11 C5         -7.3870    1.1450   -4.0850 c3        1 BSO      0.070700
     12 N1         -8.2530    1.8810   -3.1690 n         1 BSO     -0.513900
     13 C3         -8.1510    1.2880   -1.8700 c         1 BSO      0.742500
     14 O3         -8.6660    1.7630   -0.8420 o         1 BSO     -0.627500
     15 N2         -7.4920    0.0260   -1.9410 n         1 BSO     -0.513900
     16 C4         -6.8980   -0.1310   -3.2630 c3        1 BSO      0.080700
     17 O10        -4.8160    0.0890   -5.9050 o         1 BSO     -0.510200
     18 H101       -0.5570   -0.9020   -1.6800 hc        1 BSO      0.021200
     19 H102       -0.5140    0.8460   -2.1500 hc        1 BSO      0.021200
     20 H9C1       -2.5850   -0.4210   -0.2360 hc        1 BSO      0.049200
     21 H9C2       -2.5850    1.2800   -0.8430 hc        1 BSO      0.049200
     22 H8C1       -2.8740   -1.2700   -2.5810 hc        1 BSO      0.030200
     23 H8C2       -2.7830    0.4170   -3.2190 hc        1 BSO      0.030200
     24 H7C1       -4.8080    0.9860   -1.7080 hc        1 BSO      0.047700
     25 H7C2       -4.9090   -0.7790   -1.3210 hc        1 BSO      0.047700
     26 H2         -5.1680   -1.3250   -3.7250 h1        1 BSO      0.108700
     27 H6C1       -6.3990    2.2400   -5.6720 h1        1 BSO      0.092700
     28 H6C2       -5.9350    2.7910   -4.0240 h1        1 BSO      0.092700
     29 H5         -8.0310    0.7920   -4.9400 h1        1 BSO      0.085700
     30 H1         -8.1990    2.8730   -3.1920 hn        1 BSO      0.303500
     31 HA         -6.9500   -0.2340   -1.1480 hn        1 BSO      0.321500
     32 H4         -7.3780   -1.0440   -3.7210 h1        1 BSO      0.082700
@<TRIPOS>BOND
     1    1    2 1   
     2    1    3 1   
     3    1    4 1   
     4    4    5 1   
     5    4   18 1   
     6    4   19 1   
     7    5    6 1   
     8    5   20 1   
     9    5   21 1   
    10    6    7 1   
    11    6   22 1   
    12    6   23 1   
    13    7    8 1   
    14    7   24 1   
    15    7   25 1   
    16    8    9 1   
    17    8   16 1   
    18    8   26 1   
    19    9   10 1   
    20    9   17 2   
    21   10   11 1   
    22   10   27 1   
    23   10   28 1   
    24   11   12 1   
    25   11   16 1   
    26   11   29 1   
    27   12   13 1   
    28   12   30 1   
    29   13   14 2   
    30   13   15 1   
    31   15   16 1   
    32   15   31 1   
    33   16   32 1   
@<TRIPOS>SUBSTRUCTURE
     1 BSO         1 TEMP              0 ****  ****    0 ROOT
