@<TRIPOS>MOLECULE
BSO
   32    32     1     0     0
SMALL
bcc


@<TRIPOS>ATOM
      1 C11         2.4810    2.7720    3.6840 c1        1 BSO      0.329000
      2 O11         3.7430    2.7720    3.6840 os        1 BSO     -0.575000
      3 O12         1.8500    2.7720    4.7780 o         1 BSO     -0.590000
      4 C10         1.7170    2.8580    2.3620 c3        1 BSO     -0.228000
      5 C9          1.2930    1.4450    1.9220 c3        1 BSO     -0.148000
      6 C8          0.6910    1.5070    0.5020 c3        1 BSO     -0.160000
      7 C7          0.1610    0.1070    0.1040 c3        1 BSO     -0.145000
      8 C2         -0.1890    0.0970   -1.4130 c3        1 BSO     -0.541000
      9 S1         -1.5560    0.4960   -1.5940 s4        1 BSO      1.420000
     10 C6         -2.5390   -0.9420   -1.4750 c3        1 BSO     -0.628000
     11 C5         -1.7330   -1.9290   -2.1370 c3        1 BSO     -0.006000
     12 N1         -1.8800   -3.1480   -1.5290 n         1 BSO     -0.322000
     13 C3         -0.6230   -3.4470   -0.8230 c2        1 BSO      0.333000
     14 O3         -0.3710   -4.4690   -0.2090 o         1 BSO     -0.352000
     15 N2          0.3590   -2.2980   -1.1060 n         1 BSO     -0.322000
     16 C4         -0.2130   -1.4850   -1.9750 c3        1 BSO      0.002000
     17 O10        -2.0100    1.8000   -2.0070 o         1 BSO     -0.786000
     18 H101        2.2920    3.2530    1.6790 hc        1 BSO      0.061500
     19 H102        0.9230    3.4140    2.4800 hc        1 BSO      0.061500
     20 H9C1        2.0720    0.8580    1.9200 hc        1 BSO      0.089000
     21 H9C2        0.6250    1.0980    2.5440 hc        1 BSO      0.089000
     22 H8C1        1.3790    1.7870   -0.1310 hc        1 BSO      0.069000
     23 H8C2       -0.0440    2.1490    0.4880 hc        1 BSO      0.069000
     24 H7C1       -0.6400   -0.0980    0.6240 hc        1 BSO      0.086000
     25 H7C2        0.8470   -0.5640    0.2840 hc        1 BSO      0.086000
     26 H2          0.5020    0.6890   -1.7680 h1        1 BSO      0.146000
     27 H6C1       -2.6840   -1.2160   -0.5500 h1        1 BSO      0.133500
     28 H6C2       -3.3590   -0.7900   -1.9820 h1        1 BSO      0.133500
     29 H5         -1.9720   -1.9870   -3.0820 h1        1 BSO      0.125000
     30 H1         -2.5830   -3.7190   -1.6370 hn        1 BSO      0.218000
     31 HA          1.2170   -2.2400   -0.8030 hn        1 BSO      0.231000
     32 H4          0.2440   -1.5410   -2.8350 h1        1 BSO      0.121000
@<TRIPOS>BOND
     1    1    3 1   
     2    1    4 1   
     3    4    5 1   
     4    4   18 1   
     5    4   19 1   
     6    5    6 1   
     7    5   20 1   
     8    5   21 1   
     9    6    7 1   
    10    6   22 1   
    11    6   23 1   
    12    7    8 1   
    13    7   24 1   
    14    7   25 1   
    15    8    9 1   
    16    8   16 1   
    17    8   26 1   
    18    9   10 1   
    19    9   17 1   
    20   10   11 1   
    21   10   27 1   
    22   10   28 1   
    23   11   12 1   
    24   11   16 1   
    25   11   29 1   
    26   12   13 1   
    27   12   30 1   
    28   13   14 1   
    29   13   15 1   
    30   15   16 1   
    31   15   31 1   
    32   16   32 1   
@<TRIPOS>SUBSTRUCTURE
     1 BSO         1 TEMP              0 ****  ****    0 ROOT
