@<TRIPOS>MOLECULE
BSO
   32    33     1     0     0
SMALL
bcc


@<TRIPOS>ATOM
      1 C11         5.0060    0.3100   -0.5840 c         1 BSO      0.909600
      2 O11         5.7350   -0.2130   -1.4740 o         1 BSO     -0.847300
      3 O12         5.1780    1.4720   -0.1150 o         1 BSO     -0.847300
      4 C10         3.8440   -0.5350   -0.0270 c3        1 BSO     -0.199400
      5 C9          2.5820    0.2860    0.0660 c3        1 BSO     -0.064400
      6 C8          1.4600   -0.4820    0.7340 c3        1 BSO     -0.084400
      7 C7          0.1790    0.3310    0.7630 c3        1 BSO     -0.066400
      8 C2         -0.9940   -0.4950    1.2480 c3        1 BSO     -0.075400
      9 S1         -1.1280   -1.9300    0.2010 s4        1 BSO      0.286600
     10 C6         -2.5900   -1.4040   -0.6240 c3        1 BSO     -0.122100
     11 C5         -3.3270   -0.3750    0.2140 c3        1 BSO      0.070700
     12 N1         -3.8720    0.7820   -0.4900 n         1 BSO     -0.513900
     13 C3         -3.1580    1.9490   -0.0680 c         1 BSO      0.742500
     14 O3         -3.2960    3.0750   -0.5780 o         1 BSO     -0.627500
     15 N2         -2.3720    1.6710    1.0880 n         1 BSO     -0.513900
     16 C4         -2.3360    0.2300    1.3060 c3        1 BSO      0.080700
     17 O10        -1.5510   -3.0410    1.0930 o         1 BSO     -0.510200
     18 H101        3.6840   -1.4260   -0.6840 hc        1 BSO      0.021200
     19 H102        4.1400   -0.9020    0.9880 hc        1 BSO      0.021200
     20 H9C1        2.8040    1.2250    0.6400 hc        1 BSO      0.049200
     21 H9C2        2.2630    0.5960   -0.9640 hc        1 BSO      0.049200
     22 H8C1        1.2910   -1.4470    0.1800 hc        1 BSO      0.030200
     23 H8C2        1.7590   -0.7520    1.7800 hc        1 BSO      0.030200
     24 H7C1        0.3410    1.2090    1.4430 hc        1 BSO      0.047700
     25 H7C2       -0.0310    0.7350   -0.2630 hc        1 BSO      0.047700
     26 H2         -0.7520   -0.8490    2.2880 h1        1 BSO      0.108700
     27 H6C1       -3.2610   -2.2760   -0.8240 h1        1 BSO      0.092700
     28 H6C2       -2.2840   -0.9910   -1.6180 h1        1 BSO      0.092700
     29 H5         -4.1860   -0.8730    0.7480 h1        1 BSO      0.085700
     30 H1         -4.0060    0.6940   -1.4720 hn        1 BSO      0.303500
     31 HA         -1.5230    2.1810    1.1770 hn        1 BSO      0.321500
     32 H4         -2.7910    0.0510    2.3240 h1        1 BSO      0.082700
@<TRIPOS>BOND
     1    1    2 1   
     2    1    3 1   
     3    1    4 1   
     4    4    5 1   
     5    4   18 1   
     6    4   19 1   
     7    5    6 1   
     8    5   20 1   
     9    5   21 1   
    10    6    7 1   
    11    6   22 1   
    12    6   23 1   
    13    7    8 1   
    14    7   24 1   
    15    7   25 1   
    16    8    9 1   
    17    8   16 1   
    18    8   26 1   
    19    9   10 1   
    20    9   17 2   
    21   10   11 1   
    22   10   27 1   
    23   10   28 1   
    24   11   12 1   
    25   11   16 1   
    26   11   29 1   
    27   12   13 1   
    28   12   30 1   
    29   13   14 2   
    30   13   15 1   
    31   15   16 1   
    32   15   31 1   
    33   16   32 1   
@<TRIPOS>SUBSTRUCTURE
     1 BSO         1 TEMP              0 ****  ****    0 ROOT
