@<TRIPOS>MOLECULE
BSP
   44    47     1     0     0
SMALL
bcc


@<TRIPOS>ATOM
      1 C5          0.1780    0.0970   -0.3840 ca        1 BSP      0.034100
      2 C4          1.5870    0.1060   -0.3000 ca        1 BSP      0.018100
      3 C3          2.1650    0.0680    0.9640 ca        1 BSP     -0.023300
      4 C8          1.3520    0.0220    2.1250 ca        1 BSP     -0.136600
      5 C7         -0.0300    0.0160    2.0440 ca        1 BSP      0.063100
      6 C6         -0.6190    0.0520    0.7640 ca        1 BSP     -0.009900
      7 BR6        -2.4840    0.0370    0.6080 br        1 BSP     -0.065100
      8 BR7        -1.1150   -0.0440    3.5640 br        1 BSP     -0.047100
      9 BR5        -0.6390    0.1420   -2.0680 br        1 BSP     -0.044100
     10 BR4         2.6070    0.1580   -1.8550 br        1 BSP      0.031900
     11 C9          2.2570   -0.0240    3.3000 c         1 BSP      0.736200
     12 O1          3.5630   -0.0010    2.8770 os        1 BSP     -0.396900
     13 O9          2.0680   -0.0970    4.5100 o         1 BSP     -0.579500
     14 C2          3.6370    0.0300    1.3850 c3        1 BSP      0.339700
     15 C1'         4.2610   -1.2720    0.9600 ca        1 BSP     -0.186300
     16 C2'         5.0430   -1.3930   -0.1930 ca        1 BSP      0.017500
     17 C3'         5.5770   -2.6160   -0.6110 ca        1 BSP     -0.362000
     18 C4'         5.3090   -3.7480    0.1740 ca        1 BSP      0.249600
     19 C5'         4.5410   -3.6470    1.3560 ca        1 BSP     -0.214000
     20 C6'         4.0280   -2.4210    1.7350 ca        1 BSP     -0.045500
     21 O4'         5.7470   -5.0150   -0.0980 oh        1 BSP     -0.542100
     22 S1'         6.5510   -2.5870   -2.0900 s6        1 BSP      1.467600
     23 OS1         5.8500   -1.7670   -2.9950 o         1 BSP     -0.745867
     24 OS2         6.6070   -3.9570   -2.4860 o         1 BSP     -0.745867
     25 OS3         7.8110   -2.0850   -1.7070 o         1 BSP     -0.745867
     26 C1B         4.3820    1.2890    1.0600 ca        1 BSP     -0.186300
     27 C2B         3.7070    2.5060    0.9250 ca        1 BSP      0.017500
     28 C3B         4.3700    3.7180    0.7140 ca        1 BSP     -0.362000
     29 C4B         5.7710    3.6820    0.6460 ca        1 BSP      0.249600
     30 C5B         6.4770    2.4650    0.7770 ca        1 BSP     -0.214000
     31 C6B         5.7840    1.2860    0.9910 ca        1 BSP     -0.045500
     32 O4B         6.5690    4.7780    0.4600 oh        1 BSP     -0.542100
     33 S1B         3.3550    5.1560    0.5680 s6        1 BSP      1.467600
     34 OSA         2.3190    4.9900    1.5130 o         1 BSP     -0.745867
     35 OSB         2.8990    5.1890   -0.7660 o         1 BSP     -0.745867
     36 OSC         4.2420    6.2320    0.8680 o         1 BSP     -0.745867
     37 H2'         5.2490   -0.4980   -0.8120 ha        1 BSP      0.152000
     38 H5'         4.3630   -4.5480    1.9570 ha        1 BSP      0.132000
     39 H6'         3.4370   -2.3430    2.6610 ha        1 BSP      0.133000
     40 H4'         6.1960   -5.0370   -0.9650 ho        1 BSP      0.476000
     41 H2B         2.6040    2.5350    1.0060 ha        1 BSP      0.152000
     42 H5B         7.5730    2.4700    0.7080 ha        1 BSP      0.132000
     43 H6B         6.3390    0.3410    1.1150 ha        1 BSP      0.133000
     44 H4B         6.0270    5.5900    0.4760 ho        1 BSP      0.476000
@<TRIPOS>BOND
     1    1    2 ar  
     2    1    6 ar  
     3    1    9 1   
     4    2    3 ar  
     5    2   10 1   
     6    3    4 ar  
     7    3   14 1   
     8    4    5 ar  
     9    4   11 1   
    10    5    6 ar  
    11    5    8 1   
    12    6    7 1   
    13   11   12 1   
    14   11   13 2   
    15   12   14 1   
    16   14   15 1   
    17   14   26 1   
    18   15   16 ar  
    19   15   20 ar  
    20   16   17 ar  
    21   16   37 1   
    22   17   18 ar  
    23   17   22 1   
    24   18   19 ar  
    25   18   21 1   
    26   19   20 ar  
    27   19   38 1   
    28   20   39 1   
    29   21   40 1   
    30   22   23 1   
    31   22   24 1   
    32   22   25 1   
    33   26   27 ar  
    34   26   31 ar  
    35   27   28 ar  
    36   27   41 1   
    37   28   29 ar  
    38   28   33 1   
    39   29   30 ar  
    40   29   32 1   
    41   30   31 ar  
    42   30   42 1   
    43   31   43 1   
    44   32   44 1   
    45   33   34 1   
    46   33   35 1   
    47   33   36 1   
@<TRIPOS>SUBSTRUCTURE
     1 BSP         1 TEMP              0 ****  ****    0 ROOT
