@<TRIPOS>MOLECULE
BSP
   44    47     1     0     0
SMALL
bcc


@<TRIPOS>ATOM
      1 C5         -0.4640    0.7190   -0.3380 ca        1 BSP      0.034100
      2 C4         -1.7110    1.3360   -0.5780 ca        1 BSP      0.018100
      3 C3         -1.7160    2.6790   -0.9380 ca        1 BSP     -0.023300
      4 C8         -0.4990    3.3950   -1.0570 ca        1 BSP     -0.136600
      5 C7          0.7250    2.7930   -0.8200 ca        1 BSP      0.063100
      6 C6          0.7340    1.4320   -0.4580 ca        1 BSP     -0.009900
      7 BR6         2.3670    0.5750   -0.1370 br        1 BSP     -0.065100
      8 BR7         2.3380    3.7250   -0.9730 br        1 BSP     -0.047100
      9 BR5        -0.4140   -1.0890    0.1430 br        1 BSP     -0.044100
     10 BR4        -3.2790    0.3470   -0.4160 br        1 BSP      0.031900
     11 C9         -0.8380    4.7830   -1.4620 c         1 BSP      0.736200
     12 O1         -2.2000    4.9090   -1.5790 os        1 BSP     -0.396900
     13 O9         -0.1650    5.7760   -1.7190 o         1 BSP     -0.579500
     14 C2         -2.8800    3.6100   -1.2920 c3        1 BSP      0.339700
     15 C1'        -3.5180    3.1670   -2.5820 ca        1 BSP     -0.186300
     16 C2'        -4.6910    2.4070   -2.6200 ca        1 BSP      0.017500
     17 C3'        -5.2510    1.9550   -3.8200 ca        1 BSP     -0.362000
     18 C4'        -4.5980    2.2920   -5.0140 ca        1 BSP      0.249600
     19 C5'        -3.4240    3.0790   -5.0030 ca        1 BSP     -0.214000
     20 C6'        -2.8990    3.5060   -3.7970 ca        1 BSP     -0.045500
     21 O4'        -5.0070    1.9240   -6.2670 oh        1 BSP     -0.542100
     22 S1'        -6.7440    1.0110   -3.6860 s6        1 BSP      1.467600
     23 OS1        -7.7730    1.9510   -3.4770 o         1 BSP     -0.745867
     24 OS2        -6.5420    0.1220   -2.6120 o         1 BSP     -0.745867
     25 OS3        -6.8490    0.3620   -4.9530 o         1 BSP     -0.745867
     26 C1B        -3.7890    3.8950   -0.1360 ca        1 BSP     -0.186300
     27 C2B        -3.3260    3.7970    1.1800 ca        1 BSP      0.017500
     28 C3B        -4.1110    4.1420    2.2830 ca        1 BSP     -0.362000
     29 C4B        -5.4100    4.6090    2.0300 ca        1 BSP      0.249600
     30 C5B        -5.9020    4.7150    0.7090 ca        1 BSP     -0.214000
     31 C6B        -5.0920    4.3680   -0.3590 ca        1 BSP     -0.045500
     32 O4B        -6.2970    5.0010    2.9940 oh        1 BSP     -0.542100
     33 S1B        -3.3610    3.9550    3.8710 s6        1 BSP      1.467600
     34 OSA        -2.0200    4.3660    3.7110 o         1 BSP     -0.745867
     35 OSB        -3.4940    2.5950    4.2190 o         1 BSP     -0.745867
     36 OSC        -4.1300    4.8110    4.7150 o         1 BSP     -0.745867
     37 H2'        -5.2020    2.1390   -1.6760 ha        1 BSP      0.152000
     38 H5'        -2.9450    3.3410   -5.9550 ha        1 BSP      0.132000
     39 H6'        -1.9890    4.1260   -3.7910 ha        1 BSP      0.133000
     40 H4'        -5.7680    1.3150   -6.2060 ho        1 BSP      0.476000
     41 H2B        -2.2930    3.4540    1.3750 ha        1 BSP      0.152000
     42 H5B        -6.9270    5.0730    0.5460 ha        1 BSP      0.132000
     43 H6B        -5.4710    4.4740   -1.3880 ha        1 BSP      0.133000
     44 H4B        -5.8620    4.9950    3.8680 ho        1 BSP      0.476000
@<TRIPOS>BOND
     1    1    2 ar  
     2    1    6 ar  
     3    1    9 1   
     4    2    3 ar  
     5    2   10 1   
     6    3    4 ar  
     7    3   14 1   
     8    4    5 ar  
     9    4   11 1   
    10    5    6 ar  
    11    5    8 1   
    12    6    7 1   
    13   11   12 1   
    14   11   13 2   
    15   12   14 1   
    16   14   15 1   
    17   14   26 1   
    18   15   16 ar  
    19   15   20 ar  
    20   16   17 ar  
    21   16   37 1   
    22   17   18 ar  
    23   17   22 1   
    24   18   19 ar  
    25   18   21 1   
    26   19   20 ar  
    27   19   38 1   
    28   20   39 1   
    29   21   40 1   
    30   22   23 1   
    31   22   24 1   
    32   22   25 1   
    33   26   27 ar  
    34   26   31 ar  
    35   27   28 ar  
    36   27   41 1   
    37   28   29 ar  
    38   28   33 1   
    39   29   30 ar  
    40   29   32 1   
    41   30   31 ar  
    42   30   42 1   
    43   31   43 1   
    44   32   44 1   
    45   33   34 1   
    46   33   35 1   
    47   33   36 1   
@<TRIPOS>SUBSTRUCTURE
     1 BSP         1 TEMP              0 ****  ****    0 ROOT
