@<TRIPOS>MOLECULE
BSP
   44    38     1     0     0
SMALL
bcc


@<TRIPOS>ATOM
      1 C5         -3.7240   -1.3420   -0.7330 c1        1 BSP     -0.124500
      2 C4         -2.3520   -1.1840   -0.8610 c1        1 BSP     -0.109000
      3 C3         -1.5390   -1.1490    0.2840 c1        1 BSP     -0.016000
      4 C8         -2.1010   -1.2710    1.5280 c1        1 BSP     -0.106000
      5 C7         -3.4890   -1.4310    1.6570 c1        1 BSP     -0.073000
      6 C6         -4.2930   -1.4660    0.5250 c1        1 BSP     -0.124500
      7 BR6        -6.1930   -1.5720    0.7060 br        1 BSP      0.087000
      8 BR7        -4.2880   -1.4590    3.3950 br        1 BSP      0.101000
      9 BR5        -4.8330   -1.3640   -2.2900 br        1 BSP      0.087000
     10 BR4        -1.5550   -1.1430   -2.6000 br        1 BSP      0.129000
     11 C9         -0.9800   -1.1970    2.5580 c2        1 BSP      0.354000
     12 O1          0.2430   -0.9490    1.8620 os        1 BSP     -0.232000
     13 O9         -1.1010   -1.3550    3.7610 o         1 BSP     -0.287000
     14 C2         -0.0520   -0.8600    0.4680 c3        1 BSP      0.237000
     15 C1'        -0.3520    0.6330    0.2080 c2        1 BSP     -0.176500
     16 C2'        -0.4540    1.5200    1.2800 c2        1 BSP      0.009500
     17 C3'        -0.7970    2.8500    1.0520 c1        1 BSP     -0.762000
     18 C4'        -1.0370    3.2950   -0.2450 c1        1 BSP      0.187500
     19 C5'        -0.9350    2.4080   -1.3150 c1        1 BSP     -0.244000
     20 C6'        -0.5930    1.0780   -1.0880 c1        1 BSP     -0.042500
     21 O4'        -1.4540    4.6270   -0.4690 oh        1 BSP     -0.262000
     22 S1'        -0.8930    3.9930    2.4170 s4        1 BSP      2.094300
     23 OS1        -1.2220    3.2800    3.7070 o         1 BSP     -0.679900
     24 OS2         0.3950    4.7770    2.5370 os        1 BSP     -1.059500
     25 OS3        -2.0870    4.9150    2.2790 o         1 BSP     -0.679900
     26 C1B         1.4130   -1.0440    0.0220 c2        1 BSP     -0.176500
     27 C2B         1.7280   -1.9770   -0.9660 c2        1 BSP      0.009500
     28 C3B         3.0350   -2.0810   -1.4330 c1        1 BSP     -0.762000
     29 C4B         4.0270   -1.2560   -0.9150 c1        1 BSP      0.187500
     30 C5B         3.7130   -0.3260    0.0720 c1        1 BSP     -0.244000
     31 C6B         2.4050   -0.2200    0.5400 c1        1 BSP     -0.042500
     32 O4B         5.3500   -1.3600   -1.3900 oh        1 BSP     -0.262000
     33 S1B         3.4410   -3.2830   -2.6860 s4        1 BSP      2.094300
     34 OSA         4.1960   -2.6460   -3.8330 o         1 BSP     -0.679900
     35 OSB         4.2250   -4.4270   -2.0800 os        1 BSP     -1.059500
     36 OSC         2.2020   -3.7800   -3.3900 o         1 BSP     -0.679900
     37 H2'        -0.2850    1.2070    2.1940 ha        1 BSP      0.156000
     38 H5'        -1.1040    2.7210   -2.2280 ha        1 BSP      0.121500
     39 H6'        -0.5210    0.4560   -1.8390 ha        1 BSP      0.139000
     40 H4'        -1.3850    4.8170   -1.3360 ho        1 BSP      0.235000
     41 H2B         1.0290   -2.5580   -1.3310 ha        1 BSP      0.156000
     42 H5B         4.4110    0.2550    0.4360 ha        1 BSP      0.121500
     43 H6B         2.1850    0.4340    1.2330 ha        1 BSP      0.139000
     44 H4B         5.6190   -0.5670   -1.6950 ho        1 BSP      0.235000
@<TRIPOS>BOND
     1    1    6 1   
     2    1    9 1   
     3    2    3 1   
     4    2   10 1   
     5    3   14 1   
     6    4    5 1   
     7    4   11 1   
     8    5    8 1   
     9    6    7 1   
    10   11   12 1   
    11   11   13 1   
    12   12   14 1   
    13   14   15 1   
    14   14   26 1   
    15   15   16 1   
    16   15   20 1   
    17   16   17 1   
    18   16   37 1   
    19   17   22 1   
    20   18   19 1   
    21   18   21 1   
    22   19   38 1   
    23   20   39 1   
    24   21   40 1   
    25   22   23 1   
    26   22   25 1   
    27   26   27 1   
    28   26   31 1   
    29   27   28 1   
    30   27   41 1   
    31   28   33 1   
    32   29   30 1   
    33   29   32 1   
    34   30   42 1   
    35   31   43 1   
    36   32   44 1   
    37   33   34 1   
    38   33   36 1   
@<TRIPOS>SUBSTRUCTURE
     1 BSP         1 TEMP              0 ****  ****    0 ROOT
