@<TRIPOS>MOLECULE
BST
   63    64     1     0     0
SMALL
bcc


@<TRIPOS>ATOM
      1 O4          1.1870   -0.3820    0.6110 oh        1 BST     -0.525100
      2 N1          5.4920   -0.9040    2.4460 n         1 BST     -0.389000
      3 C2          5.7890    0.4060    1.9600 c         1 BST      0.823500
      4 O2          5.0300    1.3660    2.1800 o         1 BST     -0.587500
      5 N3          6.9860    0.6160    1.2490 n         1 BST     -0.569900
      6 C4          7.8450   -0.4710    0.8360 c3        1 BST      0.594600
      7 C5          7.3460   -1.8330    1.2220 c2        1 BST     -0.385200
      8 C6          6.2240   -1.9840    1.9690 c2        1 BST      0.102600
      9 C1'         4.2710   -1.1270    3.2160 c3        1 BST      0.368700
     10 C2'         4.2450   -0.3670    4.5150 c2        1 BST     -0.189200
     11 C3'         3.2910    0.5060    4.8440 c2        1 BST     -0.134200
     12 C4'         2.1990    0.8470    3.8690 c3        1 BST      0.103900
     13 C5'         1.9630   -0.4280    2.9980 c3        1 BST      0.047100
     14 O5'         3.1610   -0.8100    2.3360 os        1 BST     -0.450600
     15 O3         -0.2170    0.2410    2.1400 o         1 BST     -0.659000
     16 C6'         0.9350   -0.1750    1.9120 c         1 BST      0.704100
     17 N6          0.9810    1.3000    4.5140 n         1 BST     -0.511900
     18 C7          0.1360    2.1720    3.8840 c         1 BST      0.677100
     19 O7          0.4700    2.8680    2.8980 o         1 BST     -0.626100
     20 C8         -1.3030    2.3110    4.4030 c3        1 BST     -0.191400
     21 C9         -2.1720    2.9820    3.3200 c3        1 BST      0.144500
     22 N9         -2.1290    2.1800    2.0530 n4        1 BST     -0.845600
     23 C10        -3.6150    3.2050    3.8260 c3        1 BST     -0.129400
     24 C11        -3.6820    4.5180    4.6080 c3        1 BST      0.104800
     25 N12        -4.9890    4.8410    5.3040 n4        1 BST     -0.699400
     26 C13        -5.7780    3.6350    5.6990 c3        1 BST      0.065100
     27 C14        -5.8720    5.7610    4.4710 c2        1 BST      0.608100
     28 N14        -6.2730    5.5930    3.2760 n2        1 BST     -0.585100
     29 N15        -6.3510    6.9990    5.1790 n4        1 BST     -0.818600
     30 N4          9.2810   -0.2810    1.4850 n4        1 BST     -0.895600
     31 O6          8.1470   -0.3140   -0.5370 oh        1 BST     -0.580800
     32 HN3         7.0370    1.4680    0.7210 hn        1 BST      0.377500
     33 H5          7.9010   -2.7040    0.8420 ha        1 BST      0.202000
     34 H6          5.8500   -2.9950    2.2410 h4        1 BST      0.201000
     35 H1'         4.1900   -2.2400    3.4330 h2        1 BST      0.105700
     36 H2'         5.0740   -0.6040    5.2060 ha        1 BST      0.182000
     37 H3'         3.2980    1.0310    5.8140 ha        1 BST      0.176000
     38 H4'         2.5850    1.6760    3.1900 h1        1 BST      0.149700
     39 H5'         1.5990   -1.2840    3.6380 h1        1 BST      0.101700
     40 HN6         2.0890   -0.7220    0.4670 ho        1 BST      0.483000
     41 H81        -1.7190    1.3070    4.6790 hc        1 BST      0.101700
     42 H82        -1.2930    2.9590    5.3170 hc        1 BST      0.101700
     43 H9         -1.6920    3.9820    3.0620 hx        1 BST      0.138700
     44 HN91       -1.1380    2.1780    1.7030 hn        1 BST      0.491133
     45 HN92       -2.3710    1.1940    2.2240 hn        1 BST      0.491133
     46 H101       -4.3360    3.2390    2.9660 hc        1 BST      0.089700
     47 H102       -3.9030    2.3340    4.4780 hc        1 BST      0.089700
     48 H111       -3.4280    5.3840    3.9280 hx        1 BST      0.133200
     49 H112       -2.9010    4.4780    5.4320 hx        1 BST      0.133200
     50 H131       -6.6860    3.9500    6.2880 hx        1 BST      0.136700
     51 H132       -5.1340    2.9780    6.3530 hx        1 BST      0.136700
     52 H133       -6.1050    3.0610    4.7910 hx        1 BST      0.136700
     53 H14        -6.0560    4.8100    2.6920 hn        1 BST      0.528400
     54 H151       -6.9660    7.5520    4.5340 hn        1 BST      0.520133
     55 H152       -5.5590    7.6020    5.4520 hn        1 BST      0.520133
     56 HN41        9.2070   -0.0990    2.4850 hn        1 BST      0.465800
     57 HN42        9.8150   -1.1380    1.3280 hn        1 BST      0.465800
     58 HO6         7.9490   -1.1410   -1.0100 ho        1 BST      0.482000
     59 H62         0.6660    0.7860    5.3050 hn        1 BST      0.334500
     60 H93        -2.7380    2.5720    1.3350 hn        1 BST      0.491133
     61 H121       -4.7180    5.3230    6.1790 hn        1 BST      0.477800
     62 H153       -6.9150    6.7520    6.0100 hn        1 BST      0.520133
     63 H43         9.7610    0.4980    1.0240 hn        1 BST      0.465800
@<TRIPOS>BOND
     1    1   16 1   
     2    1   40 1   
     3    2    3 1   
     4    2    8 1   
     5    2    9 1   
     6    3    4 2   
     7    3    5 1   
     8    5    6 1   
     9    5   32 1   
    10    6    7 1   
    11    6   30 1   
    12    6   31 1   
    13    7    8 2   
    14    7   33 1   
    15    8   34 1   
    16    9   10 1   
    17    9   14 1   
    18    9   35 1   
    19   10   11 2   
    20   10   36 1   
    21   11   12 1   
    22   11   37 1   
    23   12   13 1   
    24   12   17 1   
    25   12   38 1   
    26   13   14 1   
    27   13   16 1   
    28   13   39 1   
    29   15   16 2   
    30   17   18 1   
    31   17   59 1   
    32   18   19 2   
    33   18   20 1   
    34   20   21 1   
    35   20   41 1   
    36   20   42 1   
    37   21   22 1   
    38   21   23 1   
    39   21   43 1   
    40   22   44 1   
    41   22   45 1   
    42   22   60 1   
    43   23   24 1   
    44   23   46 1   
    45   23   47 1   
    46   24   25 1   
    47   24   48 1   
    48   24   49 1   
    49   25   26 1   
    50   25   27 1   
    51   25   61 1   
    52   26   50 1   
    53   26   51 1   
    54   26   52 1   
    55   27   28 2   
    56   27   29 1   
    57   28   53 1   
    58   29   54 1   
    59   29   55 1   
    60   29   62 1   
    61   30   56 1   
    62   30   57 1   
    63   30   63 1   
    64   31   58 1   
@<TRIPOS>SUBSTRUCTURE
     1 BST         1 TEMP              0 ****  ****    0 ROOT
