@<TRIPOS>MOLECULE
BST
   58    59     1     0     0
SMALL
bcc


@<TRIPOS>ATOM
      1 O4          0.1680   -0.5030    3.4050 o         1 BST     -0.817800
      2 N1          4.2640    1.2750    0.4180 n         1 BST     -0.401000
      3 C2          5.1860    1.8150   -0.5010 c         1 BST      0.800500
      4 O2          5.1270    3.0220   -0.8500 o         1 BST     -0.692500
      5 N3          6.2390    1.0190   -0.9870 n         1 BST     -0.567900
      6 C4          6.2480   -0.4540   -0.8160 c3        1 BST      0.570600
      7 C5          5.2420   -0.9080    0.2200 c2        1 BST     -0.366200
      8 C6          4.3420   -0.0640    0.7730 c2        1 BST      0.045600
      9 C1'         3.2710    2.1960    1.0070 c3        1 BST      0.358700
     10 C2'         2.2680    2.6620   -0.0140 c2        1 BST     -0.233200
     11 C3'         1.1030    2.0290   -0.1640 c2        1 BST     -0.129200
     12 C4'         0.8350    0.8220    0.6880 c3        1 BST      0.110900
     13 C5'         1.3770    1.0960    2.1160 c3        1 BST     -0.004900
     14 O5'         2.7000    1.6230    2.1710 os        1 BST     -0.390600
     15 O3          2.3250   -0.9650    3.0200 o         1 BST     -0.817800
     16 C6'         1.3080   -0.2330    2.9290 c         1 BST      0.918600
     17 N6         -0.5540    0.4140    0.7570 n         1 BST     -0.536900
     18 C7         -1.2850    0.0540   -0.3440 c         1 BST      0.650100
     19 O7         -0.9050    0.2790   -1.5180 o         1 BST     -0.663100
     20 C8         -2.6420   -0.5900   -0.1020 c3        1 BST     -0.195400
     21 C9         -3.7780    0.3970   -0.4380 c3        1 BST      0.175500
     22 N9         -3.7820    0.8820   -1.8060 n3        1 BST     -0.908800
     23 C10        -5.1020   -0.2780   -0.0470 c3        1 BST     -0.107400
     24 C11        -6.2620    0.7070   -0.1590 c3        1 BST      0.191800
     25 N12        -7.5450    0.3220    0.4070 nh        1 BST     -0.716600
     26 C13        -7.4890   -0.1860    1.7600 c3        1 BST      0.162100
     27 C14        -8.3920   -0.5010   -0.4540 c2        1 BST      0.735100
     28 N14        -7.8940   -1.4370   -1.2140 n2        1 BST     -0.843100
     29 N15        -9.7930   -0.2120   -0.3280 nh        1 BST     -0.925800
     30 N4          7.5860   -0.9850   -0.4950 n3        1 BST     -0.917800
     31 O6          5.9150   -0.9810   -2.1230 oh        1 BST     -0.639800
     32 HN3         6.6150    1.3430   -1.8510 hn        1 BST      0.309500
     33 H5          5.2850   -1.9630    0.5110 ha        1 BST      0.162000
     34 H6          3.6110   -0.3990    1.5580 h4        1 BST      0.248000
     35 H1'         3.8610    3.0850    1.4010 h2        1 BST      0.081700
     36 H2'         2.5820    3.5240   -0.6170 ha        1 BST      0.149000
     37 H3'         0.3410    2.3270   -0.8980 ha        1 BST      0.150000
     38 H4'         1.4430   -0.0330    0.2480 h1        1 BST      0.070700
     39 H5'         0.7300    1.8690    2.6220 h1        1 BST      0.054700
     40 HN6        -0.8430    0.0860    1.6650 hn        1 BST      0.361500
     41 H81        -2.7570   -0.9360    0.9570 hc        1 BST      0.069200
     42 H82        -2.7070   -1.4910   -0.7660 hc        1 BST      0.069200
     43 H9         -3.6400    1.3080    0.2200 h1        1 BST      0.060700
     44 HN91       -2.8780    1.2570   -2.0350 hn        1 BST      0.357300
     45 HN92       -3.9800    0.1300   -2.4380 hn        1 BST      0.357300
     46 H101       -5.0050   -0.6390    1.0100 hc        1 BST      0.055200
     47 H102       -5.2840   -1.1720   -0.6970 hc        1 BST      0.055200
     48 H111       -6.4220    0.9670   -1.2420 h1        1 BST      0.061700
     49 H112       -5.9760    1.6560    0.3850 h1        1 BST      0.061700
     50 H131       -6.8700    0.5170    2.3760 h1        1 BST      0.040033
     51 H132       -8.5290   -0.2200    2.1800 h1        1 BST      0.040033
     52 H133       -7.0430   -1.2150    1.8330 h1        1 BST      0.040033
     53 H14        -8.5440   -1.9120   -1.8040 hn        1 BST      0.386400
     54 H151      -10.0000    0.5980    0.2160 hn        1 BST      0.384800
     55 H152      -10.2670   -0.1980   -1.2050 hn        1 BST      0.384800
     56 HN41        8.2430   -0.7670   -1.2160 hn        1 BST      0.359300
     57 HN42        7.8990   -0.6250    0.3830 hn        1 BST      0.359300
     58 HO6         5.3360   -1.7380   -1.9840 ho        1 BST      0.426000
@<TRIPOS>BOND
     1    1   16 1   
     2    2    3 1   
     3    2    8 1   
     4    2    9 1   
     5    3    4 2   
     6    3    5 1   
     7    5    6 1   
     8    5   32 1   
     9    6    7 1   
    10    6   30 1   
    11    6   31 1   
    12    7    8 2   
    13    7   33 1   
    14    8   34 1   
    15    9   10 1   
    16    9   14 1   
    17    9   35 1   
    18   10   11 2   
    19   10   36 1   
    20   11   12 1   
    21   11   37 1   
    22   12   13 1   
    23   12   17 1   
    24   12   38 1   
    25   13   14 1   
    26   13   16 1   
    27   13   39 1   
    28   15   16 1   
    29   17   18 1   
    30   17   40 1   
    31   18   19 2   
    32   18   20 1   
    33   20   21 1   
    34   20   41 1   
    35   20   42 1   
    36   21   22 1   
    37   21   23 1   
    38   21   43 1   
    39   22   44 1   
    40   22   45 1   
    41   23   24 1   
    42   23   46 1   
    43   23   47 1   
    44   24   25 1   
    45   24   48 1   
    46   24   49 1   
    47   25   26 1   
    48   25   27 1   
    49   26   50 1   
    50   26   51 1   
    51   26   52 1   
    52   27   28 2   
    53   27   29 1   
    54   28   53 1   
    55   29   54 1   
    56   29   55 1   
    57   30   56 1   
    58   30   57 1   
    59   31   58 1   
@<TRIPOS>SUBSTRUCTURE
     1 BST         1 TEMP              0 ****  ****    0 ROOT
