@<TRIPOS>MOLECULE
BST
   58    57     1     0     0
SMALL
bcc


@<TRIPOS>ATOM
      1 O4         -2.6990   -2.8920   -1.9960 o         1 BST     -0.554000
      2 N1          1.6440   -5.1000    1.0580 n         1 BST     -0.294000
      3 C2          2.9510   -4.9960    0.4370 c2        1 BST      0.397000
      4 O2          3.1970   -4.0700   -0.3090 o         1 BST     -0.419000
      5 N3          4.0090   -5.7700    0.9830 n         1 BST     -0.360000
      6 C4          3.7130   -7.1320    1.2510 c3        1 BST      0.304000
      7 C5          2.4470   -7.3210    2.0380 c2        1 BST     -0.378000
      8 C6          1.3700   -6.2540    1.9060 c2        1 BST      0.052000
      9 C1'         0.7740   -3.9730    1.0830 c3        1 BST      0.206000
     10 C2'         1.4810   -2.8010    1.4920 c2        1 BST     -0.229000
     11 C3'         0.8550   -1.3620    1.0090 c1        1 BST     -0.122000
     12 C4'         0.1270   -1.3790   -0.2170 c2        1 BST      0.019000
     13 C5'        -0.6950   -2.8550   -0.4870 c3        1 BST     -0.068000
     14 O5'         0.0180   -3.7990   -0.3570 os        1 BST     -0.247000
     15 O3         -0.7630   -2.9250   -2.9980 o         1 BST     -0.554000
     16 C6'        -1.4430   -2.8670   -1.9380 c2        1 BST      0.338000
     17 N6         -0.7830   -0.2360   -0.3130 n         1 BST     -0.338000
     18 C7         -0.2990    1.0400   -0.8110 c2        1 BST      0.290000
     19 O7          0.8650    1.1580   -1.1480 o         1 BST     -0.405000
     20 C8         -1.2960    2.1940   -1.0630 c3        1 BST     -0.229000
     21 C9         -0.5650    3.5360   -0.9580 c3        1 BST     -0.014000
     22 N9          0.4370    3.6060   -1.9450 n3        1 BST     -0.346000
     23 C10        -1.5580    4.6680   -1.1650 c3        1 BST     -0.188000
     24 C11        -1.4970    5.6270    0.0250 c3        1 BST     -0.054000
     25 N12        -2.3630    6.7650   -0.2260 n3        1 BST     -0.277000
     26 C13        -1.9920    7.7470   -1.2070 c3        1 BST     -0.114000
     27 C14        -3.5770    6.9350    0.5440 c2        1 BST      0.149000
     28 N14        -3.5480    7.5980    1.6800 n1        1 BST     -0.324000
     29 N15        -4.7980    6.3870    0.0740 n3        1 BST     -0.336000
     30 N4          4.8070   -7.7870    1.8670 n3        1 BST     -0.356000
     31 O6          3.6270   -7.8730   -0.0060 oh        1 BST     -0.380000
     32 HN3         4.8060   -5.6390    0.5510 hn        1 BST      0.227000
     33 H5          2.4270   -7.9470    2.7930 ha        1 BST      0.154000
     34 H6          0.5160   -6.3440    2.3680 h4        1 BST      0.247000
     35 H1'         0.1330   -4.2500    1.7780 h2        1 BST      0.122000
     36 H2'         1.9960   -2.8340    2.3220 ha        1 BST      0.149000
     37 H3'         1.3350   -0.5450    1.2630 ha        1 BST      0.140000
     38 H4'         0.7340   -1.1930   -0.9690 h4        1 BST      0.118000
     39 H5'        -1.4640   -2.9280    0.1170 h1        1 BST      0.093000
     40 HN6        -1.6510   -0.3300   -0.0800 hn        1 BST      0.262000
     41 H81        -1.6790    2.1020   -1.9550 hc        1 BST      0.112500
     42 H82        -2.0110    2.1590   -0.3950 hc        1 BST      0.112500
     43 H9         -0.1570    3.6180   -0.0720 h1        1 BST      0.107000
     44 HN91        1.0290    4.2810   -1.7340 hn        1 BST      0.155000
     45 HN92        0.0520    3.7800   -2.7600 hn        1 BST      0.155000
     46 H101       -2.4610    4.2990   -1.2390 hc        1 BST      0.088000
     47 H102       -1.3350    5.1510   -1.9850 hc        1 BST      0.088000
     48 H111       -1.7950    5.1640    0.8330 h1        1 BST      0.104000
     49 H112       -0.5760    5.9380    0.1480 h1        1 BST      0.104000
     50 H131       -2.1180    8.6500   -0.8320 h1        1 BST      0.074333
     51 H132       -2.5560    7.6420   -2.0050 h1        1 BST      0.074333
     52 H133       -1.0520    7.6240   -1.4540 h1        1 BST      0.074333
     53 H14        -2.7660    7.9500    1.9810 DU        1 BST      0.157000
     54 H151       -4.9470    6.3100   -0.8190 hn        1 BST      0.186000
     55 H152       -5.4620    6.1740    0.6670 hn        1 BST      0.186000
     56 HN41        5.5470   -7.7030    1.3410 hn        1 BST      0.158500
     57 HN42        4.6110   -8.6720    1.9760 hn        1 BST      0.158500
     58 HO6         4.3960   -8.3260   -0.1410 ho        1 BST      0.224000
@<TRIPOS>BOND
     1    1   16 1   
     2    2    3 1   
     3    2    8 1   
     4    2    9 1   
     5    3    4 1   
     6    3    5 1   
     7    5    6 1   
     8    5   32 1   
     9    6    7 1   
    10    6   30 1   
    11    6   31 1   
    12    7    8 1   
    13    7   33 1   
    14    8   34 1   
    15    9   10 1   
    16    9   14 1   
    17    9   35 1   
    18   10   11 1   
    19   10   36 1   
    20   11   37 1   
    21   12   13 1   
    22   12   17 1   
    23   12   38 1   
    24   13   14 1   
    25   13   16 1   
    26   13   39 1   
    27   15   16 1   
    28   17   18 1   
    29   17   40 1   
    30   18   19 1   
    31   18   20 1   
    32   20   21 1   
    33   20   41 1   
    34   20   42 1   
    35   21   22 1   
    36   21   23 1   
    37   21   43 1   
    38   22   44 1   
    39   22   45 1   
    40   23   24 1   
    41   23   46 1   
    42   23   47 1   
    43   24   25 1   
    44   24   48 1   
    45   24   49 1   
    46   25   26 1   
    47   25   27 1   
    48   26   50 1   
    49   26   51 1   
    50   26   52 1   
    51   27   28 1   
    52   27   29 1   
    53   29   54 1   
    54   29   55 1   
    55   30   56 1   
    56   30   57 1   
    57   31   58 1   
@<TRIPOS>SUBSTRUCTURE
     1 BST         1 TEMP              0 ****  ****    0 ROOT
