@<TRIPOS>MOLECULE
BST
   63    64     1     0     0
SMALL
bcc


@<TRIPOS>ATOM
      1 O4          1.1050   -0.6190    0.7990 oh        1 BST     -0.525100
      2 N1          5.4870   -0.9210    2.4990 n         1 BST     -0.389000
      3 C2          5.7450    0.3400    1.8800 c         1 BST      0.823500
      4 O2          4.9830    1.3090    2.0380 o         1 BST     -0.586500
      5 N3          6.9100    0.4930    1.1030 n         1 BST     -0.569900
      6 C4          7.7680   -0.6200    0.7610 c3        1 BST      0.594600
      7 C5          7.3030   -1.9440    1.2950 c2        1 BST     -0.385200
      8 C6          6.2140   -2.0340    2.0970 c2        1 BST      0.102600
      9 C1'         4.3000   -1.0820    3.3360 c3        1 BST      0.368700
     10 C2'         4.3150   -0.2020    4.5570 c2        1 BST     -0.189200
     11 C3'         3.3620    0.6890    4.8400 c2        1 BST     -0.134200
     12 C4'         2.2280    0.9240    3.8830 c3        1 BST      0.103900
     13 C5'         1.9750   -0.4310    3.1460 c3        1 BST      0.047100
     14 O5'         3.1520   -0.8610    2.4750 os        1 BST     -0.450600
     15 O3         -0.2460    0.1320    2.3180 o         1 BST     -0.659000
     16 C6'         0.9020   -0.2920    2.0840 c         1 BST      0.704100
     17 N6          1.0300    1.4240    4.5300 n         1 BST     -0.511900
     18 C7          0.1480    2.2230    3.8560 c         1 BST      0.677100
     19 O7          0.4330    2.8250    2.7960 o         1 BST     -0.626100
     20 C8         -1.2710    2.3960    4.4170 c3        1 BST     -0.191400
     21 C9         -2.1910    2.9530    3.3120 c3        1 BST      0.144500
     22 N9         -2.1870    2.0340    2.1260 n4        1 BST     -0.845600
     23 C10        -3.6160    3.2070    3.8530 c3        1 BST     -0.129400
     24 C11        -3.6710    4.5870    4.5100 c3        1 BST      0.104800
     25 N12        -4.9540    4.9610    5.2240 n4        1 BST     -0.699400
     26 C13        -5.7100    3.7900    5.7610 c3        1 BST      0.065100
     27 C14        -5.8810    5.7900    4.3460 c2        1 BST      0.608100
     28 N14        -6.3210    5.5100    3.1860 n2        1 BST     -0.585100
     29 N15        -6.3560    7.0810    4.9570 n4        1 BST     -0.818600
     30 N4          9.2250   -0.3530    1.3300 n4        1 BST     -0.895600
     31 O6          8.0130   -0.5920   -0.6310 oh        1 BST     -0.580800
     32 HN3         6.9290    1.2910    0.4950 hn        1 BST      0.377500
     33 H5          7.8550   -2.8410    0.9770 ha        1 BST      0.202000
     34 H6          5.8650   -3.0180    2.4800 h4        1 BST      0.201000
     35 H1'         4.2430   -2.1700    3.6610 h2        1 BST      0.105700
     36 H2'         5.1740   -0.3630    5.2330 ha        1 BST      0.182000
     37 H3'         3.4000    1.3040    5.7550 ha        1 BST      0.176000
     38 H4'         2.5750    1.6890    3.1130 h1        1 BST      0.149700
     39 H5'         1.6490   -1.2250    3.8790 h1        1 BST      0.101700
     40 HN6         2.0060   -0.9620    0.6510 ho        1 BST      0.483000
     41 H81        -1.6620    1.4180    4.8040 hc        1 BST      0.101700
     42 H82        -1.2340    3.1280    5.2650 hc        1 BST      0.101700
     43 H9         -1.7360    3.9280    2.9410 hx        1 BST      0.138700
     44 HN91       -2.8290    2.3500    1.3990 hn        1 BST      0.491133
     45 HN92       -2.4080    1.0660    2.3980 hn        1 BST      0.491133
     46 H101       -3.8670    2.3990    4.5940 hc        1 BST      0.089700
     47 H102       -4.3710    3.1520    3.0230 hc        1 BST      0.089700
     48 H111       -3.4550    5.3870    3.7420 hx        1 BST      0.133200
     49 H112       -2.8580    4.6330    5.3020 hx        1 BST      0.133200
     50 H131       -6.5990    4.1500    6.3540 hx        1 BST      0.136700
     51 H132       -6.0660    3.1300    4.9240 hx        1 BST      0.136700
     52 H133       -5.0330    3.2030    6.4470 hx        1 BST      0.136700
     53 H14        -6.1120    4.6810    2.6660 hn        1 BST      0.528400
     54 H151       -5.5640    7.7170    5.1440 hn        1 BST      0.520133
     55 H152       -6.8840    6.9020    5.8270 hn        1 BST      0.520133
     56 HN41        9.6760    0.3830    0.7780 hn        1 BST      0.465800
     57 HN42        9.7640   -1.2160    1.2340 hn        1 BST      0.465800
     58 HO6         7.8080   -1.4610   -1.0150 ho        1 BST      0.482000
     59 H62         0.7530    0.9840    5.3780 hn        1 BST      0.334500
     60 H93        -1.2100    2.0080    1.7370 hn        1 BST      0.491133
     61 H121       -4.6550    5.5260    6.0390 hn        1 BST      0.477800
     62 H153       -7.0030    7.5650    4.2880 hn        1 BST      0.520133
     63 H43         9.1880   -0.0780    2.3110 hn        1 BST      0.465800
@<TRIPOS>BOND
     1    1   16 1   
     2    1   40 1   
     3    2    3 1   
     4    2    8 1   
     5    2    9 1   
     6    3    4 2   
     7    3    5 1   
     8    5    6 1   
     9    5   32 1   
    10    6    7 1   
    11    6   30 1   
    12    6   31 1   
    13    7    8 2   
    14    7   33 1   
    15    8   34 1   
    16    9   10 1   
    17    9   14 1   
    18    9   35 1   
    19   10   11 2   
    20   10   36 1   
    21   11   12 1   
    22   11   37 1   
    23   12   13 1   
    24   12   17 1   
    25   12   38 1   
    26   13   14 1   
    27   13   16 1   
    28   13   39 1   
    29   15   16 2   
    30   17   18 1   
    31   17   59 1   
    32   18   19 2   
    33   18   20 1   
    34   20   21 1   
    35   20   41 1   
    36   20   42 1   
    37   21   22 1   
    38   21   23 1   
    39   21   43 1   
    40   22   44 1   
    41   22   45 1   
    42   22   60 1   
    43   23   24 1   
    44   23   46 1   
    45   23   47 1   
    46   24   25 1   
    47   24   48 1   
    48   24   49 1   
    49   25   26 1   
    50   25   27 1   
    51   25   61 1   
    52   26   50 1   
    53   26   51 1   
    54   26   52 1   
    55   27   28 2   
    56   27   29 1   
    57   28   53 1   
    58   29   54 1   
    59   29   55 1   
    60   29   62 1   
    61   30   56 1   
    62   30   57 1   
    63   30   63 1   
    64   31   58 1   
@<TRIPOS>SUBSTRUCTURE
     1 BST         1 TEMP              0 ****  ****    0 ROOT
