@<TRIPOS>MOLECULE
BST
   63    64     1     0     0
SMALL
bcc


@<TRIPOS>ATOM
      1 O4          1.1760   -0.3110    0.5550 oh        1 BST     -0.525100
      2 N1          5.4600   -0.9500    2.4040 n         1 BST     -0.389000
      3 C2          5.7790    0.3690    1.9580 c         1 BST      0.823500
      4 O2          5.0330    1.3330    2.2000 o         1 BST     -0.587500
      5 N3          6.9840    0.5820    1.2620 ns        1 BST     -0.569900
      6 C4          7.8300   -0.5060    0.8240 c3        1 BST      0.594600
      7 C5          7.3080   -1.8710    1.1670 c2        1 BST     -0.385200
      8 C6          6.1790   -2.0260    1.9010 c2        1 BST      0.102600
      9 C1'         4.2300   -1.1770    3.1590 c3        1 BST      0.368700
     10 C2'         4.2050   -0.4550    4.4790 c2        1 BST     -0.189200
     11 C3'         3.2620    0.4230    4.8260 c2        1 BST     -0.134200
     12 C4'         2.1820    0.8080    3.8540 c3        1 BST      0.103900
     13 C5'         1.9330   -0.4380    2.9450 c3        1 BST      0.047100
     14 O5'         3.1310   -0.8180    2.2810 os        1 BST     -0.450600
     15 O3         -0.2300    0.2880    2.0920 o         1 BST     -0.659000
     16 C6'         0.9180   -0.1380    1.8600 c         1 BST      0.704100
     17 N6          0.9660    1.2610    4.5030 ns        1 BST     -0.511900
     18 C7          0.1380    2.1620    3.8930 c         1 BST      0.677100
     19 O7          0.4890    2.8810    2.9300 o         1 BST     -0.626100
     20 C8         -1.3020    2.3080    4.4050 c3        1 BST     -0.191400
     21 C9         -2.1530    3.0230    3.3370 c3        1 BST      0.144500
     22 N9         -2.1130    2.2570    2.0470 nz        1 BST     -0.845600
     23 C10        -3.5970    3.2520    3.8390 c3        1 BST     -0.129400
     24 C11        -3.6500    4.5420    4.6580 c3        1 BST      0.104800
     25 N12        -4.9580    4.8650    5.3540 nx        1 BST     -0.699400
     26 C13        -5.7670    3.6600    5.7080 c3        1 BST      0.065100
     27 C14        -5.8210    5.8210    4.5420 c2        1 BST      0.608100
     28 N14        -6.2130    5.6950    3.3390 n2        1 BST     -0.585100
     29 N15        -6.2900    7.0440    5.2830 nz        1 BST     -0.818600
     30 N4          9.2640   -0.3560    1.4880 nz        1 BST     -0.895600
     31 O6          8.1450   -0.3150   -0.5410 oh        1 BST     -0.580800
     32 HN3         7.0520    1.4470    0.7590 hn        1 BST      0.377500
     33 H5          7.8540   -2.7380    0.7660 ha        1 BST      0.202000
     34 H6          5.7880   -3.0390    2.1420 h4        1 BST      0.201000
     35 H1'         4.1300   -2.2950    3.3440 h2        1 BST      0.105700
     36 H2'         5.0260   -0.7230    5.1680 ha        1 BST      0.182000
     37 H3'         3.2690    0.9200    5.8110 ha        1 BST      0.176000
     38 H4'         2.5850    1.6510    3.2020 h1        1 BST      0.149700
     39 H5'         1.5520   -1.3060    3.5580 h1        1 BST      0.101700
     40 HN6         0.6370    0.7280    5.2770 hn        1 BST      0.334500
     41 H81        -1.7360    1.3020    4.6500 hc        1 BST      0.101700
     42 H82        -1.2900    2.9290    5.3380 hc        1 BST      0.101700
     43 H9         -1.6570    4.0220    3.1100 hx        1 BST      0.138700
     44 HN91       -1.1200    2.2490    1.7040 hn        1 BST      0.491133
     45 HN92       -2.3710    1.2700    2.1880 hn        1 BST      0.491133
     46 H101       -4.3110    3.3210    2.9750 hc        1 BST      0.089700
     47 H102       -3.9030    2.3670    4.4630 hc        1 BST      0.089700
     48 H111       -3.3790    5.4240    4.0040 hx        1 BST      0.133200
     49 H112       -2.8770    4.4670    5.4860 hx        1 BST      0.133200
     50 H131       -6.6750    3.9710    6.3000 hx        1 BST      0.136700
     51 H132       -6.0960    3.1170    4.7810 hx        1 BST      0.136700
     52 H133       -5.1380    2.9740    6.3460 hx        1 BST      0.136700
     53 H14        -6.0020    4.9280    2.7330 hn        1 BST      0.528400
     54 H151       -6.8630    6.7800    6.1010 hn        1 BST      0.520133
     55 H152       -6.8910    7.6250    4.6500 hn        1 BST      0.520133
     56 HN41        9.7860   -1.2160    1.3100 hn        1 BST      0.465800
     57 HN42        9.7590    0.4290    1.0530 hn        1 BST      0.465800
     58 HO6         7.9380   -1.1240   -1.0390 ho        1 BST      0.482000
     59 H62         2.0750   -0.6600    0.4070 ho        1 BST      0.483000
     60 H93        -2.7110    2.6780    1.3360 hn        1 BST      0.491133
     61 H121       -4.6860    5.3170    6.2440 hn        1 BST      0.477800
     62 H153       -5.4920    7.6280    5.5800 hn        1 BST      0.520133
     63 H43         9.1850   -0.2020    2.4930 hn        1 BST      0.465800
@<TRIPOS>BOND
     1    1   16 1   
     2    1   59 1   
     3    2    3 1   
     4    2    8 1   
     5    2    9 1   
     6    3    4 2   
     7    3    5 1   
     8    5    6 1   
     9    5   32 1   
    10    6    7 1   
    11    6   30 1   
    12    6   31 1   
    13    7    8 2   
    14    7   33 1   
    15    8   34 1   
    16    9   10 1   
    17    9   14 1   
    18    9   35 1   
    19   10   11 2   
    20   10   36 1   
    21   11   12 1   
    22   11   37 1   
    23   12   13 1   
    24   12   17 1   
    25   12   38 1   
    26   13   14 1   
    27   13   16 1   
    28   13   39 1   
    29   15   16 2   
    30   17   18 1   
    31   17   40 1   
    32   18   19 2   
    33   18   20 1   
    34   20   21 1   
    35   20   41 1   
    36   20   42 1   
    37   21   22 1   
    38   21   23 1   
    39   21   43 1   
    40   22   44 1   
    41   22   45 1   
    42   22   60 1   
    43   23   24 1   
    44   23   46 1   
    45   23   47 1   
    46   24   25 1   
    47   24   48 1   
    48   24   49 1   
    49   25   26 1   
    50   25   27 1   
    51   25   61 1   
    52   26   50 1   
    53   26   51 1   
    54   26   52 1   
    55   27   28 2   
    56   27   29 1   
    57   28   53 1   
    58   29   54 1   
    59   29   55 1   
    60   29   62 1   
    61   30   56 1   
    62   30   57 1   
    63   30   63 1   
    64   31   58 1   
@<TRIPOS>SUBSTRUCTURE
     1 BST         1 TEMP              0 ****  ****    0 ROOT
