@<TRIPOS>MOLECULE
BSU
   28    29     1     0     0
SMALL
bcc


@<TRIPOS>ATOM
      1 N7          0.1090    0.2150   -0.2130 n         1 BSU     -0.462100
      2 C8          1.5030   -0.0140   -0.2700 c         1 BSU      0.766100
      3 N9          2.1550   -0.2350    0.9660 n         1 BSU     -0.462100
      4 O11         2.1260   -0.0210   -1.3530 o         1 BSU     -0.606100
      5 C5         -0.7170    0.1960   -1.3560 ca        1 BSU      0.058600
      6 C4         -2.0520   -0.2550   -1.2230 ca        1 BSU     -0.156000
      7 C3         -2.9170   -0.2140   -2.3110 ca        1 BSU     -0.109000
      8 C2         -2.4800    0.2610   -3.5470 ca        1 BSU     -0.150000
      9 C1         -1.1660    0.7010   -3.6880 ca        1 BSU     -0.109000
     10 C6         -0.2840    0.6770   -2.6100 ca        1 BSU     -0.156000
     11 C10         3.5590   -0.2220    1.1030 ca        1 BSU      0.058600
     12 C16         4.1190    0.2380    2.3190 ca        1 BSU     -0.156000
     13 C15         5.4940    0.1920    2.5190 ca        1 BSU     -0.109000
     14 C14         6.3390   -0.2970    1.5240 ca        1 BSU     -0.150000
     15 C13         5.7960   -0.7450    0.3210 ca        1 BSU     -0.109000
     16 C12         4.4210   -0.7160    0.1020 ca        1 BSU     -0.156000
     17 H22        -0.3620   -0.0250    0.6330 hn        1 BSU      0.305500
     18 H23         1.6630    0.0160    1.7960 hn        1 BSU      0.305500
     19 H41        -2.4210   -0.6370   -0.2590 ha        1 BSU      0.148000
     20 H31        -3.9530   -0.5650   -2.1920 ha        1 BSU      0.134000
     21 H21        -3.1680    0.2860   -4.4040 ha        1 BSU      0.133000
     22 H11        -0.8120    1.0750   -4.6610 ha        1 BSU      0.134000
     23 H61         0.7530    1.0230   -2.7470 ha        1 BSU      0.148000
     24 H161        3.4740    0.6310    3.1200 ha        1 BSU      0.148000
     25 H151        5.9140    0.5490    3.4710 ha        1 BSU      0.134000
     26 H141        7.4260   -0.3260    1.6860 ha        1 BSU      0.133000
     27 H131        6.4570   -1.1300   -0.4700 ha        1 BSU      0.134000
     28 H121        4.0160   -1.0690   -0.8600 ha        1 BSU      0.148000
@<TRIPOS>BOND
     1    1    2 1   
     2    1    5 1   
     3    1   17 1   
     4    2    3 1   
     5    2    4 2   
     6    3   11 1   
     7    3   18 1   
     8    5    6 ar  
     9    5   10 ar  
    10    6    7 ar  
    11    6   19 1   
    12    7    8 ar  
    13    7   20 1   
    14    8    9 ar  
    15    8   21 1   
    16    9   10 ar  
    17    9   22 1   
    18   10   23 1   
    19   11   12 ar  
    20   11   16 ar  
    21   12   13 ar  
    22   12   24 1   
    23   13   14 ar  
    24   13   25 1   
    25   14   15 ar  
    26   14   26 1   
    27   15   16 ar  
    28   15   27 1   
    29   16   28 1   
@<TRIPOS>SUBSTRUCTURE
     1 BSU         1 TEMP              0 ****  ****    0 ROOT
