@<TRIPOS>MOLECULE
BSU
   28    29     1     0     0
SMALL
bcc


@<TRIPOS>ATOM
      1 N7          0.9460    0.1710    1.1880 n         1 BSU     -0.462100
      2 C8          0.1990   -0.0030   -0.0000 c         1 BSU      0.766100
      3 N9          0.9420   -0.1860   -1.1890 n         1 BSU     -0.462100
      4 O11        -1.0510    0.0050    0.0010 o         1 BSU     -0.606100
      5 C5          0.3670    0.1090    2.4730 ca        1 BSU      0.058600
      6 C4          1.1430   -0.3930    3.5450 ca        1 BSU     -0.156000
      7 C3          0.6320   -0.3970    4.8380 ca        1 BSU     -0.109000
      8 C2         -0.6520    0.0820    5.0940 ca        1 BSU     -0.150000
      9 C1         -1.4250    0.5710    4.0430 ca        1 BSU     -0.109000
     10 C6         -0.9310    0.5930    2.7420 ca        1 BSU     -0.156000
     11 C10         0.3610   -0.1170   -2.4730 ca        1 BSU      0.058600
     12 C16         1.1430    0.3750   -3.5460 ca        1 BSU     -0.156000
     13 C15         0.6300    0.3860   -4.8380 ca        1 BSU     -0.109000
     14 C14        -0.6610   -0.0760   -5.0930 ca        1 BSU     -0.150000
     15 C13        -1.4380   -0.5560   -4.0410 ca        1 BSU     -0.109000
     16 C12        -0.9430   -0.5840   -2.7400 ca        1 BSU     -0.156000
     17 H22         1.9110   -0.0790    1.1650 hn        1 BSU      0.305500
     18 H23         1.9100    0.0510   -1.1670 hn        1 BSU      0.305500
     19 H41         2.1580   -0.7790    3.3690 ha        1 BSU      0.148000
     20 H31         1.2480   -0.7870    5.6610 ha        1 BSU      0.134000
     21 H21        -1.0510    0.0710    6.1180 ha        1 BSU      0.133000
     22 H11        -2.4400    0.9490    4.2370 ha        1 BSU      0.134000
     23 H61        -1.5630    0.9780    1.9250 ha        1 BSU      0.148000
     24 H161        2.1630    0.7480   -3.3720 ha        1 BSU      0.148000
     25 H151        1.2500    0.7670   -5.6630 ha        1 BSU      0.134000
     26 H141       -1.0610   -0.0600   -6.1170 ha        1 BSU      0.133000
     27 H131       -2.4590   -0.9200   -4.2340 ha        1 BSU      0.134000
     28 H121       -1.5790   -0.9610   -1.9230 ha        1 BSU      0.148000
@<TRIPOS>BOND
     1    1    2 1   
     2    1    5 1   
     3    1   17 1   
     4    2    3 1   
     5    2    4 2   
     6    3   11 1   
     7    3   18 1   
     8    5    6 ar  
     9    5   10 ar  
    10    6    7 ar  
    11    6   19 1   
    12    7    8 ar  
    13    7   20 1   
    14    8    9 ar  
    15    8   21 1   
    16    9   10 ar  
    17    9   22 1   
    18   10   23 1   
    19   11   12 ar  
    20   11   16 ar  
    21   12   13 ar  
    22   12   24 1   
    23   13   14 ar  
    24   13   25 1   
    25   14   15 ar  
    26   14   26 1   
    27   15   16 ar  
    28   15   27 1   
    29   16   28 1   
@<TRIPOS>SUBSTRUCTURE
     1 BSU         1 TEMP              0 ****  ****    0 ROOT
