@<TRIPOS>MOLECULE
BSU
   30    31     1     0     0
SMALL
bcc


@<TRIPOS>ATOM
      1 N7          1.4560    1.3750   -1.2140 n4        1 BSU     -0.488200
      2 C8          2.4520    0.4470   -1.8350 c         1 BSU      0.485100
      3 N9          2.6710   -0.8810   -1.1810 n4        1 BSU     -0.488200
      4 O11         3.0660    0.7630   -2.8410 o         1 BSU     -0.302100
      5 C5          0.0850    0.8650   -1.3550 ca        1 BSU     -0.136400
      6 C4         -0.5910    0.3740   -0.2200 ca        1 BSU     -0.100500
      7 C3         -1.9170   -0.0250   -0.3500 ca        1 BSU     -0.089500
      8 C2         -2.5690    0.0610   -1.5860 ca        1 BSU     -0.028000
      9 C1         -1.8890    0.5510   -2.7050 ca        1 BSU     -0.089500
     10 C6         -0.5620    0.9610   -2.6030 ca        1 BSU     -0.100500
     11 C10         3.3340   -0.7350    0.1220 ca        1 BSU     -0.136400
     12 C16         2.6000   -0.9710    1.3030 ca        1 BSU     -0.100500
     13 C15         3.2620   -0.9140    2.5260 ca        1 BSU     -0.089500
     14 C14         4.6310   -0.6310    2.5820 ca        1 BSU     -0.028000
     15 C13         5.3490   -0.4010    1.4050 ca        1 BSU     -0.089500
     16 C12         4.7140   -0.4550    0.1660 ca        1 BSU     -0.100500
     17 H22         1.6770    1.5220   -0.2150 hn        1 BSU      0.507300
     18 H23         3.2850   -1.4380   -1.8110 hn        1 BSU      0.507300
     19 H41        -0.1100    0.3330    0.7720 ha        1 BSU      0.165000
     20 H31        -2.4640   -0.4000    0.5360 ha        1 BSU      0.198000
     21 H21        -3.6280   -0.2510   -1.6750 ha        1 BSU      0.201000
     22 H11        -2.4080    0.6290   -3.6790 ha        1 BSU      0.198000
     23 H61        -0.0520    1.3670   -3.4950 ha        1 BSU      0.165000
     24 H161        1.5290   -1.2330    1.2800 ha        1 BSU      0.165000
     25 H151        2.7010   -1.1110    3.4580 ha        1 BSU      0.198000
     26 H141        5.1490   -0.6000    3.5610 ha        1 BSU      0.201000
     27 H131        6.4340   -0.1880    1.4500 ha        1 BSU      0.198000
     28 H121        5.3060   -0.2920   -0.7520 ha        1 BSU      0.165000
     29 H72         1.5290    2.2860   -1.7140 hn        1 BSU      0.507300
     30 H92         1.7700   -1.3760   -1.0660 hn        1 BSU      0.507300
@<TRIPOS>BOND
     1    1    2 1   
     2    1    5 1   
     3    1   17 1   
     4    1   29 1   
     5    2    3 1   
     6    2    4 2   
     7    3   11 1   
     8    3   18 1   
     9    3   30 1   
    10    5    6 ar  
    11    5   10 ar  
    12    6    7 ar  
    13    6   19 1   
    14    7    8 ar  
    15    7   20 1   
    16    8    9 ar  
    17    8   21 1   
    18    9   10 ar  
    19    9   22 1   
    20   10   23 1   
    21   11   12 ar  
    22   11   16 ar  
    23   12   13 ar  
    24   12   24 1   
    25   13   14 ar  
    26   13   25 1   
    27   14   15 ar  
    28   14   26 1   
    29   15   16 ar  
    30   15   27 1   
    31   16   28 1   
@<TRIPOS>SUBSTRUCTURE
     1 BSU         1 TEMP              0 ****  ****    0 ROOT
