@<TRIPOS>MOLECULE
BSU
   28    25     1     0     0
SMALL
bcc


@<TRIPOS>ATOM
      1 N7         -1.6360   -0.1690    0.4010 n         1 BSU     -0.333000
      2 C8         -0.2200   -0.1070    0.3910 c2        1 BSU      0.414000
      3 N9          0.5000   -0.1590    1.6110 n         1 BSU     -0.333000
      4 O11         0.3740    0.0240   -0.6600 o         1 BSU     -0.373000
      5 C5         -2.3590   -0.0770   -0.8150 c2        1 BSU      0.083000
      6 C4         -2.8840   -1.2210   -1.3960 c1        1 BSU     -0.164000
      7 C3         -3.6440   -1.1250   -2.5510 c1        1 BSU     -0.129750
      8 C2         -3.8790    0.1150   -3.1250 c1        1 BSU     -0.129750
      9 C1         -3.3540    1.2580   -2.5440 c1        1 BSU     -0.105500
     10 C6         -2.5940    1.1620   -1.3900 c2        1 BSU     -0.164000
     11 C10         1.9150   -0.0580    1.6040 c2        1 BSU      0.083000
     12 C16         2.6910   -1.2060    1.5800 c2        1 BSU     -0.164000
     13 C15         4.0720   -1.1100    1.6320 c1        1 BSU     -0.105500
     14 C14         4.6780    0.1340    1.7080 c1        1 BSU     -0.129750
     15 C13         3.9020    1.2820    1.7320 c1        1 BSU     -0.129750
     16 C12         2.5210    1.1860    1.6800 c1        1 BSU     -0.164000
     17 H22        -2.0830   -0.2740    1.1900 hn        1 BSU      0.225000
     18 H23         0.0550   -0.2660    2.4000 hn        1 BSU      0.225000
     19 H41        -2.7190   -2.0930   -0.9920 ha        1 BSU      0.149500
     20 H31        -4.0150   -1.9300   -2.9600 ha        1 BSU      0.133000
     21 H21        -4.4150    0.1820   -3.9380 ha        1 BSU      0.133000
     22 H11        -3.5190    2.1310   -2.9490 ha        1 BSU      0.133000
     23 H61        -2.2240    1.9680   -0.9810 ha        1 BSU      0.149500
     24 H161        2.2640   -2.0830    1.5270 ha        1 BSU      0.149500
     25 H151        4.6190   -1.9190    1.6150 ha        1 BSU      0.133000
     26 H141        5.6510    0.2010    1.7450 ha        1 BSU      0.133000
     27 H131        4.3290    2.1580    1.7860 ha        1 BSU      0.133000
     28 H121        1.9740    1.9950    1.6970 ha        1 BSU      0.149500
@<TRIPOS>BOND
     1    1    2 1   
     2    1    5 1   
     3    1   17 1   
     4    2    3 1   
     5    2    4 1   
     6    3   11 1   
     7    3   18 1   
     8    5    6 1   
     9    5   10 1   
    10    6   19 1   
    11    7    8 1   
    12    7   20 1   
    13    8   21 1   
    14    9   10 1   
    15    9   22 1   
    16   10   23 1   
    17   11   12 1   
    18   11   16 1   
    19   12   13 1   
    20   12   24 1   
    21   13   25 1   
    22   14   15 1   
    23   14   26 1   
    24   15   27 1   
    25   16   28 1   
@<TRIPOS>SUBSTRUCTURE
     1 BSU         1 TEMP              0 ****  ****    0 ROOT
