@<TRIPOS>MOLECULE
BSY
    5     4     1     0     0
SMALL
bcc


@<TRIPOS>ATOM
      1 O1          0.5950    0.6300   -0.0790 o         1 BSY     -0.565400
      2 O2          2.6250    0.2170    1.2520 oh        1 BSY     -0.684800
      3 O3          1.2870   -1.6360    0.3370 o         1 BSY     -0.565400
      4 SE          1.7650   -0.3050   -0.1650 s4        1 BSY      0.425600
      5 H2          2.0680    0.1890    2.0210 ho        1 BSY      0.389000
@<TRIPOS>BOND
     1    1    4 1   
     2    2    4 1   
     3    2    5 1   
     4    3    4 1   
@<TRIPOS>SUBSTRUCTURE
     1 BSY         1 TEMP              0 ****  ****    0 ROOT
