@<TRIPOS>MOLECULE
BSZ
   19    19     1     0     0
SMALL
bcc


@<TRIPOS>ATOM
      1 S           2.6480    0.0290    0.0090 s6        1 BSZ      1.461100
      2 CL         -2.3920    2.0510    0.0240 cl        1 BSZ     -0.124400
      3 CG          0.8840   -0.2160    0.0210 ca        1 BSZ     -0.272500
      4 CH         -3.7800   -2.0770   -0.0520 c3        1 BSZ      0.120700
      5 OH         -3.2740   -0.7520   -0.0020 os        1 BSZ     -0.328900
      6 CZ         -1.8920   -0.6290    0.0070 ca        1 BSZ      0.127100
      7 OB1         2.8360    1.2860    0.6260 o         1 BSZ     -0.743533
      8 OB2         3.1570   -1.0670    0.7430 o         1 BSZ     -0.743533
      9 CD1         0.3570   -1.5050    0.0200 ca        1 BSZ     -0.012000
     10 CD2         0.0130    0.8700    0.0280 ca        1 BSZ     -0.010000
     11 CE1        -1.0190   -1.7240    0.0120 ca        1 BSZ     -0.232000
     12 CE2        -1.3730    0.6810    0.0190 ca        1 BSZ     -0.037600
     13 OXT         3.0070    0.0070   -1.3560 o         1 BSZ     -0.743533
     14 HH         -3.4330   -2.6030   -0.9760 h1        1 BSZ      0.034367
     15 HHA        -3.4790   -2.6520    0.8580 h1        1 BSZ      0.034367
     16 HHB        -4.8900   -1.9330   -0.0750 h1        1 BSZ      0.034367
     17 HD1         1.0500   -2.3640    0.0400 ha        1 BSZ      0.150000
     18 HD2         0.4330    1.8910    0.0540 ha        1 BSZ      0.165000
     19 HE1        -1.4060   -2.7510    0.0110 ha        1 BSZ      0.121000
@<TRIPOS>BOND
     1    1    3 1   
     2    1    7 1   
     3    1    8 1   
     4    1   13 1   
     5    2   12 1   
     6    3    9 ar  
     7    3   10 ar  
     8    4    5 1   
     9    4   14 1   
    10    4   15 1   
    11    4   16 1   
    12    5    6 1   
    13    6   11 ar  
    14    6   12 ar  
    15    9   11 ar  
    16    9   17 1   
    17   10   12 ar  
    18   10   18 1   
    19   11   19 1   
@<TRIPOS>SUBSTRUCTURE
     1 BSZ         1 TEMP              0 ****  ****    0 ROOT
