@<TRIPOS>MOLECULE
BSZ
   19    16     1     0     0
SMALL
bcc


@<TRIPOS>ATOM
      1 S          -3.3480    0.2390   -0.2940 ss        1 BSZ      2.873000
      2 CL          1.4360    0.1190   -2.6710 cl        1 BSZ     -0.053000
      3 CG         -1.5780    0.1990   -0.2160 c1        1 BSZ     -0.689000
      4 CH          3.4320   -0.5050    0.5010 c3        1 BSZ     -0.069000
      5 OH          2.5080    0.4250   -0.0190 os        1 BSZ     -0.231000
      6 CZ          1.1650    0.0550    0.1630 c2        1 BSZ      0.046000
      7 OB1        -3.8440   -0.0760   -1.6850 o         1 BSZ     -1.066500
      8 OB2        -3.9570   -0.8930    0.4980 o         1 BSZ     -1.066500
      9 CD1        -1.0540    0.2040    1.0670 c2        1 BSZ     -0.036000
     10 CD2        -0.7300    0.1220   -1.3100 c1        1 BSZ     -0.031000
     11 CE1         0.3170    0.1320    1.2570 c2        1 BSZ     -0.170000
     12 CE2         0.6410    0.0500   -1.1210 c1        1 BSZ     -0.104000
     13 OXT        -3.8620    1.5780    0.1800 os        1 BSZ     -1.060000
     14 HH          3.4250   -0.4600    1.4820 h1        1 BSZ      0.071333
     15 HHA         4.3310   -0.2920    0.1700 h1        1 BSZ      0.071333
     16 HHB         3.1830   -1.4100    0.2130 h1        1 BSZ      0.071333
     17 HD1        -1.6520    0.2450    1.8380 ha        1 BSZ      0.151000
     18 HD2        -1.0980    0.1320   -2.2140 ha        1 BSZ      0.164000
     19 HE1         0.6860    0.1360    2.1600 ha        1 BSZ      0.128000
@<TRIPOS>BOND
     1    1    7 1   
     2    1    8 1   
     3    2   12 1   
     4    3    9 1   
     5    3   10 1   
     6    4    5 1   
     7    4   14 1   
     8    4   15 1   
     9    4   16 1   
    10    5    6 1   
    11    6   11 1   
    12    6   12 1   
    13    9   11 1   
    14    9   17 1   
    15   10   18 1   
    16   11   19 1   
@<TRIPOS>SUBSTRUCTURE
     1 BSZ         1 TEMP              0 ****  ****    0 ROOT
