@<TRIPOS>MOLECULE
BSZ
   19    19     1     0     0
SMALL
bcc


@<TRIPOS>ATOM
      1 S          -0.0580    0.0760   -0.0290 s6        1 BSZ      1.461100
      2 Cl          4.6890   -0.0420   -2.6630 cl        1 BSZ     -0.124400
      3 CG          1.7220    0.0280   -0.0050 ca        1 BSZ     -0.272500
      4 CH          6.5830    0.0060    1.2590 c3        1 BSZ      0.120700
      5 OH          5.9150   -0.0320    0.0070 os        1 BSZ     -0.328900
      6 CZ          4.5290   -0.0130    0.0580 ca        1 BSZ      0.127100
      7 OB1        -0.4130   -0.5390   -1.2500 o         1 BSZ     -0.743533
      8 OB2        -0.4400   -0.6460    1.1250 o         1 BSZ     -0.743533
      9 CD1         2.4060    0.0190    1.2080 ca        1 BSZ     -0.012000
     10 CD2         2.4510    0.0030   -1.1910 ca        1 BSZ     -0.010000
     11 CE1         3.7990    0.0000    1.2530 ca        1 BSZ     -0.232000
     12 CE2         3.8490   -0.0150   -1.1770 ca        1 BSZ     -0.037600
     13 OXT        -0.3830    1.4480    0.0330 o         1 BSZ     -0.743533
     14 HH          6.3240    0.9360    1.8220 h1        1 BSZ      0.034367
     15 HHA         6.3370   -0.8980    1.8690 h1        1 BSZ      0.034367
     16 HHB         7.6660    0.0050    0.9780 h1        1 BSZ      0.034367
     17 HD1         1.8260    0.0140    2.1470 ha        1 BSZ      0.150000
     18 HD2         1.9060   -0.0150   -2.1520 ha        1 BSZ      0.164000
     19 HE1         4.3110   -0.0060    2.2240 ha        1 BSZ      0.121000
@<TRIPOS>BOND
     1    1    3 1   
     2    1    7 1   
     3    1    8 1   
     4    1   13 1   
     5    2   12 1   
     6    3    9 ar  
     7    3   10 ar  
     8    4    5 1   
     9    4   14 1   
    10    4   15 1   
    11    4   16 1   
    12    5    6 1   
    13    6   11 ar  
    14    6   12 ar  
    15    9   11 ar  
    16    9   17 1   
    17   10   12 ar  
    18   10   18 1   
    19   11   19 1   
@<TRIPOS>SUBSTRUCTURE
     1 BSZ         1 TEMP              0 ****  ****    0 ROOT
