@<TRIPOS>MOLECULE
BT1
   74    79     1     0     0
SMALL
bcc


@<TRIPOS>ATOM
      1 C1          0.4520   -0.4250    0.4080 ca        1 BT1     -0.121000
      2 C2          1.8270   -0.2880    0.4930 ca        1 BT1     -0.093000
      3 C3          2.4320   -0.2270    1.7540 ca        1 BT1     -0.085100
      4 C4          1.6370   -0.3100    2.9300 ca        1 BT1     -0.057800
      5 C5          0.2430   -0.4430    2.8260 ca        1 BT1     -0.093000
      6 C6         -0.3380   -0.5000    1.5710 ca        1 BT1     -0.127000
      7 S1          4.0610   -0.0490    2.1420 ss        1 BT1      0.042500
      8 C8          3.7870   -0.0760    3.8200 cc        1 BT1      0.023400
      9 C9          2.4520   -0.2300    4.1200 cd        1 BT1     -0.165400
     10 C7          1.8620   -0.2900    5.4710 c         1 BT1      0.629900
     11 C10         4.8990    0.0660    4.7330 ca        1 BT1     -0.092800
     12 C12         6.0900   -0.6470    4.5090 ca        1 BT1     -0.073500
     13 C14         7.1720   -0.5080    5.3650 ca        1 BT1     -0.185500
     14 C16         7.0720    0.3620    6.4690 ca        1 BT1      0.142100
     15 C18         5.8930    1.0800    6.7030 ca        1 BT1     -0.185500
     16 C20         4.8150    0.9270    5.8350 ca        1 BT1     -0.073500
     17 O2          8.2030    0.4280    7.2550 os        1 BT1     -0.336900
     18 C24         8.1260    1.2920    8.3970 c3        1 BT1      0.124400
     19 C11         0.9540   -1.7550    7.2720 ca        1 BT1     -0.014000
     20 C13         1.5630   -1.6270    6.0100 ca        1 BT1     -0.332900
     21 C15         1.8810   -2.8060    5.3050 ca        1 BT1      0.489200
     22 N1          1.6360   -4.0450    5.7630 nb        1 BT1     -0.742000
     23 C19         1.0450   -4.1410    6.9850 ca        1 BT1      0.658600
     24 C21         0.6840   -3.0170    7.7790 ca        1 BT1     -0.284300
     25 O3          0.7500   -5.3570    7.5530 os        1 BT1     -0.453100
     26 C25         1.0750   -6.5420    6.8000 c3        1 BT1      0.135400
     27 C17        -2.6080   -7.8200    8.9910 c3        1 BT1     -0.096400
     28 C23        -2.1490   -9.2630    9.1510 c3        1 BT1     -0.096400
     29 C26        -0.9680   -9.4440    8.1830 c3        1 BT1      0.154300
     30 N2         -0.6830   -8.1740    7.5070 n3        1 BT1     -0.723600
     31 C27        -1.7120   -7.2080    7.9020 c3        1 BT1      0.154300
     32 C22        11.6620    2.1240    9.5470 c3        1 BT1      0.152800
     33 N3         10.4640    2.1240    8.7000 n3        1 BT1     -0.722600
     34 C28        10.8950    1.9920    7.3060 c3        1 BT1      0.152800
     35 C29        12.4090    1.7260    7.2540 c3        1 BT1     -0.096400
     36 C30        12.9050    1.8400    8.6880 c3        1 BT1     -0.096400
     37 C33         0.6820   -7.7200    7.7010 c3        1 BT1      0.159800
     38 C34         9.4710    1.1510    9.1210 c3        1 BT1      0.163800
     39 O1          1.6250    0.7380    6.1220 o         1 BT1     -0.534100
     40 H1         -0.0360   -0.4730   -0.5770 ha        1 BT1      0.135000
     41 H2          2.4420   -0.2260   -0.4170 ha        1 BT1      0.138000
     42 H5         -0.3690   -0.4960    3.7380 ha        1 BT1      0.142000
     43 H6         -1.4290   -0.6030    1.4740 ha        1 BT1      0.136000
     44 H12         6.1630   -1.3270    3.6450 ha        1 BT1      0.150000
     45 H14         8.1040   -1.0650    5.1980 ha        1 BT1      0.147000
     46 H18         5.8030    1.7630    7.5590 ha        1 BT1      0.147000
     47 H20         3.8820    1.4880    6.0180 ha        1 BT1      0.150000
     48 H241        7.3010    0.9390    9.0700 h1        1 BT1      0.052700
     49 H242        7.9250    2.3430    8.0630 h1        1 BT1      0.052700
     50 H11         0.6990   -0.8470    7.8450 ha        1 BT1      0.162000
     51 H15         2.3610   -2.7580    4.3080 h4        1 BT1      0.038100
     52 H21         0.2110   -3.1690    8.7570 ha        1 BT1      0.161000
     53 H251        2.1800   -6.5660    6.6140 h1        1 BT1      0.065200
     54 H252        0.5200   -6.5340    5.8290 h1        1 BT1      0.065200
     55 H172       -3.6810   -7.7690    8.6850 hc        1 BT1      0.046450
     56 H231       -2.9700   -9.9770    8.8980 hc        1 BT1      0.046450
     57 H232       -1.8300   -9.4690   10.2010 hc        1 BT1      0.046450
     58 H261       -1.2350  -10.1840    7.3800 h1        1 BT1      0.049200
     59 H262       -0.0740   -9.8440    8.7340 h1        1 BT1      0.049200
     60 H271       -1.2640   -6.2400    8.2570 h1        1 BT1      0.049200
     61 H272       -2.3200   -6.9900    6.9810 h1        1 BT1      0.049200
     62 H221       11.5910    1.3800   10.3860 h1        1 BT1      0.050200
     63 H222       11.7320    3.1490   10.0040 h1        1 BT1      0.050200
     64 H281       10.6600    2.9700    6.8020 h1        1 BT1      0.050200
     65 H282       10.3320    1.1820    6.7680 h1        1 BT1      0.050200
     66 H291       12.6130    0.7090    6.8390 hc        1 BT1      0.046450
     67 H292       12.9120    2.4710    6.5910 hc        1 BT1      0.046450
     68 H301       13.4020    0.8960    9.0180 hc        1 BT1      0.046450
     69 H302       13.6460    2.6690    8.7940 hc        1 BT1      0.046450
     70 H331        1.3630   -8.5760    7.4280 h1        1 BT1      0.046700
     71 H332        0.8970   -7.4310    8.7720 h1        1 BT1      0.046700
     72 H341        9.2730    1.3290   10.2170 h1        1 BT1      0.046700
     73 H342        9.8250    0.0860    8.9980 h1        1 BT1      0.046700
     74 H171       -2.5000   -7.2560    9.9490 hc        1 BT1      0.046450
@<TRIPOS>BOND
     1    1    2 ar  
     2    1    6 ar  
     3    1   40 1   
     4    2    3 ar  
     5    2   41 1   
     6    3    4 ar  
     7    3    7 1   
     8    4    5 ar  
     9    4    9 1   
    10    5    6 ar  
    11    5   42 1   
    12    6   43 1   
    13    7    8 1   
    14    8    9 2   
    15    8   11 1   
    16    9   10 1   
    17   10   20 1   
    18   10   39 2   
    19   11   12 ar  
    20   11   16 ar  
    21   12   13 ar  
    22   12   44 1   
    23   13   14 ar  
    24   13   45 1   
    25   14   15 ar  
    26   14   17 1   
    27   15   16 ar  
    28   15   46 1   
    29   16   47 1   
    30   17   18 1   
    31   18   38 1   
    32   18   48 1   
    33   18   49 1   
    34   19   20 ar  
    35   19   24 ar  
    36   19   50 1   
    37   20   21 ar  
    38   21   22 ar  
    39   21   51 1   
    40   22   23 ar  
    41   23   24 ar  
    42   23   25 1   
    43   24   52 1   
    44   25   26 1   
    45   26   37 1   
    46   26   53 1   
    47   26   54 1   
    48   27   28 1   
    49   27   31 1   
    50   27   55 1   
    51   27   74 1   
    52   28   29 1   
    53   28   56 1   
    54   28   57 1   
    55   29   30 1   
    56   29   58 1   
    57   29   59 1   
    58   30   31 1   
    59   30   37 1   
    60   31   60 1   
    61   31   61 1   
    62   32   33 1   
    63   32   36 1   
    64   32   62 1   
    65   32   63 1   
    66   33   34 1   
    67   33   38 1   
    68   34   35 1   
    69   34   64 1   
    70   34   65 1   
    71   35   36 1   
    72   35   66 1   
    73   35   67 1   
    74   36   68 1   
    75   36   69 1   
    76   37   70 1   
    77   37   71 1   
    78   38   72 1   
    79   38   73 1   
@<TRIPOS>SUBSTRUCTURE
     1 BT1         1 TEMP              0 ****  ****    0 ROOT
