@<TRIPOS>MOLECULE
BT1
   74    67     1     0     0
SMALL
bcc


@<TRIPOS>ATOM
      1 C1         -3.1630    2.6330   -5.7970 c1        1 BT1     -0.118167
      2 C2         -1.7530    2.6440   -5.7500 c1        1 BT1     -0.093000
      3 C3         -1.1010    2.5930   -4.5370 c1        1 BT1     -0.178500
      4 C4         -1.8460    2.5290   -3.3290 c1        1 BT1     -0.178500
      5 C5         -3.2550    2.5180   -3.3770 c1        1 BT1     -0.093000
      6 C6         -3.9080    2.5700   -4.6040 c1        1 BT1     -0.118167
      7 S1          0.4340    2.6200   -4.1670 s         1 BT1      0.505000
      8 C8          0.5430    2.5650   -2.6330 c2        1 BT1     -0.230000
      9 C9         -0.8050    2.5090   -2.0930 c1        1 BT1     -0.156000
     10 C7         -1.3210    2.5330   -0.6700 c1        1 BT1      0.350000
     11 C10         1.8260    2.5510   -2.0230 c1        1 BT1     -0.079000
     12 C12         2.2030    3.5860   -1.1770 c1        1 BT1     -0.118167
     13 C14         3.4700    3.5870   -0.5920 c1        1 BT1     -0.118167
     14 C16         4.3450    2.5700   -0.8490 c1        1 BT1      0.098000
     15 C18         3.9720    1.5340   -1.6930 c1        1 BT1     -0.209000
     16 C20         2.6940    1.5340   -2.2830 c1        1 BT1     -0.079000
     17 O2          5.6590    2.6360   -0.3530 os        1 BT1     -0.215000
     18 C24         5.9750    1.6170    0.6160 c3        1 BT1     -0.024000
     19 C11        -2.3430    1.3010    1.2350 c1        1 BT1     -0.118167
     20 C13        -1.8930    1.2830   -0.0560 c1        1 BT1     -0.249000
     21 C15        -2.0750    0.1660   -0.8250 c1        1 BT1      0.023000
     22 N1         -2.7180   -0.9530   -0.2930 n1        1 BT1     -0.221000
     23 C19        -3.1680   -0.9370    0.9940 c1        1 BT1      0.160000
     24 C21        -2.9880    0.1780    1.7670 c1        1 BT1     -0.118167
     25 O3         -3.8700   -2.1070    1.5430 os        1 BT1     -0.192000
     26 C25        -5.0460   -2.5400    0.7460 c3        1 BT1     -0.013000
     27 C17        -8.6690   -5.5420    1.9080 c3        1 BT1     -0.172500
     28 C23        -8.6290   -5.5510    0.6380 c3        1 BT1     -0.172500
     29 C26        -7.1930   -4.8950    0.2220 c3        1 BT1     -0.078500
     30 N2         -6.9720   -3.9230    1.0720 n3        1 BT1     -0.247000
     31 C27        -7.7320   -4.3260    2.3380 c3        1 BT1     -0.078500
     32 C22         8.4260   -0.1870    1.7720 c3        1 BT1     -0.078500
     33 N3          7.7270    0.8870    2.1230 n3        1 BT1     -0.252000
     34 C28         8.6680    1.7250    3.1350 c3        1 BT1     -0.078500
     35 C29         9.3490    0.7970    3.8910 c3        1 BT1     -0.172500
     36 C30         9.4320   -0.4600    3.0060 c3        1 BT1     -0.172500
     37 C33        -5.6190   -3.8500    1.3460 c3        1 BT1     -0.074000
     38 C34         7.4630    1.6840    0.9590 c3        1 BT1     -0.075000
     39 O1         -1.2600    3.5530   -0.0210 o         1 BT1     -0.294000
     40 H1         -3.6630    2.6740   -6.7310 ha        1 BT1      0.152000
     41 H2         -1.2730    2.6850   -6.5210 ha        1 BT1      0.140500
     42 H5         -3.7920    2.4730   -2.5140 ha        1 BT1      0.140500
     43 H6         -4.8370    2.5630   -4.6380 ha        1 BT1      0.152000
     44 H12         1.6110    4.2800   -1.0010 ha        1 BT1      0.152000
     45 H14         3.7370    4.3310    0.0140 ha        1 BT1      0.152000
     46 H18         4.6340    0.7640   -1.8880 ha        1 BT1      0.142000
     47 H20         2.4180    0.7740   -2.9060 ha        1 BT1      0.137000
     48 H241        5.7650    0.7290    0.2400 h1        1 BT1      0.087000
     49 H242        5.4410    1.7630    1.4330 h1        1 BT1      0.087000
     50 H11        -2.2060    2.1390    1.8160 ha        1 BT1      0.152000
     51 H15        -1.7550    0.1530   -1.7420 ha        1 BT1      0.173000
     52 H21        -3.3150    0.1900    2.7030 ha        1 BT1      0.152000
     53 H251       -4.7800   -2.6950   -0.1580 h1        1 BT1      0.097000
     54 H252       -5.7050   -1.8710    0.7690 h1        1 BT1      0.097000
     55 H171       -9.6490   -5.3850    2.2440 hc        1 BT1      0.086500
     56 H172       -8.3320   -6.3490    2.2490 hc        1 BT1      0.086500
     57 H231       -8.6910   -6.4920    0.2960 hc        1 BT1      0.086500
     58 H232       -9.3640   -5.0090    0.2750 hc        1 BT1      0.086500
     59 H261       -7.2350   -4.5480   -0.6750 h1        1 BT1      0.083250
     60 H262       -6.4860   -5.5640    0.2890 h1        1 BT1      0.083250
     61 H271       -7.1070   -4.6090    3.0280 h1        1 BT1      0.083250
     62 H272       -8.2600   -3.6000    2.6490 h1        1 BT1      0.083250
     63 H221        7.8370   -0.9410    1.6410 h1        1 BT1      0.083750
     64 H222        8.9420   -0.0040    0.9400 h1        1 BT1      0.083750
     65 H281        8.1230    2.2880    3.7100 h1        1 BT1      0.083750
     66 H282        9.3170    2.2880    2.6160 h1        1 BT1      0.083750
     67 H291       10.3050    1.1460    4.1140 hc        1 BT1      0.087500
     68 H292        8.8590    0.6030    4.7120 hc        1 BT1      0.087500
     69 H301        9.1260   -1.3050    3.5410 hc        1 BT1      0.087500
     70 H302       10.4070   -0.5880    2.6560 hc        1 BT1      0.087500
     71 H331       -5.4730   -3.8520    2.3600 h1        1 BT1      0.086000
     72 H332       -5.1590   -4.6280    0.9440 h1        1 BT1      0.086000
     73 H341        7.9880    1.3420    0.2050 h1        1 BT1      0.087500
     74 H342        7.7160    2.6240    1.1390 h1        1 BT1      0.087500
@<TRIPOS>BOND
     1    1    6 1   
     2    1   40 1   
     3    2    3 1   
     4    2   41 1   
     5    4    5 1   
     6    5   42 1   
     7    6   43 1   
     8    7    8 1   
     9    8    9 1   
    10    8   11 1   
    11   10   20 1   
    12   10   39 1   
    13   11   16 1   
    14   12   13 1   
    15   12   44 1   
    16   13   45 1   
    17   14   15 1   
    18   14   17 1   
    19   15   46 1   
    20   16   47 1   
    21   17   18 1   
    22   18   38 1   
    23   18   48 1   
    24   18   49 1   
    25   19   24 1   
    26   19   50 1   
    27   20   21 1   
    28   21   51 1   
    29   22   23 1   
    30   23   25 1   
    31   24   52 1   
    32   25   26 1   
    33   26   37 1   
    34   26   53 1   
    35   26   54 1   
    36   27   28 1   
    37   27   31 1   
    38   27   55 1   
    39   27   56 1   
    40   28   29 1   
    41   28   57 1   
    42   28   58 1   
    43   29   30 1   
    44   29   59 1   
    45   29   60 1   
    46   30   31 1   
    47   30   37 1   
    48   31   61 1   
    49   31   62 1   
    50   32   33 1   
    51   32   36 1   
    52   32   63 1   
    53   32   64 1   
    54   33   34 1   
    55   33   38 1   
    56   34   35 1   
    57   34   65 1   
    58   34   66 1   
    59   35   36 1   
    60   35   67 1   
    61   35   68 1   
    62   36   69 1   
    63   36   70 1   
    64   37   71 1   
    65   37   72 1   
    66   38   73 1   
    67   38   74 1   
@<TRIPOS>SUBSTRUCTURE
     1 BT1         1 TEMP              0 ****  ****    0 ROOT
