@<TRIPOS>MOLECULE
BT1
   74    79     1     0     0
SMALL
bcc


@<TRIPOS>ATOM
      1 C1          0.4890   -0.4480    0.3840 ca        1 BT1     -0.121000
      2 C2          1.8640   -0.3100    0.4760 ca        1 BT1     -0.093000
      3 C3          2.4610   -0.2440    1.7400 ca        1 BT1     -0.085100
      4 C4          1.6590   -0.3240    2.9120 ca        1 BT1     -0.057800
      5 C5          0.2660   -0.4570    2.8000 ca        1 BT1     -0.093000
      6 C6         -0.3070   -0.5190    1.5420 ca        1 BT1     -0.127000
      7 S1          4.0880   -0.0640    2.1370 ss        1 BT1      0.042500
      8 C8          3.8040   -0.0860    3.8140 cc        1 BT1      0.023400
      9 C9          2.4670   -0.2390    4.1060 cd        1 BT1     -0.165400
     10 C7          1.8690   -0.2930    5.4550 c         1 BT1      0.629900
     11 C10         4.9100    0.0600    4.7320 ca        1 BT1     -0.092800
     12 C12         6.1030   -0.6530    4.5180 ca        1 BT1     -0.073500
     13 C14         7.1800   -0.5110    5.3790 ca        1 BT1     -0.185500
     14 C16         7.0740    0.3630    6.4800 ca        1 BT1      0.142100
     15 C18         5.8930    1.0820    6.7050 ca        1 BT1     -0.185500
     16 C20         4.8200    0.9250    5.8310 ca        1 BT1     -0.073500
     17 O2          8.1990    0.4320    7.2720 os        1 BT1     -0.336900
     18 C24         8.1160    1.3000    8.4110 c3        1 BT1      0.124400
     19 C11         0.9480   -1.7520    7.2540 ca        1 BT1     -0.014000
     20 C13         1.5670   -1.6280    5.9950 ca        1 BT1     -0.332900
     21 C15         1.8900   -2.8100    5.2980 ca        1 BT1      0.489200
     22 N1          1.6430   -4.0480    5.7590 nb        1 BT1     -0.742000
     23 C19         1.0420   -4.1400    6.9770 ca        1 BT1      0.658600
     24 C21         0.6740   -3.0120    7.7640 ca        1 BT1     -0.284300
     25 O3          0.7430   -5.3530    7.5470 os        1 BT1     -0.453100
     26 C25         1.0750   -6.5410    6.8020 c3        1 BT1      0.135400
     27 C17        -2.6290   -7.8120    8.9600 c3        1 BT1     -0.096400
     28 C23        -2.1710   -9.2540    9.1320 c3        1 BT1     -0.096400
     29 C26        -0.9800   -9.4380    8.1780 c3        1 BT1      0.154300
     30 N2         -0.6890   -8.1710    7.4980 n3        1 BT1     -0.723600
     31 C27        -1.7220   -7.2050    7.8780 c3        1 BT1      0.154300
     32 C22        11.6440    2.1350    9.5810 c3        1 BT1      0.152800
     33 N3         10.4520    2.1320    8.7260 n3        1 BT1     -0.722600
     34 C28        10.8920    1.9960    7.3350 c3        1 BT1      0.152800
     35 C29        12.4050    1.7300    7.2930 c3        1 BT1     -0.096400
     36 C30        12.8930    1.8480    8.7310 c3        1 BT1     -0.096400
     37 C33         0.6750   -7.7150    7.7040 c3        1 BT1      0.159800
     38 C34         9.4560    1.1610    9.1440 c3        1 BT1      0.163800
     39 O1          1.6290    0.7360    6.1000 o         1 BT1     -0.534100
     40 H1          0.0070   -0.5000   -0.6040 ha        1 BT1      0.135000
     41 H2          2.4840   -0.2510   -0.4300 ha        1 BT1      0.138000
     42 H5         -0.3520   -0.5070    3.7090 ha        1 BT1      0.142000
     43 H6         -1.3980   -0.6230    1.4390 ha        1 BT1      0.136000
     44 H12         6.1810   -1.3370    3.6570 ha        1 BT1      0.150000
     45 H14         8.1140   -1.0690    5.2200 ha        1 BT1      0.147000
     46 H18         5.7980    1.7680    7.5580 ha        1 BT1      0.147000
     47 H20         3.8860    1.4870    6.0060 ha        1 BT1      0.150000
     48 H241        7.9170    2.3490    8.0720 h1        1 BT1      0.052700
     49 H242        7.2860    0.9490    9.0800 h1        1 BT1      0.052700
     50 H11         0.6890   -0.8420    7.8210 ha        1 BT1      0.162000
     51 H15         2.3780   -2.7660    4.3050 h4        1 BT1      0.038100
     52 H21         0.1940   -3.1600    8.7380 ha        1 BT1      0.161000
     53 H251        0.5280   -6.5370    5.8250 h1        1 BT1      0.065200
     54 H252        2.1820   -6.5650    6.6250 h1        1 BT1      0.065200
     55 H172       -3.6990   -7.7630    8.6430 hc        1 BT1      0.046450
     56 H231       -2.9880   -9.9700    8.8740 hc        1 BT1      0.046450
     57 H232       -1.8630   -9.4550   10.1870 hc        1 BT1      0.046450
     58 H261       -1.2370  -10.1830    7.3760 h1        1 BT1      0.049200
     59 H262       -0.0910   -9.8340    8.7410 h1        1 BT1      0.049200
     60 H271       -1.2780   -6.2340    8.2330 h1        1 BT1      0.049200
     61 H272       -2.3210   -6.9910    6.9500 h1        1 BT1      0.049200
     62 H221       11.7130    3.1610   10.0350 h1        1 BT1      0.050200
     63 H222       11.5680    1.3930   10.4210 h1        1 BT1      0.050200
     64 H281       10.3310    1.1850    6.7960 h1        1 BT1      0.050200
     65 H282       10.6600    2.9720    6.8270 h1        1 BT1      0.050200
     66 H291       12.6120    0.7110    6.8830 hc        1 BT1      0.046450
     67 H292       12.9130    2.4720    6.6310 hc        1 BT1      0.046450
     68 H301       13.6330    2.6770    8.8380 hc        1 BT1      0.046450
     69 H302       13.3870    0.9040    9.0660 hc        1 BT1      0.046450
     70 H331        1.3580   -8.5720    7.4410 h1        1 BT1      0.046700
     71 H332        0.8780   -7.4220    8.7750 h1        1 BT1      0.046700
     72 H341        9.2510    1.3410   10.2380 h1        1 BT1      0.046700
     73 H342        9.8110    0.0950    9.0260 h1        1 BT1      0.046700
     74 H171       -2.5310   -7.2440    9.9170 hc        1 BT1      0.046450
@<TRIPOS>BOND
     1    1    2 ar  
     2    1    6 ar  
     3    1   40 1   
     4    2    3 ar  
     5    2   41 1   
     6    3    4 ar  
     7    3    7 1   
     8    4    5 ar  
     9    4    9 1   
    10    5    6 ar  
    11    5   42 1   
    12    6   43 1   
    13    7    8 1   
    14    8    9 2   
    15    8   11 1   
    16    9   10 1   
    17   10   20 1   
    18   10   39 2   
    19   11   12 ar  
    20   11   16 ar  
    21   12   13 ar  
    22   12   44 1   
    23   13   14 ar  
    24   13   45 1   
    25   14   15 ar  
    26   14   17 1   
    27   15   16 ar  
    28   15   46 1   
    29   16   47 1   
    30   17   18 1   
    31   18   38 1   
    32   18   48 1   
    33   18   49 1   
    34   19   20 ar  
    35   19   24 ar  
    36   19   50 1   
    37   20   21 ar  
    38   21   22 ar  
    39   21   51 1   
    40   22   23 ar  
    41   23   24 ar  
    42   23   25 1   
    43   24   52 1   
    44   25   26 1   
    45   26   37 1   
    46   26   53 1   
    47   26   54 1   
    48   27   28 1   
    49   27   31 1   
    50   27   55 1   
    51   27   74 1   
    52   28   29 1   
    53   28   56 1   
    54   28   57 1   
    55   29   30 1   
    56   29   58 1   
    57   29   59 1   
    58   30   31 1   
    59   30   37 1   
    60   31   60 1   
    61   31   61 1   
    62   32   33 1   
    63   32   36 1   
    64   32   62 1   
    65   32   63 1   
    66   33   34 1   
    67   33   38 1   
    68   34   35 1   
    69   34   64 1   
    70   34   65 1   
    71   35   36 1   
    72   35   66 1   
    73   35   67 1   
    74   36   68 1   
    75   36   69 1   
    76   37   70 1   
    77   37   71 1   
    78   38   72 1   
    79   38   73 1   
@<TRIPOS>SUBSTRUCTURE
     1 BT1         1 TEMP              0 ****  ****    0 ROOT
