@<TRIPOS>MOLECULE
BT1
   74    79     1     0     0
SMALL
bcc


@<TRIPOS>ATOM
      1 C1         -5.9010    0.7820   -2.4520 ca        1 BT1     -0.121000
      2 C2         -5.5370    1.3410   -1.2380 ca        1 BT1     -0.093000
      3 C3         -4.3910    0.8710   -0.5850 ca        1 BT1     -0.085100
      4 C4         -3.6120   -0.1640   -1.1710 ca        1 BT1     -0.057800
      5 C5         -3.9980   -0.7230   -2.4000 ca        1 BT1     -0.093000
      6 C6         -5.1350   -0.2480   -3.0300 ca        1 BT1     -0.127000
      7 S1         -3.7370    1.3540    0.8890 ss        1 BT1      0.042500
      8 C8         -2.4430    0.2530    0.8110 cc        1 BT1      0.023400
      9 C9         -2.4770   -0.4980   -0.3420 cd        1 BT1     -0.165400
     10 C7         -1.5140   -1.5470   -0.7290 c         1 BT1      0.629900
     11 C10        -1.4860    0.1920    1.8920 ca        1 BT1     -0.092800
     12 C12        -0.9720    1.3780    2.4460 ca        1 BT1     -0.073500
     13 C14        -0.0660    1.3370    3.4960 ca        1 BT1     -0.185500
     14 C16         0.3380    0.0890    4.0110 ca        1 BT1      0.142100
     15 C18        -0.1670   -1.1000    3.4700 ca        1 BT1     -0.185500
     16 C20        -1.0740   -1.0410    2.4150 ca        1 BT1     -0.073500
     17 O2          1.2380    0.1590    5.0520 os        1 BT1     -0.336900
     18 C24         1.6820   -1.0960    5.5870 c3        1 BT1      0.124400
     19 C11         0.4660   -2.1270   -2.1290 ca        1 BT1     -0.014000
     20 C13        -0.4560   -1.1630   -1.6780 ca        1 BT1     -0.332900
     21 C15        -0.3170    0.1580   -2.1500 ca        1 BT1      0.489200
     22 N1          0.6390    0.5540   -3.0060 nb        1 BT1     -0.742000
     23 C19         1.5160   -0.3970   -3.4300 ca        1 BT1      0.658600
     24 C21         1.4660   -1.7580   -3.0150 ca        1 BT1     -0.284300
     25 O3          2.5350   -0.1050   -4.3040 os        1 BT1     -0.453100
     26 C25         2.6400    1.2520   -4.7780 c3        1 BT1      0.135400
     27 C17         4.0840   -1.0770   -8.3130 c3        1 BT1     -0.096400
     28 C23         5.0970   -0.0220   -8.7360 c3        1 BT1     -0.096400
     29 C26         4.7310    1.2540   -7.9610 c3        1 BT1      0.154300
     30 N2          3.5950    0.9870   -7.0750 n3        1 BT1     -0.723600
     31 C27         3.1260   -0.3770   -7.3350 c3        1 BT1      0.154300
     32 C22         3.1120   -0.5100    9.0690 c3        1 BT1      0.152800
     33 N3          2.1100   -0.6210    8.0040 n3        1 BT1     -0.722600
     34 C28         1.1710    0.4940    8.1480 c3        1 BT1      0.152800
     35 C29         1.6710    1.4580    9.2360 c3        1 BT1     -0.096400
     36 C30         2.9000    0.7990    9.8470 c3        1 BT1     -0.096400
     37 C33         3.8800    1.2750   -5.6800 c3        1 BT1      0.159800
     38 C34         2.6990   -0.7490    6.6820 c3        1 BT1      0.163800
     39 O1         -1.5930   -2.6990   -0.2800 o         1 BT1     -0.534100
     40 H1         -6.8000    1.1410   -2.9740 ha        1 BT1      0.135000
     41 H2         -6.1400    2.1420   -0.7860 ha        1 BT1      0.138000
     42 H5         -3.3980   -1.5310   -2.8440 ha        1 BT1      0.142000
     43 H6         -5.4500   -0.6770   -3.9930 ha        1 BT1      0.136000
     44 H12        -1.2890    2.3510    2.0390 ha        1 BT1      0.150000
     45 H14         0.3430    2.2590    3.9310 ha        1 BT1      0.147000
     46 H18         0.1380   -2.0800    3.8640 ha        1 BT1      0.147000
     47 H20        -1.4720   -1.9760    1.9830 ha        1 BT1      0.150000
     48 H241        0.8040   -1.6700    5.9810 h1        1 BT1      0.052700
     49 H242        2.1920   -1.6810    4.7770 h1        1 BT1      0.052700
     50 H11         0.3800   -3.1660   -1.7710 ha        1 BT1      0.162000
     51 H15        -1.0160    0.9530   -1.8240 h4        1 BT1      0.038100
     52 H21         2.2070   -2.4710   -3.3960 ha        1 BT1      0.161000
     53 H251        1.7030    1.5340   -5.3210 h1        1 BT1      0.065200
     54 H252        2.8000    1.9340   -3.9030 h1        1 BT1      0.065200
     55 H172        4.5880   -1.9400   -7.8150 hc        1 BT1      0.046450
     56 H231        5.0480    0.1650   -9.8360 hc        1 BT1      0.046450
     57 H232        6.1380   -0.3440   -8.4920 hc        1 BT1      0.046450
     58 H261        4.4020    2.0590   -8.6740 h1        1 BT1      0.049200
     59 H262        5.6280    1.6380   -7.4020 h1        1 BT1      0.049200
     60 H271        3.0230   -0.9730   -6.3880 h1        1 BT1      0.049200
     61 H272        2.1050   -0.2840   -7.7970 h1        1 BT1      0.049200
     62 H221        2.9590   -1.3930    9.7490 h1        1 BT1      0.050200
     63 H222        4.1630   -0.5600    8.6740 h1        1 BT1      0.050200
     64 H281        1.0140    1.0390    7.1770 h1        1 BT1      0.050200
     65 H282        0.1850    0.0470    8.4560 h1        1 BT1      0.050200
     66 H291        0.8770    1.6250   10.0030 hc        1 BT1      0.046450
     67 H292        1.9280    2.4500    8.7910 hc        1 BT1      0.046450
     68 H301        2.7450    0.5850   10.9320 hc        1 BT1      0.046450
     69 H302        3.7970    1.4590    9.7550 hc        1 BT1      0.046450
     70 H331        4.2950    2.3220   -5.6320 h1        1 BT1      0.046700
     71 H332        4.6490    0.5740   -5.2400 h1        1 BT1      0.046700
     72 H341        3.4360   -1.6010    6.7260 h1        1 BT1      0.046700
     73 H342        3.2560    0.1790    6.3610 h1        1 BT1      0.046700
     74 H171        3.5210   -1.4730   -9.1920 hc        1 BT1      0.046450
@<TRIPOS>BOND
     1    1    2 ar  
     2    1    6 ar  
     3    1   40 1   
     4    2    3 ar  
     5    2   41 1   
     6    3    4 ar  
     7    3    7 1   
     8    4    5 ar  
     9    4    9 1   
    10    5    6 ar  
    11    5   42 1   
    12    6   43 1   
    13    7    8 1   
    14    8    9 2   
    15    8   11 1   
    16    9   10 1   
    17   10   20 1   
    18   10   39 2   
    19   11   12 ar  
    20   11   16 ar  
    21   12   13 ar  
    22   12   44 1   
    23   13   14 ar  
    24   13   45 1   
    25   14   15 ar  
    26   14   17 1   
    27   15   16 ar  
    28   15   46 1   
    29   16   47 1   
    30   17   18 1   
    31   18   38 1   
    32   18   48 1   
    33   18   49 1   
    34   19   20 ar  
    35   19   24 ar  
    36   19   50 1   
    37   20   21 ar  
    38   21   22 ar  
    39   21   51 1   
    40   22   23 ar  
    41   23   24 ar  
    42   23   25 1   
    43   24   52 1   
    44   25   26 1   
    45   26   37 1   
    46   26   53 1   
    47   26   54 1   
    48   27   28 1   
    49   27   31 1   
    50   27   55 1   
    51   27   74 1   
    52   28   29 1   
    53   28   56 1   
    54   28   57 1   
    55   29   30 1   
    56   29   58 1   
    57   29   59 1   
    58   30   31 1   
    59   30   37 1   
    60   31   60 1   
    61   31   61 1   
    62   32   33 1   
    63   32   36 1   
    64   32   62 1   
    65   32   63 1   
    66   33   34 1   
    67   33   38 1   
    68   34   35 1   
    69   34   64 1   
    70   34   65 1   
    71   35   36 1   
    72   35   66 1   
    73   35   67 1   
    74   36   68 1   
    75   36   69 1   
    76   37   70 1   
    77   37   71 1   
    78   38   72 1   
    79   38   73 1   
@<TRIPOS>SUBSTRUCTURE
     1 BT1         1 TEMP              0 ****  ****    0 ROOT
