@<TRIPOS>MOLECULE
BT1
   74    79     1     0     0
SMALL
bcc


@<TRIPOS>ATOM
      1 C1          0.4590   -0.4350    0.4100 ca        1 BT1     -0.121000
      2 C2          1.8350   -0.2970    0.4950 ca        1 BT1     -0.093000
      3 C3          2.4390   -0.2340    1.7560 ca        1 BT1     -0.085100
      4 C4          1.6430   -0.3170    2.9320 ca        1 BT1     -0.057800
      5 C5          0.2500   -0.4510    2.8280 ca        1 BT1     -0.093000
      6 C6         -0.3310   -0.5090    1.5720 ca        1 BT1     -0.127000
      7 S1          4.0680   -0.0550    2.1450 ss        1 BT1      0.042500
      8 C8          3.7920   -0.0810    3.8230 cc        1 BT1      0.023400
      9 C9          2.4570   -0.2350    4.1220 cd        1 BT1     -0.165400
     10 C7          1.8670   -0.2940    5.4730 c         1 BT1      0.629900
     11 C10         4.9040    0.0630    4.7360 ca        1 BT1     -0.092800
     12 C12         6.0960   -0.6500    4.5130 ca        1 BT1     -0.073500
     13 C14         7.1770   -0.5090    5.3690 ca        1 BT1     -0.185500
     14 C16         7.0770    0.3630    6.4720 ca        1 BT1      0.142100
     15 C18         5.8970    1.0800    6.7050 ca        1 BT1     -0.185500
     16 C20         4.8190    0.9250    5.8370 ca        1 BT1     -0.073500
     17 O2          8.2070    0.4310    7.2580 os        1 BT1     -0.336900
     18 C24         8.1300    1.2970    8.3990 c3        1 BT1      0.124400
     19 C11         0.9530   -1.7580    7.2730 ca        1 BT1     -0.014000
     20 C13         1.5650   -1.6300    6.0110 ca        1 BT1     -0.332900
     21 C15         1.8830   -2.8100    5.3080 ca        1 BT1      0.489200
     22 N1          1.6370   -4.0490    5.7660 nb        1 BT1     -0.742000
     23 C19         1.0420   -4.1440    6.9870 ca        1 BT1      0.658600
     24 C21         0.6810   -3.0190    7.7790 ca        1 BT1     -0.284300
     25 O3          0.7440   -5.3590    7.5540 os        1 BT1     -0.453100
     26 C25         1.0710   -6.5450    6.8030 c3        1 BT1      0.135400
     27 C17        -2.6220   -7.8180    8.9800 c3        1 BT1     -0.096400
     28 C23        -2.1650   -9.2610    9.1430 c3        1 BT1     -0.096400
     29 C26        -0.9810   -9.4440    8.1800 c3        1 BT1      0.154300
     30 N2         -0.6920   -8.1750    7.5040 n3        1 BT1     -0.723600
     31 C27        -1.7210   -7.2080    7.8950 c3        1 BT1      0.154300
     32 C22        11.6650    2.1340    9.5460 c3        1 BT1      0.152800
     33 N3         10.4670    2.1320    8.7000 n3        1 BT1     -0.722600
     34 C28        10.8980    1.9980    7.3060 c3        1 BT1      0.152800
     35 C29        12.4120    1.7340    7.2530 c3        1 BT1     -0.096400
     36 C30        12.9080    1.8510    8.6880 c3        1 BT1     -0.096400
     37 C33         0.6730   -7.7220    7.7030 c3        1 BT1      0.159800
     38 C34         9.4750    1.1580    9.1230 c3        1 BT1      0.163800
     39 O1          1.6320    0.7340    6.1240 o         1 BT1     -0.534100
     40 H1         -0.0280   -0.4840   -0.5760 ha        1 BT1      0.135000
     41 H2          2.4500   -0.2350   -0.4150 ha        1 BT1      0.138000
     42 H5         -0.3630   -0.5030    3.7390 ha        1 BT1      0.142000
     43 H6         -1.4220   -0.6130    1.4750 ha        1 BT1      0.136000
     44 H12         6.1700   -1.3310    3.6510 ha        1 BT1      0.150000
     45 H14         8.1100   -1.0660    5.2030 ha        1 BT1      0.147000
     46 H18         5.8070    1.7640    7.5600 ha        1 BT1      0.147000
     47 H20         3.8860    1.4860    6.0190 ha        1 BT1      0.150000
     48 H241        7.9280    2.3460    8.0630 h1        1 BT1      0.052700
     49 H242        7.3060    0.9440    9.0730 h1        1 BT1      0.052700
     50 H11         0.6980   -0.8490    7.8440 ha        1 BT1      0.162000
     51 H15         2.3660   -2.7630    4.3120 h4        1 BT1      0.038100
     52 H21         0.2050   -3.1700    8.7560 ha        1 BT1      0.161000
     53 H251        2.1760   -6.5700    6.6190 h1        1 BT1      0.065200
     54 H252        0.5180   -6.5370    5.8290 h1        1 BT1      0.065200
     55 H172       -3.6940   -7.7660    8.6710 hc        1 BT1      0.046450
     56 H231       -1.8500   -9.4670   10.1950 hc        1 BT1      0.046450
     57 H232       -2.9850   -9.9750    8.8880 hc        1 BT1      0.046450
     58 H261       -1.2450  -10.1840    7.3770 h1        1 BT1      0.049200
     59 H262       -0.0890   -9.8440    8.7350 h1        1 BT1      0.049200
     60 H271       -2.3260   -6.9890    6.9720 h1        1 BT1      0.049200
     61 H272       -1.2740   -6.2400    8.2510 h1        1 BT1      0.049200
     62 H221       11.7350    3.1600   10.0020 h1        1 BT1      0.050200
     63 H222       11.5960    1.3900   10.3860 h1        1 BT1      0.050200
     64 H281       10.3350    1.1860    6.7690 h1        1 BT1      0.050200
     65 H282       10.6610    2.9750    6.8010 h1        1 BT1      0.050200
     66 H291       12.9140    2.4790    6.5890 hc        1 BT1      0.046450
     67 H292       12.6170    0.7170    6.8400 hc        1 BT1      0.046450
     68 H301       13.4070    0.9070    9.0180 hc        1 BT1      0.046450
     69 H302       13.6480    2.6810    8.7920 hc        1 BT1      0.046450
     70 H331        0.8840   -7.4330    8.7740 h1        1 BT1      0.046700
     71 H332        1.3540   -8.5790    7.4320 h1        1 BT1      0.046700
     72 H341        9.8310    0.0930    9.0010 h1        1 BT1      0.046700
     73 H342        9.2770    1.3370   10.2180 h1        1 BT1      0.046700
     74 H171       -2.5170   -7.2540    9.9390 hc        1 BT1      0.046450
@<TRIPOS>BOND
     1    1    2 ar  
     2    1    6 ar  
     3    1   40 1   
     4    2    3 ar  
     5    2   41 1   
     6    3    4 ar  
     7    3    7 1   
     8    4    5 ar  
     9    4    9 1   
    10    5    6 ar  
    11    5   42 1   
    12    6   43 1   
    13    7    8 1   
    14    8    9 2   
    15    8   11 1   
    16    9   10 1   
    17   10   20 1   
    18   10   39 2   
    19   11   12 ar  
    20   11   16 ar  
    21   12   13 ar  
    22   12   44 1   
    23   13   14 ar  
    24   13   45 1   
    25   14   15 ar  
    26   14   17 1   
    27   15   16 ar  
    28   15   46 1   
    29   16   47 1   
    30   17   18 1   
    31   18   38 1   
    32   18   48 1   
    33   18   49 1   
    34   19   20 ar  
    35   19   24 ar  
    36   19   50 1   
    37   20   21 ar  
    38   21   22 ar  
    39   21   51 1   
    40   22   23 ar  
    41   23   24 ar  
    42   23   25 1   
    43   24   52 1   
    44   25   26 1   
    45   26   37 1   
    46   26   53 1   
    47   26   54 1   
    48   27   28 1   
    49   27   31 1   
    50   27   55 1   
    51   27   74 1   
    52   28   29 1   
    53   28   56 1   
    54   28   57 1   
    55   29   30 1   
    56   29   58 1   
    57   29   59 1   
    58   30   31 1   
    59   30   37 1   
    60   31   60 1   
    61   31   61 1   
    62   32   33 1   
    63   32   36 1   
    64   32   62 1   
    65   32   63 1   
    66   33   34 1   
    67   33   38 1   
    68   34   35 1   
    69   34   64 1   
    70   34   65 1   
    71   35   36 1   
    72   35   66 1   
    73   35   67 1   
    74   36   68 1   
    75   36   69 1   
    76   37   70 1   
    77   37   71 1   
    78   38   72 1   
    79   38   73 1   
@<TRIPOS>SUBSTRUCTURE
     1 BT1         1 TEMP              0 ****  ****    0 ROOT
