@<TRIPOS>MOLECULE
BT2
   76    69     1     0     0
SMALL
bcc


@<TRIPOS>ATOM
      1 C1         -4.1870    2.1400   -5.9110 c1        1 BT2     -0.132333
      2 C2         -2.7970    2.2210   -5.8690 c1        1 BT2     -0.092500
      3 C3         -2.1300    2.2250   -4.6370 c1        1 BT2     -0.181500
      4 C4         -2.8750    2.1460   -3.4160 c1        1 BT2     -0.181500
      5 C5         -4.2610    2.0660   -3.4580 c1        1 BT2     -0.092500
      6 C6         -4.9310    2.0620   -4.7080 c1        1 BT2     -0.132333
      7 S1         -0.6000    2.1910   -4.2780 s         1 BT2      0.491000
      8 C8         -0.4850    2.0850   -2.7470 c2        1 BT2     -0.286000
      9 C9         -1.8360    2.0570   -2.1990 c1        1 BT2     -0.065000
     10 C7         -2.2460    2.1260   -0.7400 c2        1 BT2     -0.064000
     11 C10         0.8950    2.3300   -2.4230 c1        1 BT2     -0.060000
     12 C12         1.2690    3.5410   -1.8660 c1        1 BT2     -0.132333
     13 C14         2.5900    3.7380   -1.4410 c1        1 BT2     -0.132333
     14 C16         3.5140    2.7280   -1.5770 c1        1 BT2      0.085000
     15 C18         3.1350    1.5120   -2.1370 c1        1 BT2     -0.181000
     16 C20         1.8230    1.3180   -2.5590 c1        1 BT2     -0.087000
     17 O2          4.9030    2.9980   -1.3400 os        1 BT2     -0.216000
     18 C24         5.3400    2.6670   -0.0190 c3        1 BT2     -0.023000
     19 C11        -3.7840    0.8440    0.7940 c1        1 BT2     -0.132333
     20 C13        -3.0100    0.8640   -0.3630 c1        1 BT2     -0.101000
     21 C15        -2.9080   -0.2800   -1.1560 c1        1 BT2     -0.085000
     22 C32        -3.5860   -1.4500   -0.7880 c1        1 BT2     -0.181000
     23 C19        -4.3610   -1.4710    0.3710 c1        1 BT2      0.085000
     24 C21        -4.4620   -0.3260    1.1630 c1        1 BT2     -0.132333
     25 O3         -4.9840   -2.6810    0.7880 os        1 BT2     -0.216000
     26 C25        -4.1580   -3.4910    1.6150 c3        1 BT2     -0.023000
     27 C17        -3.6650   -7.6820    3.5990 c3        1 BT2     -0.172250
     28 C23        -4.5960   -8.1840    2.8620 c3        1 BT2     -0.172250
     29 C26        -4.8250   -7.1350    1.7290 c3        1 BT2     -0.078750
     30 N2         -4.0700   -5.8610    2.1800 n3        1 BT2     -0.251000
     31 C27        -3.7680   -6.0790    3.4290 c3        1 BT2     -0.078750
     32 C22         7.6630    2.2420    2.0770 c3        1 BT2     -0.078750
     33 N3          7.1480    3.2890    1.5110 n3        1 BT2     -0.251000
     34 C28         8.2690    4.4260    1.5780 c3        1 BT2     -0.078750
     35 C29         8.8890    4.2770    2.7610 c3        1 BT2     -0.172250
     36 C30         8.7310    2.8110    3.1060 c3        1 BT2     -0.172250
     37 C33        -4.9520   -4.7270    2.0920 c3        1 BT2     -0.089500
     38 C34         6.8420    2.9880    0.1210 c3        1 BT2     -0.089500
     39 H1         -4.6600    2.1370   -6.7920 ha        1 BT2      0.137833
     40 H2         -2.2960    2.2740   -6.6840 ha        1 BT2      0.136500
     41 H5         -4.7790    2.0110   -2.6190 ha        1 BT2      0.136500
     42 H6         -5.9030    2.0050   -4.7400 ha        1 BT2      0.137833
     43 H71        -1.4630    2.2000   -0.1910 ha        1 BT2      0.097500
     44 H72        -2.8300    2.9240   -0.5950 ha        1 BT2      0.097500
     45 H12         0.6070    4.2650   -1.7680 ha        1 BT2      0.137833
     46 H14         2.8520    4.5830   -1.0520 ha        1 BT2      0.137833
     47 H18         3.8030    0.7790   -2.2370 ha        1 BT2      0.145000
     48 H20         1.5580    0.4620   -2.9530 ha        1 BT2      0.142000
     49 H241        5.1960    1.7250    0.1400 h1        1 BT2      0.095250
     50 H242        4.8220    3.2000    0.6480 h1        1 BT2      0.095250
     51 H11        -3.8550    1.6640    1.3610 ha        1 BT2      0.137833
     52 H15        -2.3840   -0.2660   -1.9370 ha        1 BT2      0.142000
     53 H32        -3.5140   -2.2650   -1.3530 ha        1 BT2      0.145000
     54 H21        -5.0080   -0.3410    1.9810 ha        1 BT2      0.137833
     55 H251       -3.8720   -2.9830    2.3740 h1        1 BT2      0.095250
     56 H252       -3.4020   -3.7710    1.1240 h1        1 BT2      0.095250
     57 H171       -2.7990   -7.9940    3.2980 hc        1 BT2      0.087125
     58 H172       -3.8020   -7.9230    4.5050 hc        1 BT2      0.087125
     59 H231       -4.3020   -9.0440    2.4790 hc        1 BT2      0.087125
     60 H232       -5.4460   -8.3090    3.4030 hc        1 BT2      0.087125
     61 H261       -4.4560   -7.4680    0.8790 h1        1 BT2      0.083375
     62 H262       -5.7710   -6.9470    1.6340 h1        1 BT2      0.083375
     63 H271       -2.9110   -5.6630    3.6460 h1        1 BT2      0.083375
     64 H272       -4.4690   -5.7260    4.0090 h1        1 BT2      0.083375
     65 H221        8.1090    1.6670    1.3990 h1        1 BT2      0.083375
     66 H222        6.9930    1.7520    2.5360 h1        1 BT2      0.083375
     67 H281        7.8550    5.3070    1.5260 h1        1 BT2      0.083375
     68 H282        8.9260    4.3080    0.8280 h1        1 BT2      0.083375
     69 H291        9.8330    4.5060    2.6800 hc        1 BT2      0.087125
     70 H292        8.4580    4.8380    3.4460 hc        1 BT2      0.087125
     71 H301        8.3960    2.7110    4.0460 hc        1 BT2      0.087125
     72 H302        9.5890    2.3420    2.9990 hc        1 BT2      0.087125
     73 H331       -5.3480   -4.5400    2.9950 h1        1 BT2      0.085500
     74 H332       -5.6870   -4.9260    1.4390 h1        1 BT2      0.085500
     75 H341        7.3650    2.2220   -0.1670 h1        1 BT2      0.085500
     76 H342        7.0630    3.7590   -0.4330 h1        1 BT2      0.085500
@<TRIPOS>BOND
     1    1    6 1   
     2    1   39 1   
     3    2    3 1   
     4    2   40 1   
     5    4    5 1   
     6    5   41 1   
     7    6   42 1   
     8    7    8 1   
     9    8    9 1   
    10    8   11 1   
    11   10   20 1   
    12   10   43 1   
    13   10   44 1   
    14   11   16 1   
    15   12   13 1   
    16   12   45 1   
    17   13   46 1   
    18   14   15 1   
    19   14   17 1   
    20   15   47 1   
    21   16   48 1   
    22   17   18 1   
    23   18   38 1   
    24   18   49 1   
    25   18   50 1   
    26   19   24 1   
    27   19   51 1   
    28   20   21 1   
    29   21   52 1   
    30   22   23 1   
    31   22   53 1   
    32   23   25 1   
    33   24   54 1   
    34   25   26 1   
    35   26   37 1   
    36   26   55 1   
    37   26   56 1   
    38   27   28 1   
    39   27   31 1   
    40   27   57 1   
    41   27   58 1   
    42   28   29 1   
    43   28   59 1   
    44   28   60 1   
    45   29   30 1   
    46   29   61 1   
    47   29   62 1   
    48   30   31 1   
    49   30   37 1   
    50   31   63 1   
    51   31   64 1   
    52   32   33 1   
    53   32   36 1   
    54   32   65 1   
    55   32   66 1   
    56   33   34 1   
    57   33   38 1   
    58   34   35 1   
    59   34   67 1   
    60   34   68 1   
    61   35   36 1   
    62   35   69 1   
    63   35   70 1   
    64   36   71 1   
    65   36   72 1   
    66   37   73 1   
    67   37   74 1   
    68   38   75 1   
    69   38   76 1   
@<TRIPOS>SUBSTRUCTURE
     1 BT2         1 TEMP              0 ****  ****    0 ROOT
