@<TRIPOS>MOLECULE
BT2
   76    81     1     0     0
SMALL
bcc


@<TRIPOS>ATOM
      1 C1         -6.7150   -0.7100    1.7900 ca        1 BT2     -0.121000
      2 C2         -6.2370   -1.1810    0.5790 ca        1 BT2     -0.097000
      3 C3         -5.0070   -0.7120    0.1000 ca        1 BT2     -0.076100
      4 C4         -4.2630    0.2360    0.8550 ca        1 BT2     -0.071800
      5 C5         -4.7620    0.6990    2.0820 ca        1 BT2     -0.087000
      6 C6         -5.9800    0.2260    2.5400 ca        1 BT2     -0.136000
      7 S1         -4.2020   -1.1120   -1.3240 ss        1 BT2      0.025500
      8 C8         -2.8890   -0.0800   -1.0030 cc        1 BT2     -0.032600
      9 C9         -3.0300    0.5920    0.1890 cd        1 BT2     -0.058400
     10 C7         -2.0710    1.5760    0.7440 c3        1 BT2      0.027100
     11 C10        -1.7930    0.0240   -1.9450 ca        1 BT2     -0.072800
     12 C12        -0.9240   -1.0620   -2.1430 ca        1 BT2     -0.079500
     13 C14         0.1240   -0.9750   -3.0490 ca        1 BT2     -0.184500
     14 C16         0.3140    0.2190   -3.7730 ca        1 BT2      0.136100
     15 C18        -0.5410    1.3100   -3.5820 ca        1 BT2     -0.184500
     16 C20        -1.5880    1.2050   -2.6680 ca        1 BT2     -0.079500
     17 O2          1.3810    0.1990   -4.6470 os        1 BT2     -0.336900
     18 C24         1.6210    1.4120   -5.3740 c3        1 BT2      0.125400
     19 C11        -1.2150    1.4470    3.0990 ca        1 BT2     -0.091500
     20 C13        -1.1680    0.9940    1.7790 ca        1 BT2     -0.109300
     21 C15        -0.2410    0.0020    1.4270 ca        1 BT2     -0.091500
     22 C32         0.6270   -0.5260    2.3710 ca        1 BT2     -0.180500
     23 C19         0.5690   -0.0590    3.6990 ca        1 BT2      0.128100
     24 C21        -0.3520    0.9290    4.0640 ca        1 BT2     -0.180500
     25 O3          1.4620   -0.6600    4.5620 os        1 BT2     -0.321900
     26 C25         1.5070   -0.1250    5.8890 c3        1 BT2      0.129400
     27 C17         5.3490    0.9830    7.9950 c3        1 BT2     -0.094400
     28 C23         5.9540   -0.4050    7.8360 c3        1 BT2     -0.094400
     29 C26         5.0350   -1.1640    6.8660 c3        1 BT2      0.159300
     30 N2          3.9360   -0.2910    6.4470 n3        1 BT2     -0.720600
     31 C27         4.0970    1.0080    7.1030 c3        1 BT2      0.159300
     32 C22         3.7710    0.6140   -8.4170 c3        1 BT2      0.152800
     33 N3          2.5880    0.6520   -7.5510 n3        1 BT2     -0.723600
     34 C28         1.9610   -0.6720   -7.5820 c3        1 BT2      0.152800
     35 C29         2.8580   -1.6530   -8.3550 c3        1 BT2     -0.096400
     36 C30         4.0040   -0.8210   -8.9150 c3        1 BT2     -0.096400
     37 C33         2.6250   -0.8890    6.6110 c3        1 BT2      0.166800
     38 C34         2.8760    1.1530   -6.2180 c3        1 BT2      0.163800
     39 H1         -7.6800   -1.0700    2.1770 ha        1 BT2      0.132000
     40 H2         -6.8120   -1.9140   -0.0050 ha        1 BT2      0.136000
     41 H5         -4.1760    1.4230    2.6670 ha        1 BT2      0.136000
     42 H6         -6.3820    0.5800    3.5010 ha        1 BT2      0.131000
     43 H71        -2.6480    2.4380    1.1810 hc        1 BT2      0.057200
     44 H72        -1.4400    1.9850   -0.0960 hc        1 BT2      0.057200
     45 H12        -1.0750   -1.9910   -1.5720 ha        1 BT2      0.141500
     46 H14         0.8080   -1.8200   -3.2100 ha        1 BT2      0.145500
     47 H18        -0.4030    2.2460   -4.1410 ha        1 BT2      0.145500
     48 H20        -2.2640    2.0610   -2.5160 ha        1 BT2      0.141500
     49 H241        0.7260    1.6610   -5.9990 h1        1 BT2      0.051200
     50 H242        1.8250    2.2420   -4.6470 h1        1 BT2      0.051200
     51 H11        -1.9410    2.2230    3.3880 ha        1 BT2      0.134000
     52 H15        -0.2100   -0.3600    0.3860 ha        1 BT2      0.134000
     53 H32         1.3590   -1.3020    2.1040 ha        1 BT2      0.141000
     54 H21        -0.4090    1.3000    5.0960 ha        1 BT2      0.141000
     55 H251        0.5270   -0.3260    6.3970 h1        1 BT2      0.042200
     56 H252        1.6960    0.9790    5.8510 h1        1 BT2      0.042200
     57 H172        6.0690    1.7750    7.6740 hc        1 BT2      0.046950
     58 H231        6.9900   -0.3460    7.4230 hc        1 BT2      0.046950
     59 H232        6.0080   -0.9340    8.8180 hc        1 BT2      0.046950
     60 H261        5.5980   -1.4460    5.9340 h1        1 BT2      0.043200
     61 H262        4.6690   -2.1140    7.3440 h1        1 BT2      0.043200
     62 H271        3.1940    1.2910    7.7110 h1        1 BT2      0.043200
     63 H272        4.2150    1.7740    6.2880 h1        1 BT2      0.043200
     64 H221        3.5560    1.2960   -9.2850 h1        1 BT2      0.050200
     65 H222        4.6910    0.9990   -7.8990 h1        1 BT2      0.050200
     66 H281        1.7480   -1.0600   -6.5480 h1        1 BT2      0.050200
     67 H282        0.9780   -0.5510   -8.1140 h1        1 BT2      0.050200
     68 H291        2.2800   -2.1480   -9.1720 hc        1 BT2      0.046450
     69 H292        3.2400   -2.4530   -7.6750 hc        1 BT2      0.046450
     70 H301        4.0120   -0.8470  -10.0320 hc        1 BT2      0.046450
     71 H302        4.9910   -1.2050   -8.5590 hc        1 BT2      0.046450
     72 H331        2.6660   -1.9310    6.1810 h1        1 BT2      0.046200
     73 H332        2.3210   -0.9700    7.6960 h1        1 BT2      0.046200
     74 H341        3.3990    2.1450   -6.3400 h1        1 BT2      0.046700
     75 H342        3.5570    0.4690   -5.6320 h1        1 BT2      0.046700
     76 H171        5.0750    1.1830    9.0590 hc        1 BT2      0.046950
@<TRIPOS>BOND
     1    1    2 ar  
     2    1    6 ar  
     3    1   39 1   
     4    2    3 ar  
     5    2   40 1   
     6    3    4 ar  
     7    3    7 1   
     8    4    5 ar  
     9    4    9 1   
    10    5    6 ar  
    11    5   41 1   
    12    6   42 1   
    13    7    8 1   
    14    8    9 2   
    15    8   11 1   
    16    9   10 1   
    17   10   20 1   
    18   10   43 1   
    19   10   44 1   
    20   11   12 ar  
    21   11   16 ar  
    22   12   13 ar  
    23   12   45 1   
    24   13   14 ar  
    25   13   46 1   
    26   14   15 ar  
    27   14   17 1   
    28   15   16 ar  
    29   15   47 1   
    30   16   48 1   
    31   17   18 1   
    32   18   38 1   
    33   18   49 1   
    34   18   50 1   
    35   19   20 ar  
    36   19   24 ar  
    37   19   51 1   
    38   20   21 ar  
    39   21   22 ar  
    40   21   52 1   
    41   22   23 ar  
    42   22   53 1   
    43   23   24 ar  
    44   23   25 1   
    45   24   54 1   
    46   25   26 1   
    47   26   37 1   
    48   26   55 1   
    49   26   56 1   
    50   27   28 1   
    51   27   31 1   
    52   27   57 1   
    53   27   76 1   
    54   28   29 1   
    55   28   58 1   
    56   28   59 1   
    57   29   30 1   
    58   29   60 1   
    59   29   61 1   
    60   30   31 1   
    61   30   37 1   
    62   31   62 1   
    63   31   63 1   
    64   32   33 1   
    65   32   36 1   
    66   32   64 1   
    67   32   65 1   
    68   33   34 1   
    69   33   38 1   
    70   34   35 1   
    71   34   66 1   
    72   34   67 1   
    73   35   36 1   
    74   35   68 1   
    75   35   69 1   
    76   36   70 1   
    77   36   71 1   
    78   37   72 1   
    79   37   73 1   
    80   38   74 1   
    81   38   75 1   
@<TRIPOS>SUBSTRUCTURE
     1 BT2         1 TEMP              0 ****  ****    0 ROOT
