@<TRIPOS>MOLECULE
BT2
   76    81     1     0     0
SMALL
bcc


@<TRIPOS>ATOM
      1 C1          0.6920    0.0510   -0.3040 ca        1 BT2     -0.121000
      2 C2          2.0510    0.1680   -0.0650 ca        1 BT2     -0.097000
      3 C3          2.5180    0.1420    1.2550 ca        1 BT2     -0.076100
      4 C4          1.6010   -0.0030    2.3330 ca        1 BT2     -0.071800
      5 C5          0.2280   -0.1240    2.0710 ca        1 BT2     -0.087000
      6 C6         -0.2170   -0.0960    0.7600 ca        1 BT2     -0.136000
      7 S1          4.0990    0.2630    1.8230 ss        1 BT2      0.025500
      8 C8          3.6410    0.1350    3.4560 cc        1 BT2     -0.032600
      9 C9          2.2810   -0.0040    3.6090 cd        1 BT2     -0.058400
     10 C7          1.5660   -0.1200    4.9010 c3        1 BT2      0.027100
     11 C10         4.6410    0.1840    4.5020 ca        1 BT2     -0.072800
     12 C12         5.5650   -0.8640    4.6510 ca        1 BT2     -0.079500
     13 C14         6.5310   -0.8220    5.6450 ca        1 BT2     -0.184500
     14 C16         6.5810    0.2860    6.5130 ca        1 BT2      0.136100
     15 C18         5.6650    1.3370    6.3790 ca        1 BT2     -0.184500
     16 C20         4.7010    1.2770    5.3750 ca        1 BT2     -0.079500
     17 O2          7.5800    0.2310    7.4630 os        1 BT2     -0.336900
     18 C24         7.6330    1.3270    8.3860 c3        1 BT2      0.125400
     19 C11        -0.1100   -1.9300    5.3610 ca        1 BT2     -0.091500
     20 C13         1.2230   -1.5280    5.2560 ca        1 BT2     -0.109300
     21 C15         2.2420   -2.4560    5.5150 ca        1 BT2     -0.091500
     22 C32         1.9400   -3.7610    5.8780 ca        1 BT2     -0.180500
     23 C19         0.5900   -4.1520    5.9810 ca        1 BT2      0.128100
     24 C21        -0.4370   -3.2370    5.7220 ca        1 BT2     -0.180500
     25 O3          0.3970   -5.4730    6.3300 os        1 BT2     -0.321900
     26 C25        -0.9590   -5.8670    6.5640 c3        1 BT2      0.129400
     27 C17        -2.2770   -8.1590   10.2290 c3        1 BT2     -0.094400
     28 C23        -1.3060   -9.3060    9.9840 c3        1 BT2     -0.094400
     29 C26        -0.3590   -8.8340    8.8690 c3        1 BT2      0.159300
     30 N2         -0.7230   -7.4760    8.4600 n3        1 BT2     -0.720600
     31 C27        -1.8680   -7.0390    9.2590 c3        1 BT2      0.159300
     32 C22        11.0850    1.4100    9.9980 c3        1 BT2      0.152800
     33 N3         10.0580    1.5420    8.9590 n3        1 BT2     -0.723600
     34 C28        10.5940    0.9790    7.7170 c3        1 BT2      0.152800
     35 C29        11.9470    0.3040    7.9950 c3        1 BT2     -0.096400
     36 C30        12.2750    0.6060    9.4510 c3        1 BT2     -0.096400
     37 C33        -0.8970   -7.3290    7.0270 c3        1 BT2      0.166800
     38 C34         8.7710    1.0000    9.3620 c3        1 BT2      0.163800
     39 H1          0.3120    0.0710   -1.3360 ha        1 BT2      0.132000
     40 H2          2.7600    0.2810   -0.8980 ha        1 BT2      0.136000
     41 H5         -0.4750   -0.2500    2.9080 ha        1 BT2      0.136000
     42 H6         -1.2900   -0.1910    0.5410 ha        1 BT2      0.131000
     43 H71         0.6280    0.5010    4.8540 hc        1 BT2      0.057200
     44 H72         2.2130    0.3090    5.7170 hc        1 BT2      0.057200
     45 H12         5.5180   -1.7300    3.9720 ha        1 BT2      0.141500
     46 H14         7.2570   -1.6380    5.7680 ha        1 BT2      0.145500
     47 H18         5.6950    2.2070    7.0500 ha        1 BT2      0.145500
     48 H20         3.9790    2.1020    5.2660 ha        1 BT2      0.141500
     49 H241        7.8070    2.2830    7.8270 h1        1 BT2      0.051200
     50 H242        6.6640    1.3830    8.9480 h1        1 BT2      0.051200
     51 H11        -0.9180   -1.2110    5.1560 ha        1 BT2      0.134000
     52 H15         3.2940   -2.1390    5.4250 ha        1 BT2      0.134000
     53 H32         2.7310   -4.4950    6.0860 ha        1 BT2      0.141000
     54 H21        -1.4920   -3.5300    5.7970 ha        1 BT2      0.141000
     55 H251       -1.5290   -5.8040    5.5990 h1        1 BT2      0.042200
     56 H252       -1.4290   -5.1930    7.3260 h1        1 BT2      0.042200
     57 H172       -2.2180   -7.7990   11.2840 hc        1 BT2      0.046950
     58 H231       -0.7270   -9.5450   10.9090 hc        1 BT2      0.046950
     59 H232       -1.8470  -10.2320    9.6730 hc        1 BT2      0.046950
     60 H261       -0.3830   -9.5610    8.0110 h1        1 BT2      0.043200
     61 H262        0.6990   -8.7860    9.2480 h1        1 BT2      0.043200
     62 H271       -2.7440   -6.7420    8.6180 h1        1 BT2      0.043200
     63 H272       -1.5400   -6.1290    9.8320 h1        1 BT2      0.043200
     64 H221       11.4110    2.4530   10.2620 h1        1 BT2      0.050200
     65 H222       10.6870    0.9280   10.9320 h1        1 BT2      0.050200
     66 H281        9.8790    0.2530    7.2420 h1        1 BT2      0.050200
     67 H282       10.7340    1.8400    7.0070 h1        1 BT2      0.050200
     68 H291       12.7320    0.7080    7.3110 hc        1 BT2      0.046450
     69 H292       11.8780   -0.7970    7.8210 hc        1 BT2      0.046450
     70 H301       12.4140   -0.3360   10.0360 hc        1 BT2      0.046450
     71 H302       13.2170    1.2010    9.5370 hc        1 BT2      0.046450
     72 H331       -0.0140   -7.8150    6.5210 h1        1 BT2      0.046200
     73 H332       -1.8360   -7.8330    6.6540 h1        1 BT2      0.046200
     74 H341        8.7960   -0.1190    9.5080 h1        1 BT2      0.046700
     75 H342        8.5030    1.4750   10.3480 h1        1 BT2      0.046700
     76 H171       -3.3310   -8.4770   10.0370 hc        1 BT2      0.046950
@<TRIPOS>BOND
     1    1    2 ar  
     2    1    6 ar  
     3    1   39 1   
     4    2    3 ar  
     5    2   40 1   
     6    3    4 ar  
     7    3    7 1   
     8    4    5 ar  
     9    4    9 1   
    10    5    6 ar  
    11    5   41 1   
    12    6   42 1   
    13    7    8 1   
    14    8    9 2   
    15    8   11 1   
    16    9   10 1   
    17   10   20 1   
    18   10   43 1   
    19   10   44 1   
    20   11   12 ar  
    21   11   16 ar  
    22   12   13 ar  
    23   12   45 1   
    24   13   14 ar  
    25   13   46 1   
    26   14   15 ar  
    27   14   17 1   
    28   15   16 ar  
    29   15   47 1   
    30   16   48 1   
    31   17   18 1   
    32   18   38 1   
    33   18   49 1   
    34   18   50 1   
    35   19   20 ar  
    36   19   24 ar  
    37   19   51 1   
    38   20   21 ar  
    39   21   22 ar  
    40   21   52 1   
    41   22   23 ar  
    42   22   53 1   
    43   23   24 ar  
    44   23   25 1   
    45   24   54 1   
    46   25   26 1   
    47   26   37 1   
    48   26   55 1   
    49   26   56 1   
    50   27   28 1   
    51   27   31 1   
    52   27   57 1   
    53   27   76 1   
    54   28   29 1   
    55   28   58 1   
    56   28   59 1   
    57   29   30 1   
    58   29   60 1   
    59   29   61 1   
    60   30   31 1   
    61   30   37 1   
    62   31   62 1   
    63   31   63 1   
    64   32   33 1   
    65   32   36 1   
    66   32   64 1   
    67   32   65 1   
    68   33   34 1   
    69   33   38 1   
    70   34   35 1   
    71   34   66 1   
    72   34   67 1   
    73   35   36 1   
    74   35   68 1   
    75   35   69 1   
    76   36   70 1   
    77   36   71 1   
    78   37   72 1   
    79   37   73 1   
    80   38   74 1   
    81   38   75 1   
@<TRIPOS>SUBSTRUCTURE
     1 BT2         1 TEMP              0 ****  ****    0 ROOT
