@<TRIPOS>MOLECULE
BT2
   76    81     1     0     0
SMALL
bcc


@<TRIPOS>ATOM
      1 C1          0.6830    0.0450   -0.2900 ca        1 BT2     -0.121000
      2 C2          2.0430    0.1610   -0.0550 ca        1 BT2     -0.097000
      3 C3          2.5130    0.1360    1.2640 ca        1 BT2     -0.076100
      4 C4          1.5990   -0.0060    2.3440 ca        1 BT2     -0.071800
      5 C5          0.2250   -0.1270    2.0860 ca        1 BT2     -0.087000
      6 C6         -0.2230   -0.1000    0.7760 ca        1 BT2     -0.136000
      7 S1          4.0960    0.2570    1.8280 ss        1 BT2      0.025500
      8 C8          3.6420    0.1310    3.4620 cc        1 BT2     -0.032600
      9 C9          2.2810   -0.0060    3.6190 cd        1 BT2     -0.058400
     10 C7          1.5690   -0.1200    4.9130 c3        1 BT2      0.027100
     11 C10         4.6440    0.1820    4.5060 ca        1 BT2     -0.072800
     12 C12         5.5670   -0.8680    4.6540 ca        1 BT2     -0.079500
     13 C14         6.5360   -0.8240    5.6460 ca        1 BT2     -0.184500
     14 C16         6.5900    0.2860    6.5120 ca        1 BT2      0.136100
     15 C18         5.6750    1.3370    6.3780 ca        1 BT2     -0.184500
     16 C20         4.7080    1.2760    5.3770 ca        1 BT2     -0.079500
     17 O2          7.5910    0.2320    7.4590 os        1 BT2     -0.336900
     18 C24         7.6510    1.3320    8.3770 c3        1 BT2      0.125400
     19 C11        -0.1090   -1.9260    5.3750 ca        1 BT2     -0.091500
     20 C13         1.2240   -1.5260    5.2700 ca        1 BT2     -0.109300
     21 C15         2.2420   -2.4560    5.5290 ca        1 BT2     -0.091500
     22 C32         1.9380   -3.7600    5.8930 ca        1 BT2     -0.180500
     23 C19         0.5870   -4.1490    5.9970 ca        1 BT2      0.128100
     24 C21        -0.4380   -3.2320    5.7380 ca        1 BT2     -0.180500
     25 O3          0.3930   -5.4700    6.3480 os        1 BT2     -0.321900
     26 C25        -0.9650   -5.8620    6.5740 c3        1 BT2      0.129400
     27 C17        -2.3100   -8.1660   10.2220 c3        1 BT2     -0.094400
     28 C23        -1.3360   -9.3110    9.9820 c3        1 BT2     -0.094400
     29 C26        -0.3800   -8.8360    8.8770 c3        1 BT2      0.159300
     30 N2         -0.7410   -7.4760    8.4680 n3        1 BT2     -0.720600
     31 C27        -1.8930   -7.0420    9.2600 c3        1 BT2      0.159300
     32 C22        11.1100    1.4170    9.9700 c3        1 BT2      0.152800
     33 N3         10.0780    1.5460    8.9370 n3        1 BT2     -0.722600
     34 C28        10.6080    0.9780    7.6940 c3        1 BT2      0.152800
     35 C29        11.9610    0.3020    7.9680 c3        1 BT2     -0.096400
     36 C30        12.2980    0.6100    9.4210 c3        1 BT2     -0.096400
     37 C33        -0.9050   -7.3260    7.0350 c3        1 BT2      0.166800
     38 C34         8.7930    1.0070    9.3480 c3        1 BT2      0.163800
     39 H1          0.3020    0.0630   -1.3220 ha        1 BT2      0.132000
     40 H2          2.7500    0.2710   -0.8900 ha        1 BT2      0.136000
     41 H5         -0.4760   -0.2500    2.9250 ha        1 BT2      0.136000
     42 H6         -1.2970   -0.1940    0.5590 ha        1 BT2      0.131000
     43 H71         2.2200    0.3090    5.7270 hc        1 BT2      0.057200
     44 H72         0.6330    0.5030    4.8680 hc        1 BT2      0.057200
     45 H12         5.5180   -1.7350    3.9780 ha        1 BT2      0.141500
     46 H14         7.2610   -1.6410    5.7690 ha        1 BT2      0.145500
     47 H18         5.7070    2.2080    7.0470 ha        1 BT2      0.145500
     48 H20         3.9860    2.1010    5.2680 ha        1 BT2      0.141500
     49 H241        6.6840    1.3910    8.9430 h1        1 BT2      0.051200
     50 H242        7.8230    2.2850    7.8130 h1        1 BT2      0.051200
     51 H11        -0.9160   -1.2060    5.1700 ha        1 BT2      0.134000
     52 H15         3.2950   -2.1410    5.4390 ha        1 BT2      0.134000
     53 H32         2.7280   -4.4950    6.1010 ha        1 BT2      0.141000
     54 H21        -1.4940   -3.5240    5.8130 ha        1 BT2      0.141000
     55 H251       -1.4370   -5.1910    7.3370 h1        1 BT2      0.042200
     56 H252       -1.5300   -5.7970    5.6070 h1        1 BT2      0.042200
     57 H172       -3.3620   -8.4840   10.0200 hc        1 BT2      0.046950
     58 H231       -1.8740  -10.2370    9.6640 hc        1 BT2      0.046950
     59 H232       -0.7640   -9.5530   10.9110 hc        1 BT2      0.046950
     60 H261       -0.3960   -9.5600    8.0170 h1        1 BT2      0.043200
     61 H262        0.6740   -8.7880    9.2650 h1        1 BT2      0.043200
     62 H271       -2.7640   -6.7430    8.6140 h1        1 BT2      0.043200
     63 H272       -1.5690   -6.1340    9.8380 h1        1 BT2      0.043200
     64 H221       11.4380    2.4610   10.2290 h1        1 BT2      0.050200
     65 H222       10.7170    0.9390   10.9090 h1        1 BT2      0.050200
     66 H281        9.8900    0.2500    7.2260 h1        1 BT2      0.050200
     67 H282       10.7450    1.8360    6.9800 h1        1 BT2      0.050200
     68 H291       12.7430    0.7030    7.2780 hc        1 BT2      0.046450
     69 H292       11.8900   -0.8000    7.7980 hc        1 BT2      0.046450
     70 H301       13.2400    1.2040    9.4990 hc        1 BT2      0.046450
     71 H302       12.4380   -0.3300   10.0080 hc        1 BT2      0.046450
     72 H331       -1.8410   -7.8300    6.6530 h1        1 BT2      0.046200
     73 H332       -0.0180   -7.8100    6.5340 h1        1 BT2      0.046200
     74 H341        8.5300    1.4870   10.3340 h1        1 BT2      0.046700
     75 H342        8.8170   -0.1120    9.4980 h1        1 BT2      0.046700
     76 H171       -2.2600   -7.8100   11.2800 hc        1 BT2      0.046950
@<TRIPOS>BOND
     1    1    2 ar  
     2    1    6 ar  
     3    1   39 1   
     4    2    3 ar  
     5    2   40 1   
     6    3    4 ar  
     7    3    7 1   
     8    4    5 ar  
     9    4    9 1   
    10    5    6 ar  
    11    5   41 1   
    12    6   42 1   
    13    7    8 1   
    14    8    9 2   
    15    8   11 1   
    16    9   10 1   
    17   10   20 1   
    18   10   43 1   
    19   10   44 1   
    20   11   12 ar  
    21   11   16 ar  
    22   12   13 ar  
    23   12   45 1   
    24   13   14 ar  
    25   13   46 1   
    26   14   15 ar  
    27   14   17 1   
    28   15   16 ar  
    29   15   47 1   
    30   16   48 1   
    31   17   18 1   
    32   18   38 1   
    33   18   49 1   
    34   18   50 1   
    35   19   20 ar  
    36   19   24 ar  
    37   19   51 1   
    38   20   21 ar  
    39   21   22 ar  
    40   21   52 1   
    41   22   23 ar  
    42   22   53 1   
    43   23   24 ar  
    44   23   25 1   
    45   24   54 1   
    46   25   26 1   
    47   26   37 1   
    48   26   55 1   
    49   26   56 1   
    50   27   28 1   
    51   27   31 1   
    52   27   57 1   
    53   27   76 1   
    54   28   29 1   
    55   28   58 1   
    56   28   59 1   
    57   29   30 1   
    58   29   60 1   
    59   29   61 1   
    60   30   31 1   
    61   30   37 1   
    62   31   62 1   
    63   31   63 1   
    64   32   33 1   
    65   32   36 1   
    66   32   64 1   
    67   32   65 1   
    68   33   34 1   
    69   33   38 1   
    70   34   35 1   
    71   34   66 1   
    72   34   67 1   
    73   35   36 1   
    74   35   68 1   
    75   35   69 1   
    76   36   70 1   
    77   36   71 1   
    78   37   72 1   
    79   37   73 1   
    80   38   74 1   
    81   38   75 1   
@<TRIPOS>SUBSTRUCTURE
     1 BT2         1 TEMP              0 ****  ****    0 ROOT
