@<TRIPOS>MOLECULE
BT2
   76    81     1     0     0
SMALL
bcc


@<TRIPOS>ATOM
      1 C1          0.6860    0.0430   -0.2960 ca        1 BT2     -0.121000
      2 C2          2.0460    0.1600   -0.0600 ca        1 BT2     -0.097000
      3 C3          2.5150    0.1360    1.2590 ca        1 BT2     -0.076100
      4 C4          1.6000   -0.0070    2.3390 ca        1 BT2     -0.071800
      5 C5          0.2270   -0.1280    2.0800 ca        1 BT2     -0.087000
      6 C6         -0.2210   -0.1010    0.7700 ca        1 BT2     -0.136000
      7 S1          4.0970    0.2560    1.8240 ss        1 BT2      0.026500
      8 C8          3.6420    0.1310    3.4580 cc        1 BT2     -0.032600
      9 C9          2.2820   -0.0060    3.6140 cd        1 BT2     -0.058400
     10 C7          1.5690   -0.1200    4.9070 c3        1 BT2      0.027100
     11 C10         4.6440    0.1820    4.5020 ca        1 BT2     -0.072800
     12 C12         5.5670   -0.8670    4.6510 ca        1 BT2     -0.079500
     13 C14         6.5350   -0.8230    5.6440 ca        1 BT2     -0.184500
     14 C16         6.5880    0.2870    6.5100 ca        1 BT2      0.136100
     15 C18         5.6730    1.3370    6.3750 ca        1 BT2     -0.184500
     16 C20         4.7070    1.2770    5.3730 ca        1 BT2     -0.079500
     17 O2          7.5890    0.2320    7.4580 os        1 BT2     -0.336900
     18 C24         7.6450    1.3310    8.3780 c3        1 BT2      0.125400
     19 C11        -0.1080   -1.9270    5.3710 ca        1 BT2     -0.091500
     20 C13         1.2250   -1.5260    5.2650 ca        1 BT2     -0.109300
     21 C15         2.2430   -2.4550    5.5260 ca        1 BT2     -0.091500
     22 C32         1.9400   -3.7590    5.8900 ca        1 BT2     -0.180500
     23 C19         0.5890   -4.1490    5.9940 ca        1 BT2      0.128100
     24 C21        -0.4360   -3.2330    5.7340 ca        1 BT2     -0.180500
     25 O3          0.3960   -5.4700    6.3460 os        1 BT2     -0.321900
     26 C25        -0.9610   -5.8630    6.5730 c3        1 BT2      0.129400
     27 C17        -2.3040   -8.1630   10.2240 c3        1 BT2     -0.094400
     28 C23        -1.3300   -9.3080    9.9850 c3        1 BT2     -0.094400
     29 C26        -0.3740   -8.8330    8.8790 c3        1 BT2      0.159300
     30 N2         -0.7360   -7.4750    8.4680 n3        1 BT2     -0.720600
     31 C27        -1.8880   -7.0400    9.2610 c3        1 BT2      0.159300
     32 C22        11.1010    1.4150    9.9790 c3        1 BT2      0.152800
     33 N3         10.0710    1.5450    8.9430 n3        1 BT2     -0.722600
     34 C28        10.6040    0.9780    7.7020 c3        1 BT2      0.152800
     35 C29        11.9570    0.3020    7.9780 c3        1 BT2     -0.096400
     36 C30        12.2900    0.6090    9.4320 c3        1 BT2     -0.096400
     37 C33        -0.9010   -7.3260    7.0350 c3        1 BT2      0.166800
     38 C34         8.7850    1.0060    9.3510 c3        1 BT2      0.163800
     39 H1          0.3050    0.0610   -1.3280 ha        1 BT2      0.132000
     40 H2          2.7530    0.2700   -0.8940 ha        1 BT2      0.136000
     41 H5         -0.4750   -0.2510    2.9180 ha        1 BT2      0.136000
     42 H6         -1.2950   -0.1950    0.5520 ha        1 BT2      0.131000
     43 H71         2.2190    0.3100    5.7220 hc        1 BT2      0.057200
     44 H72         0.6330    0.5020    4.8620 hc        1 BT2      0.057200
     45 H12         5.5190   -1.7340    3.9740 ha        1 BT2      0.141500
     46 H14         7.2610   -1.6400    5.7670 ha        1 BT2      0.145500
     47 H18         5.7040    2.2080    7.0440 ha        1 BT2      0.145500
     48 H20         3.9850    2.1010    5.2640 ha        1 BT2      0.141500
     49 H241        7.8180    2.2850    7.8160 h1        1 BT2      0.051200
     50 H242        6.6780    1.3880    8.9420 h1        1 BT2      0.051200
     51 H11        -0.9160   -1.2080    5.1650 ha        1 BT2      0.134000
     52 H15         3.2960   -2.1390    5.4340 ha        1 BT2      0.134000
     53 H32         2.7300   -4.4930    6.0990 ha        1 BT2      0.141000
     54 H21        -1.4920   -3.5250    5.8100 ha        1 BT2      0.141000
     55 H251       -1.4340   -5.1900    7.3350 h1        1 BT2      0.042200
     56 H252       -1.5270   -5.7990    5.6060 h1        1 BT2      0.042200
     57 H172       -3.3560   -8.4820   10.0220 hc        1 BT2      0.046950
     58 H231       -0.7580   -9.5480   10.9140 hc        1 BT2      0.046950
     59 H232       -1.8680  -10.2340    9.6670 hc        1 BT2      0.046950
     60 H261       -0.3900   -9.5580    8.0190 h1        1 BT2      0.043200
     61 H262        0.6800   -8.7850    9.2660 h1        1 BT2      0.043200
     62 H271       -1.5640   -6.1310    9.8380 h1        1 BT2      0.043200
     63 H272       -2.7590   -6.7420    8.6140 h1        1 BT2      0.043200
     64 H221       11.4280    2.4590   10.2400 h1        1 BT2      0.050200
     65 H222       10.7060    0.9360   10.9160 h1        1 BT2      0.050200
     66 H281        9.8880    0.2510    7.2310 h1        1 BT2      0.050200
     67 H282       10.7430    1.8370    6.9890 h1        1 BT2      0.050200
     68 H291       12.7400    0.7040    7.2900 hc        1 BT2      0.046450
     69 H292       11.8870   -0.7990    7.8070 hc        1 BT2      0.046450
     70 H301       13.2320    1.2040    9.5130 hc        1 BT2      0.046450
     71 H302       12.4300   -0.3310   10.0190 hc        1 BT2      0.046450
     72 H331       -0.0140   -7.8100    6.5350 h1        1 BT2      0.046200
     73 H332       -1.8370   -7.8300    6.6540 h1        1 BT2      0.046200
     74 H341        8.8090   -0.1140    9.5000 h1        1 BT2      0.046700
     75 H342        8.5200    1.4830   10.3370 h1        1 BT2      0.046700
     76 H171       -2.2540   -7.8060   11.2810 hc        1 BT2      0.046950
@<TRIPOS>BOND
     1    1    2 ar  
     2    1    6 ar  
     3    1   39 1   
     4    2    3 ar  
     5    2   40 1   
     6    3    4 ar  
     7    3    7 1   
     8    4    5 ar  
     9    4    9 1   
    10    5    6 ar  
    11    5   41 1   
    12    6   42 1   
    13    7    8 1   
    14    8    9 2   
    15    8   11 1   
    16    9   10 1   
    17   10   20 1   
    18   10   43 1   
    19   10   44 1   
    20   11   12 ar  
    21   11   16 ar  
    22   12   13 ar  
    23   12   45 1   
    24   13   14 ar  
    25   13   46 1   
    26   14   15 ar  
    27   14   17 1   
    28   15   16 ar  
    29   15   47 1   
    30   16   48 1   
    31   17   18 1   
    32   18   38 1   
    33   18   49 1   
    34   18   50 1   
    35   19   20 ar  
    36   19   24 ar  
    37   19   51 1   
    38   20   21 ar  
    39   21   22 ar  
    40   21   52 1   
    41   22   23 ar  
    42   22   53 1   
    43   23   24 ar  
    44   23   25 1   
    45   24   54 1   
    46   25   26 1   
    47   26   37 1   
    48   26   55 1   
    49   26   56 1   
    50   27   28 1   
    51   27   31 1   
    52   27   57 1   
    53   27   76 1   
    54   28   29 1   
    55   28   58 1   
    56   28   59 1   
    57   29   30 1   
    58   29   60 1   
    59   29   61 1   
    60   30   31 1   
    61   30   37 1   
    62   31   62 1   
    63   31   63 1   
    64   32   33 1   
    65   32   36 1   
    66   32   64 1   
    67   32   65 1   
    68   33   34 1   
    69   33   38 1   
    70   34   35 1   
    71   34   66 1   
    72   34   67 1   
    73   35   36 1   
    74   35   68 1   
    75   35   69 1   
    76   36   70 1   
    77   36   71 1   
    78   37   72 1   
    79   37   73 1   
    80   38   74 1   
    81   38   75 1   
@<TRIPOS>SUBSTRUCTURE
     1 BT2         1 TEMP              0 ****  ****    0 ROOT
