@<TRIPOS>MOLECULE
BT3
   76    69     1     0     0
SMALL
bcc


@<TRIPOS>ATOM
      1 C1         -3.6070    2.7220   -4.0750 c1        1 BT3      0.095000
      2 C2         -2.1980    2.7060   -3.9980 c1        1 BT3     -0.124000
      3 C3         -1.5630    2.7570   -2.7550 c1        1 BT3     -0.179500
      4 C4         -2.3400    2.8250   -1.5620 c1        1 BT3     -0.179500
      5 C5         -3.7380    2.8410   -1.6430 c1        1 BT3     -0.124000
      6 C6         -4.3740    2.7890   -2.9050 c1        1 BT3     -0.156000
      7 S1         -0.0280    2.6700   -2.3380 s         1 BT3      0.489000
      8 C8          0.0400    2.6920   -0.7880 c2        1 BT3     -0.293000
      9 C9         -1.3240    2.7850   -0.2840 c1        1 BT3     -0.050000
     10 C7         -1.8570    2.7510    1.2120 c2        1 BT3     -0.068000
     11 C10         1.3950    2.8310   -0.4470 c1        1 BT3     -0.109000
     12 C12         2.2830    1.8810   -0.8050 c1        1 BT3     -0.129000
     13 C14         3.6320    2.0260   -0.4680 c1        1 BT3     -0.129000
     14 C16         4.0540    3.1370    0.2270 c1        1 BT3      0.136000
     15 N1          3.1690    4.0850    0.5850 n1        1 BT3     -0.202000
     16 C20         1.8240    3.9460    0.2520 c1        1 BT3     -0.015000
     17 O2          5.4560    3.3340    0.4790 os        1 BT3     -0.214000
     18 C24         5.9270    2.6670    1.6160 c3        1 BT3     -0.014000
     19 C11        -2.7620    0.9750    2.8220 c1        1 BT3     -0.129000
     20 C13        -2.5320    1.3580    1.5070 c1        1 BT3     -0.104000
     21 C15        -3.0690    0.5930    0.4480 c1        1 BT3     -0.081000
     22 C32        -3.8250   -0.5390    0.7270 c1        1 BT3     -0.201000
     23 C19        -4.0500   -0.9150    2.0450 c1        1 BT3      0.083000
     24 C21        -3.5130   -0.1510    3.0960 c1        1 BT3     -0.129000
     25 O3         -4.7030   -2.1940    2.3380 os        1 BT3     -0.222000
     26 C25        -5.6540   -2.5700    1.3900 c3        1 BT3     -0.025000
     27 C17        -5.5560   -6.9190    0.2820 c3        1 BT3     -0.175000
     28 C23        -4.3130   -6.7170   -0.0420 c3        1 BT3     -0.175000
     29 C26        -4.1400   -5.1750   -0.0410 c3        1 BT3     -0.084000
     30 N2         -5.5680   -4.5960    0.0410 n3        1 BT3     -0.248000
     31 C27        -6.3570   -5.6100   -0.1830 c3        1 BT3     -0.084000
     32 C22         8.2080    1.6520   -0.8250 c3        1 BT3     -0.082500
     33 N3          7.4920    1.1650    0.4100 n3        1 BT3     -0.248000
     34 C28         8.3810   -0.0020    0.9730 c3        1 BT3     -0.082500
     35 C29         9.2430   -0.2660    0.0300 c3        1 BT3     -0.175000
     36 C30         9.4240    1.0650   -0.7850 c3        1 BT3     -0.175000
     37 C33        -5.8130   -4.0720    1.3990 c3        1 BT3     -0.073000
     38 C34         7.4110    2.2560    1.4020 c3        1 BT3     -0.077000
     39 O1         -4.4990    2.1880   -5.0770 oh        1 BT3     -0.250000
     40 H2         -1.6820    2.6600   -4.7900 ha        1 BT3      0.142000
     41 H5         -4.2650    2.8880   -0.8410 ha        1 BT3      0.142000
     42 H6         -5.3170    2.7990   -2.9600 ha        1 BT3      0.153000
     43 H71        -1.1310    2.8810    1.8060 ha        1 BT3      0.100000
     44 H72        -2.5260    3.4780    1.3430 ha        1 BT3      0.100000
     45 H12         2.0010    1.1370   -1.2710 ha        1 BT3      0.146000
     46 H14         4.2800    1.3370   -0.7280 ha        1 BT3      0.146000
     47 H20         1.1770    4.6410    0.5150 ha        1 BT3      0.167000
     48 H241        5.8650    3.2650    2.3970 h1        1 BT3      0.103000
     49 H242        5.4310    1.9360    1.7580 h1        1 BT3      0.103000
     50 H11        -2.3850    1.5050    3.5610 ha        1 BT3      0.146000
     51 H15        -2.9010    0.8700   -0.5200 ha        1 BT3      0.138000
     52 H32        -4.1910   -1.0620    0.0090 ha        1 BT3      0.138000
     53 H21        -3.6610   -0.3990    3.9580 ha        1 BT3      0.146000
     54 H251       -5.3640   -2.2810    0.5150 h1        1 BT3      0.089500
     55 H252       -6.4680   -2.1730    1.5930 h1        1 BT3      0.089500
     56 H171       -5.6360   -7.0350    1.2130 hc        1 BT3      0.085750
     57 H172       -5.9180   -7.7520   -0.2150 hc        1 BT3      0.085750
     58 H231       -4.1230   -7.0910   -0.9530 hc        1 BT3      0.085750
     59 H232       -3.7330   -7.1150    0.6110 hc        1 BT3      0.085750
     60 H261       -3.6880   -4.8780   -0.9000 h1        1 BT3      0.089250
     61 H262       -3.6070   -4.8850    0.7490 h1        1 BT3      0.089250
     62 H271       -7.2160   -5.5090    0.3590 h1        1 BT3      0.089250
     63 H272       -6.5780   -5.6720   -1.1890 h1        1 BT3      0.089250
     64 H221        8.3020    2.5910   -0.8000 h1        1 BT3      0.088750
     65 H222        7.7310    1.3860   -1.6120 h1        1 BT3      0.088750
     66 H281        8.8840    0.3090    1.8440 h1        1 BT3      0.088750
     67 H282        7.8300   -0.7870    1.1600 h1        1 BT3      0.088750
     68 H291        8.9180   -0.9370   -0.5230 hc        1 BT3      0.085500
     69 H292       10.1060   -0.5420    0.4310 hc        1 BT3      0.085500
     70 H301       10.1350    1.7110   -0.2870 hc        1 BT3      0.085500
     71 H302        9.7400    0.8590   -1.7210 hc        1 BT3      0.085500
     72 H331       -5.1520   -4.4780    2.0450 h1        1 BT3      0.085500
     73 H332       -6.6960   -4.2950    1.6690 h1        1 BT3      0.085500
     74 H341        7.9100    3.0220    1.0820 h1        1 BT3      0.085000
     75 H342        7.8090    1.9350    2.2920 h1        1 BT3      0.085000
     76 HO1        -4.4370    2.7110   -5.8640 ho        1 BT3      0.219000
@<TRIPOS>BOND
     1    1    6 1   
     2    1   39 1   
     3    2    3 1   
     4    2   40 1   
     5    4    5 1   
     6    5   41 1   
     7    6   42 1   
     8    7    8 1   
     9    8    9 1   
    10    8   11 1   
    11   10   20 1   
    12   10   43 1   
    13   10   44 1   
    14   11   16 1   
    15   12   13 1   
    16   12   45 1   
    17   13   46 1   
    18   14   15 1   
    19   14   17 1   
    20   16   47 1   
    21   17   18 1   
    22   18   38 1   
    23   18   48 1   
    24   18   49 1   
    25   19   24 1   
    26   19   50 1   
    27   20   21 1   
    28   21   51 1   
    29   22   23 1   
    30   22   52 1   
    31   23   25 1   
    32   24   53 1   
    33   25   26 1   
    34   26   37 1   
    35   26   54 1   
    36   26   55 1   
    37   27   28 1   
    38   27   31 1   
    39   27   56 1   
    40   27   57 1   
    41   28   29 1   
    42   28   58 1   
    43   28   59 1   
    44   29   30 1   
    45   29   60 1   
    46   29   61 1   
    47   30   31 1   
    48   30   37 1   
    49   31   62 1   
    50   31   63 1   
    51   32   33 1   
    52   32   36 1   
    53   32   64 1   
    54   32   65 1   
    55   33   34 1   
    56   33   38 1   
    57   34   35 1   
    58   34   66 1   
    59   34   67 1   
    60   35   36 1   
    61   35   68 1   
    62   35   69 1   
    63   36   70 1   
    64   36   71 1   
    65   37   72 1   
    66   37   73 1   
    67   38   74 1   
    68   38   75 1   
    69   39   76 1   
@<TRIPOS>SUBSTRUCTURE
     1 BT3         1 TEMP              0 ****  ****    0 ROOT
