@<TRIPOS>MOLECULE
BT3
   76    81     1     0     0
SMALL
bcc


@<TRIPOS>ATOM
      1 C1         -4.7160   -0.3280    5.0740 ca        1 BT3      0.133100
      2 C2         -5.0180   -0.9380    3.8570 ca        1 BT3     -0.135000
      3 C3         -4.2890   -0.5550    2.7290 ca        1 BT3     -0.041100
      4 C4         -3.2690    0.4320    2.8250 ca        1 BT3     -0.108800
      5 C5         -2.9830    1.0260    4.0630 ca        1 BT3     -0.046000
      6 C6         -3.7010    0.6520    5.1840 ca        1 BT3     -0.211000
      7 S1         -4.4330   -1.1170    1.1480 ss        1 BT3      0.034500
      8 C8         -3.1950   -0.1080    0.5580 cc        1 BT3     -0.044600
      9 C9         -2.6450    0.6770    1.5440 cd        1 BT3     -0.042400
     10 C7         -1.5670    1.6740    1.3520 c3        1 BT3      0.025100
     11 C10        -2.8370   -0.1360   -0.8400 ca        1 BT3     -0.189100
     12 C12        -3.1130    0.9510   -1.6890 ca        1 BT3     -0.048000
     13 C14        -2.7580    0.8840   -3.0290 ca        1 BT3     -0.267300
     14 C16        -2.1180   -0.2990   -3.4890 ca        1 BT3      0.635600
     15 N1         -1.8360   -1.3630   -2.6910 nb        1 BT3     -0.729000
     16 C20        -2.1940   -1.2620   -1.4000 ca        1 BT3      0.445200
     17 O2         -1.8000   -0.2900   -4.8290 os        1 BT3     -0.456100
     18 C24        -1.1350   -1.4510   -5.3610 c3        1 BT3      0.136400
     19 C11         0.3640    0.0930    1.0950 ca        1 BT3     -0.091500
     20 C13        -0.2250    1.1740    1.7680 ca        1 BT3     -0.110300
     21 C15         0.4700    1.7900    2.8100 ca        1 BT3     -0.091500
     22 C32         1.7390    1.3470    3.1840 ca        1 BT3     -0.179500
     23 C19         2.3150    0.2690    2.5030 ca        1 BT3      0.128100
     24 C21         1.6250   -0.3640    1.4510 ca        1 BT3     -0.179500
     25 O3          3.5610   -0.2600    2.7760 os        1 BT3     -0.337900
     26 C25         4.2780    0.3490    3.8580 c3        1 BT3      0.125400
     27 C17         7.6020   -0.7240    1.1090 c3        1 BT3     -0.096400
     28 C23         8.5700   -1.0960    2.2240 c3        1 BT3     -0.096400
     29 C26         7.9740   -0.5130    3.5160 c3        1 BT3      0.152800
     30 N2          6.6860    0.1250    3.2240 n3        1 BT3     -0.722600
     31 C27         6.4900    0.1050    1.7720 c3        1 BT3      0.152800
     32 C22         0.5510   -0.4710   -8.6350 c3        1 BT3      0.154300
     33 N3          0.2980   -0.5260   -7.1910 n3        1 BT3     -0.722600
     34 C28         0.4530    0.8270   -6.6520 c3        1 BT3      0.154300
     35 C29         0.6610    1.8250   -7.8030 c3        1 BT3     -0.096400
     36 C30         0.7530    0.9890   -9.0720 c3        1 BT3     -0.096400
     37 C33         5.5880   -0.4390    3.9900 c3        1 BT3      0.163800
     38 C34        -0.9600   -1.1720   -6.8590 c3        1 BT3      0.159800
     39 O1         -5.4580   -0.7300    6.1620 oh        1 BT3     -0.497100
     40 H2         -5.8090   -1.6980    3.8000 ha        1 BT3      0.157000
     41 H5         -2.1830    1.7790    4.1320 ha        1 BT3      0.139000
     42 H6         -3.4890    1.1070    6.1610 ha        1 BT3      0.134000
     43 H71        -1.5230    1.9600    0.2630 hc        1 BT3      0.058200
     44 H72        -1.8250    2.6040    1.9320 hc        1 BT3      0.058200
     45 H12        -3.6100    1.8480   -1.2890 ha        1 BT3      0.147000
     46 H14        -2.9550    1.7050   -3.7290 ha        1 BT3      0.159000
     47 H20        -1.9490   -2.1400   -0.7730 h4        1 BT3      0.032100
     48 H241       -0.1600   -1.6030   -4.8310 h1        1 BT3      0.064200
     49 H242       -1.7920   -2.3480   -5.2220 h1        1 BT3      0.064200
     50 H11        -0.1880   -0.3970    0.2760 ha        1 BT3      0.133500
     51 H15         0.0190    2.6380    3.3460 ha        1 BT3      0.133500
     52 H32         2.2680    1.8500    4.0050 ha        1 BT3      0.143000
     53 H21         2.0930   -1.2100    0.9290 ha        1 BT3      0.143000
     54 H251        4.4480    1.4340    3.6370 h1        1 BT3      0.049200
     55 H252        3.6810    0.2400    4.8020 h1        1 BT3      0.049200
     56 H172        7.1750   -1.6380    0.6290 hc        1 BT3      0.046700
     57 H231        9.5840   -0.6670    2.0370 hc        1 BT3      0.046700
     58 H232        8.6800   -2.2040    2.3080 hc        1 BT3      0.046700
     59 H261        8.6460    0.2910    3.9240 h1        1 BT3      0.049950
     60 H262        7.8850   -1.3150    4.2980 h1        1 BT3      0.049950
     61 H271        5.4780   -0.2930    1.4900 h1        1 BT3      0.049950
     62 H272        6.5500    1.1730    1.4240 h1        1 BT3      0.049950
     63 H221        1.4890   -1.0640   -8.8200 h1        1 BT3      0.049200
     64 H222       -0.2760   -0.9440   -9.2310 h1        1 BT3      0.049200
     65 H281       -0.4260    1.1300   -6.0200 h1        1 BT3      0.049200
     66 H282        1.3620    0.8090   -5.9900 h1        1 BT3      0.049200
     67 H291        1.5950    2.4170   -7.6400 hc        1 BT3      0.046200
     68 H292       -0.1920    2.5440   -7.8570 hc        1 BT3      0.046200
     69 H301        1.7470    1.1120   -9.5650 hc        1 BT3      0.046200
     70 H302       -0.0320    1.2890   -9.8080 hc        1 BT3      0.046200
     71 H331        5.8860   -0.4020    5.0760 h1        1 BT3      0.046200
     72 H332        5.3770   -1.5160    3.7210 h1        1 BT3      0.046200
     73 H341       -0.9680   -2.1730   -7.3790 h1        1 BT3      0.045700
     74 H342       -1.8570   -0.5860   -7.2150 h1        1 BT3      0.045700
     75 HO1        -5.1410   -0.2410    6.9360 ho        1 BT3      0.420000
     76 H171        8.1110   -0.1280    0.3140 hc        1 BT3      0.046700
@<TRIPOS>BOND
     1    1    2 ar  
     2    1    6 ar  
     3    1   39 1   
     4    2    3 ar  
     5    2   40 1   
     6    3    4 ar  
     7    3    7 1   
     8    4    5 ar  
     9    4    9 1   
    10    5    6 ar  
    11    5   41 1   
    12    6   42 1   
    13    7    8 1   
    14    8    9 2   
    15    8   11 1   
    16    9   10 1   
    17   10   20 1   
    18   10   43 1   
    19   10   44 1   
    20   11   12 ar  
    21   11   16 ar  
    22   12   13 ar  
    23   12   45 1   
    24   13   14 ar  
    25   13   46 1   
    26   14   15 ar  
    27   14   17 1   
    28   15   16 ar  
    29   16   47 1   
    30   17   18 1   
    31   18   38 1   
    32   18   48 1   
    33   18   49 1   
    34   19   20 ar  
    35   19   24 ar  
    36   19   50 1   
    37   20   21 ar  
    38   21   22 ar  
    39   21   51 1   
    40   22   23 ar  
    41   22   52 1   
    42   23   24 ar  
    43   23   25 1   
    44   24   53 1   
    45   25   26 1   
    46   26   37 1   
    47   26   54 1   
    48   26   55 1   
    49   27   28 1   
    50   27   31 1   
    51   27   56 1   
    52   27   76 1   
    53   28   29 1   
    54   28   57 1   
    55   28   58 1   
    56   29   30 1   
    57   29   59 1   
    58   29   60 1   
    59   30   31 1   
    60   30   37 1   
    61   31   61 1   
    62   31   62 1   
    63   32   33 1   
    64   32   36 1   
    65   32   63 1   
    66   32   64 1   
    67   33   34 1   
    68   33   38 1   
    69   34   35 1   
    70   34   65 1   
    71   34   66 1   
    72   35   36 1   
    73   35   67 1   
    74   35   68 1   
    75   36   69 1   
    76   36   70 1   
    77   37   71 1   
    78   37   72 1   
    79   38   73 1   
    80   38   74 1   
    81   39   75 1   
@<TRIPOS>SUBSTRUCTURE
     1 BT3         1 TEMP              0 ****  ****    0 ROOT
