@<TRIPOS>MOLECULE
BT3
   76    81     1     0     0
SMALL
bcc


@<TRIPOS>ATOM
      1 C1          0.3080    0.2540   -0.0850 ca        1 BT3      0.133100
      2 C2          1.6990    0.3340   -0.0090 ca        1 BT3     -0.135000
      3 C3          2.2960    0.2480    1.2500 ca        1 BT3     -0.041100
      4 C4          1.5020    0.0840    2.4200 ca        1 BT3     -0.108800
      5 C5          0.1070    0.0020    2.3140 ca        1 BT3     -0.046000
      6 C6         -0.4910    0.0870    1.0700 ca        1 BT3     -0.211000
      7 S1          3.9330    0.3120    1.6400 ss        1 BT3      0.034500
      8 C8          3.6580    0.1320    3.3100 cc        1 BT3     -0.044600
      9 C9          2.3200    0.0210    3.6110 cd        1 BT3     -0.042400
     10 C7          1.7500   -0.1240    4.9710 c3        1 BT3      0.025100
     11 C10         4.7660    0.1190    4.2340 ca        1 BT3     -0.189100
     12 C12         4.9810    1.1770    5.1360 ca        1 BT3     -0.048000
     13 C14         6.0620    1.1300    6.0050 ca        1 BT3     -0.267300
     14 C16         6.9140   -0.0060    5.9470 ca        1 BT3      0.635600
     15 N1          6.7280   -1.0440    5.0890 nb        1 BT3     -0.729000
     16 C20         5.6710   -0.9640    4.2620 ca        1 BT3      0.445200
     17 O2          7.9640    0.0230    6.8370 os        1 BT3     -0.456100
     18 C24         8.8590   -1.1050    6.8450 c3        1 BT3      0.136400
     19 C11         2.3690   -2.5190    5.3840 ca        1 BT3     -0.091500
     20 C13         1.3790   -1.5290    5.3050 ca        1 BT3     -0.110300
     21 C15         0.0510   -1.8690    5.5680 ca        1 BT3     -0.091500
     22 C32        -0.2990   -3.1750    5.9110 ca        1 BT3     -0.179500
     23 C19         0.6990   -4.1520    5.9890 ca        1 BT3      0.128100
     24 C21         2.0440   -3.8250    5.7230 ca        1 BT3     -0.179500
     25 O3          0.4820   -5.4750    6.3190 os        1 BT3     -0.337900
     26 C25        -0.8800   -5.8440    6.5720 c3        1 BT3      0.125400
     27 C17         1.2770   -8.4710    9.4360 c3        1 BT3     -0.096400
     28 C23         0.3340   -9.6520    9.2550 c3        1 BT3     -0.096400
     29 C26        -0.9190   -9.0940    8.5610 c3        1 BT3      0.152800
     30 N2         -0.7330   -7.6670    8.2770 n3        1 BT3     -0.722600
     31 C27         0.5310   -7.2450    8.8850 c3        1 BT3      0.152800
     32 C22        10.7480   -1.1140   10.1550 c3        1 BT3      0.154300
     33 N3          9.6210   -1.2400    9.2240 n3        1 BT3     -0.722600
     34 C28         8.4510   -0.6080    9.8390 c3        1 BT3      0.154300
     35 C29         8.8640    0.0890   11.1450 c3        1 BT3     -0.096400
     36 C30        10.3300   -0.2580   11.3620 c3        1 BT3     -0.096400
     37 C33        -0.8610   -7.3490    6.8640 c3        1 BT3      0.163800
     38 C34         9.9340   -0.7680    7.8860 c3        1 BT3      0.159800
     39 O1         -0.2440    0.3450   -1.3430 oh        1 BT3     -0.497100
     40 H2          2.2960    0.4610   -0.9220 ha        1 BT3      0.157000
     41 H5         -0.4990   -0.1380    3.2230 ha        1 BT3      0.139000
     42 H6         -1.5840    0.0230    0.9700 ha        1 BT3      0.134000
     43 H71         2.5060    0.2380    5.7250 hc        1 BT3      0.058200
     44 H72         0.8470    0.5410    5.0580 hc        1 BT3      0.058200
     45 H12         4.2950    2.0380    5.1470 ha        1 BT3      0.147000
     46 H14         6.2720    1.9330    6.7230 ha        1 BT3      0.159000
     47 H20         5.5430   -1.8240    3.5790 h4        1 BT3      0.032100
     48 H241        8.2900   -2.0360    7.0940 h1        1 BT3      0.064200
     49 H242        9.3350   -1.2030    5.8350 h1        1 BT3      0.064200
     50 H11         3.4170   -2.2520    5.1700 ha        1 BT3      0.133500
     51 H15        -0.7350   -1.1010    5.5080 ha        1 BT3      0.133500
     52 H32        -1.3500   -3.4180    6.1170 ha        1 BT3      0.143000
     53 H21         2.8130   -4.6060    5.7880 ha        1 BT3      0.143000
     54 H251       -1.4910   -5.6510    5.6510 h1        1 BT3      0.049200
     55 H252       -1.2820   -5.2440    7.4290 h1        1 BT3      0.049200
     56 H172        2.2320   -8.6310    8.8780 hc        1 BT3      0.046700
     57 H231        0.8040  -10.4500    8.6310 hc        1 BT3      0.046700
     58 H232        0.0620  -10.1060   10.2390 hc        1 BT3      0.046700
     59 H261       -1.8080   -9.1720    9.2460 h1        1 BT3      0.049950
     60 H262       -1.1470   -9.6870    7.6350 h1        1 BT3      0.049950
     61 H271        0.2660   -6.5470    9.7270 h1        1 BT3      0.049950
     62 H272        1.1780   -6.6810    8.1600 h1        1 BT3      0.049950
     63 H221       11.0070   -2.1560   10.4890 h1        1 BT3      0.049200
     64 H222       11.6590   -0.6750    9.6650 h1        1 BT3      0.049200
     65 H281        7.9530    0.1200    9.1430 h1        1 BT3      0.049200
     66 H282        7.7180   -1.4320   10.0590 h1        1 BT3      0.049200
     67 H291        8.2340   -0.2700   11.9940 hc        1 BT3      0.046200
     68 H292        8.7230    1.1940   11.0600 hc        1 BT3      0.046200
     69 H301       10.9570    0.6640   11.4240 hc        1 BT3      0.046200
     70 H302       10.4730   -0.8310   12.3100 hc        1 BT3      0.046200
     71 H331       -0.0450   -7.8170    6.2380 h1        1 BT3      0.046200
     72 H332       -1.8490   -7.7650    6.5180 h1        1 BT3      0.046200
     73 H341       10.8770   -1.2910    7.5600 h1        1 BT3      0.045700
     74 H342       10.1210    0.3460    7.8510 h1        1 BT3      0.045700
     75 HO1        -1.2040    0.2640   -1.2540 ho        1 BT3      0.420000
     76 H171        1.5340   -8.3190   10.5120 hc        1 BT3      0.046700
@<TRIPOS>BOND
     1    1    2 ar  
     2    1    6 ar  
     3    1   39 1   
     4    2    3 ar  
     5    2   40 1   
     6    3    4 ar  
     7    3    7 1   
     8    4    5 ar  
     9    4    9 1   
    10    5    6 ar  
    11    5   41 1   
    12    6   42 1   
    13    7    8 1   
    14    8    9 2   
    15    8   11 1   
    16    9   10 1   
    17   10   20 1   
    18   10   43 1   
    19   10   44 1   
    20   11   12 ar  
    21   11   16 ar  
    22   12   13 ar  
    23   12   45 1   
    24   13   14 ar  
    25   13   46 1   
    26   14   15 ar  
    27   14   17 1   
    28   15   16 ar  
    29   16   47 1   
    30   17   18 1   
    31   18   38 1   
    32   18   48 1   
    33   18   49 1   
    34   19   20 ar  
    35   19   24 ar  
    36   19   50 1   
    37   20   21 ar  
    38   21   22 ar  
    39   21   51 1   
    40   22   23 ar  
    41   22   52 1   
    42   23   24 ar  
    43   23   25 1   
    44   24   53 1   
    45   25   26 1   
    46   26   37 1   
    47   26   54 1   
    48   26   55 1   
    49   27   28 1   
    50   27   31 1   
    51   27   56 1   
    52   27   76 1   
    53   28   29 1   
    54   28   57 1   
    55   28   58 1   
    56   29   30 1   
    57   29   59 1   
    58   29   60 1   
    59   30   31 1   
    60   30   37 1   
    61   31   61 1   
    62   31   62 1   
    63   32   33 1   
    64   32   36 1   
    65   32   63 1   
    66   32   64 1   
    67   33   34 1   
    68   33   38 1   
    69   34   35 1   
    70   34   65 1   
    71   34   66 1   
    72   35   36 1   
    73   35   67 1   
    74   35   68 1   
    75   36   69 1   
    76   36   70 1   
    77   37   71 1   
    78   37   72 1   
    79   38   73 1   
    80   38   74 1   
    81   39   75 1   
@<TRIPOS>SUBSTRUCTURE
     1 BT3         1 TEMP              0 ****  ****    0 ROOT
