@<TRIPOS>MOLECULE
BT3
   76    81     1     0     0
SMALL
bcc


@<TRIPOS>ATOM
      1 C1          0.2970    0.2610   -0.0720 ca        1 BT3      0.133100
      2 C2          1.6880    0.3410    0.0000 ca        1 BT3     -0.135000
      3 C3          2.2880    0.2540    1.2580 ca        1 BT3     -0.041100
      4 C4          1.4970    0.0890    2.4300 ca        1 BT3     -0.108800
      5 C5          0.1010    0.0080    2.3270 ca        1 BT3     -0.046000
      6 C6         -0.5000    0.0940    1.0850 ca        1 BT3     -0.211000
      7 S1          3.9260    0.3170    1.6440 ss        1 BT3      0.034500
      8 C8          3.6550    0.1360    3.3150 cc        1 BT3     -0.044600
      9 C9          2.3170    0.0250    3.6190 cd        1 BT3     -0.042400
     10 C7          1.7510   -0.1210    4.9800 c3        1 BT3      0.025100
     11 C10         4.7650    0.1210    4.2360 ca        1 BT3     -0.189100
     12 C12         4.9840    1.1780    5.1380 ca        1 BT3     -0.048000
     13 C14         6.0660    1.1300    6.0040 ca        1 BT3     -0.267300
     14 C16         6.9180   -0.0070    5.9430 ca        1 BT3      0.635600
     15 N1          6.7290   -1.0440    5.0850 nb        1 BT3     -0.729000
     16 C20         5.6700   -0.9630    4.2610 ca        1 BT3      0.445200
     17 O2          7.9700    0.0210    6.8310 os        1 BT3     -0.456100
     18 C24         8.8640   -1.1080    6.8350 c3        1 BT3      0.136400
     19 C11         2.3680   -2.5180    5.3880 ca        1 BT3     -0.091500
     20 C13         1.3790   -1.5260    5.3120 ca        1 BT3     -0.110300
     21 C15         0.0510   -1.8650    5.5790 ca        1 BT3     -0.091500
     22 C32        -0.3010   -3.1710    5.9200 ca        1 BT3     -0.179500
     23 C19         0.6960   -4.1500    5.9940 ca        1 BT3      0.128100
     24 C21         2.0410   -3.8240    5.7250 ca        1 BT3     -0.179500
     25 O3          0.4770   -5.4730    6.3220 os        1 BT3     -0.337900
     26 C25        -0.8840   -5.8400    6.5770 c3        1 BT3      0.125400
     27 C17         1.2730   -8.4790    9.4300 c3        1 BT3     -0.096400
     28 C23         0.3280   -9.6580    9.2470 c3        1 BT3     -0.096400
     29 C26        -0.9260   -9.0950    8.5580 c3        1 BT3      0.152800
     30 N2         -0.7380   -7.6680    8.2770 n3        1 BT3     -0.722600
     31 C27         0.5280   -7.2500    8.8840 c3        1 BT3      0.152800
     32 C22        10.7620   -1.1200   10.1390 c3        1 BT3      0.154300
     33 N3          9.6330   -1.2450    9.2120 n3        1 BT3     -0.722600
     34 C28         8.4650   -0.6120    9.8310 c3        1 BT3      0.154300
     35 C29         8.8820    0.0840   11.1360 c3        1 BT3     -0.096400
     36 C30        10.3490   -0.2650   11.3490 c3        1 BT3     -0.096400
     37 C33        -0.8670   -7.3460    6.8650 c3        1 BT3      0.163800
     38 C34         9.9420   -0.7720    7.8740 c3        1 BT3      0.159800
     39 O1         -0.2580    0.3540   -1.3290 oh        1 BT3     -0.497100
     40 H2          2.2840    0.4690   -0.9140 ha        1 BT3      0.157000
     41 H5         -0.5030   -0.1330    3.2370 ha        1 BT3      0.139000
     42 H6         -1.5930    0.0310    0.9870 ha        1 BT3      0.134000
     43 H71         0.8490    0.5450    5.0700 hc        1 BT3      0.058200
     44 H72         2.5090    0.2380    5.7320 hc        1 BT3      0.058200
     45 H12         4.2980    2.0390    5.1510 ha        1 BT3      0.147000
     46 H14         6.2790    1.9320    6.7220 ha        1 BT3      0.159000
     47 H20         5.5390   -1.8230    3.5770 h4        1 BT3      0.032100
     48 H241        9.3370   -1.2060    5.8240 h1        1 BT3      0.064200
     49 H242        8.2950   -2.0380    7.0860 h1        1 BT3      0.064200
     50 H11         3.4160   -2.2520    5.1720 ha        1 BT3      0.133500
     51 H15        -0.7350   -1.0950    5.5210 ha        1 BT3      0.133500
     52 H32        -1.3520   -3.4120    6.1280 ha        1 BT3      0.143000
     53 H21         2.8090   -4.6070    5.7870 ha        1 BT3      0.143000
     54 H251       -1.4960   -5.6440    5.6570 h1        1 BT3      0.049200
     55 H252       -1.2840   -5.2420    7.4360 h1        1 BT3      0.049200
     56 H172        2.2260   -8.6390    8.8700 hc        1 BT3      0.046700
     57 H231        0.0570  -10.1140   10.2300 hc        1 BT3      0.046700
     58 H232        0.7960  -10.4550    8.6200 hc        1 BT3      0.046700
     59 H261       -1.8140   -9.1740    9.2430 h1        1 BT3      0.049950
     60 H262       -1.1560   -9.6860    7.6300 h1        1 BT3      0.049950
     61 H271        1.1750   -6.6840    8.1590 h1        1 BT3      0.049950
     62 H272        0.2660   -6.5540    9.7280 h1        1 BT3      0.049950
     63 H221       11.0220   -2.1620   10.4720 h1        1 BT3      0.049200
     64 H222       11.6720   -0.6810    9.6480 h1        1 BT3      0.049200
     65 H281        7.7320   -1.4360   10.0520 h1        1 BT3      0.049200
     66 H282        7.9650    0.1170    9.1360 h1        1 BT3      0.049200
     67 H291        8.7420    1.1890   11.0530 hc        1 BT3      0.046200
     68 H292        8.2540   -0.2760   11.9870 hc        1 BT3      0.046200
     69 H301       10.9770    0.6560   11.4100 hc        1 BT3      0.046200
     70 H302       10.4930   -0.8390   12.2960 hc        1 BT3      0.046200
     71 H331       -1.8570   -7.7590    6.5190 h1        1 BT3      0.046200
     72 H332       -0.0530   -7.8140    6.2360 h1        1 BT3      0.046200
     73 H341       10.8840   -1.2950    7.5440 h1        1 BT3      0.045700
     74 H342       10.1300    0.3420    7.8390 h1        1 BT3      0.045700
     75 HO1        -1.2180    0.2740   -1.2380 ho        1 BT3      0.420000
     76 H171        1.5320   -8.3300   10.5060 hc        1 BT3      0.046700
@<TRIPOS>BOND
     1    1    2 ar  
     2    1    6 ar  
     3    1   39 1   
     4    2    3 ar  
     5    2   40 1   
     6    3    4 ar  
     7    3    7 1   
     8    4    5 ar  
     9    4    9 1   
    10    5    6 ar  
    11    5   41 1   
    12    6   42 1   
    13    7    8 1   
    14    8    9 2   
    15    8   11 1   
    16    9   10 1   
    17   10   20 1   
    18   10   43 1   
    19   10   44 1   
    20   11   12 ar  
    21   11   16 ar  
    22   12   13 ar  
    23   12   45 1   
    24   13   14 ar  
    25   13   46 1   
    26   14   15 ar  
    27   14   17 1   
    28   15   16 ar  
    29   16   47 1   
    30   17   18 1   
    31   18   38 1   
    32   18   48 1   
    33   18   49 1   
    34   19   20 ar  
    35   19   24 ar  
    36   19   50 1   
    37   20   21 ar  
    38   21   22 ar  
    39   21   51 1   
    40   22   23 ar  
    41   22   52 1   
    42   23   24 ar  
    43   23   25 1   
    44   24   53 1   
    45   25   26 1   
    46   26   37 1   
    47   26   54 1   
    48   26   55 1   
    49   27   28 1   
    50   27   31 1   
    51   27   56 1   
    52   27   76 1   
    53   28   29 1   
    54   28   57 1   
    55   28   58 1   
    56   29   30 1   
    57   29   59 1   
    58   29   60 1   
    59   30   31 1   
    60   30   37 1   
    61   31   61 1   
    62   31   62 1   
    63   32   33 1   
    64   32   36 1   
    65   32   63 1   
    66   32   64 1   
    67   33   34 1   
    68   33   38 1   
    69   34   35 1   
    70   34   65 1   
    71   34   66 1   
    72   35   36 1   
    73   35   67 1   
    74   35   68 1   
    75   36   69 1   
    76   36   70 1   
    77   37   71 1   
    78   37   72 1   
    79   38   73 1   
    80   38   74 1   
    81   39   75 1   
@<TRIPOS>SUBSTRUCTURE
     1 BT3         1 TEMP              0 ****  ****    0 ROOT
