@<TRIPOS>MOLECULE
BT3
   76    81     1     0     0
SMALL
bcc


@<TRIPOS>ATOM
      1 C1          0.3070    0.2600   -0.0820 ca        1 BT3      0.133100
      2 C2          1.6980    0.3410   -0.0060 ca        1 BT3     -0.135000
      3 C3          2.2960    0.2540    1.2530 ca        1 BT3     -0.041100
      4 C4          1.5020    0.0890    2.4230 ca        1 BT3     -0.108800
      5 C5          0.1060    0.0070    2.3170 ca        1 BT3     -0.046000
      6 C6         -0.4920    0.0930    1.0730 ca        1 BT3     -0.211000
      7 S1          3.9320    0.3170    1.6430 ss        1 BT3      0.034500
      8 C8          3.6570    0.1360    3.3130 cc        1 BT3     -0.044600
      9 C9          2.3190    0.0250    3.6140 cd        1 BT3     -0.042400
     10 C7          1.7500   -0.1210    4.9730 c3        1 BT3      0.025100
     11 C10         4.7660    0.1210    4.2370 ca        1 BT3     -0.189100
     12 C12         4.9800    1.1780    5.1400 ca        1 BT3     -0.048000
     13 C14         6.0610    1.1300    6.0100 ca        1 BT3     -0.267300
     14 C16         6.9150   -0.0060    5.9480 ca        1 BT3      0.635600
     15 N1          6.7290   -1.0420    5.0880 nb        1 BT3     -0.729000
     16 C20         5.6720   -0.9610    4.2610 ca        1 BT3      0.445200
     17 O2          7.9650    0.0220    6.8380 os        1 BT3     -0.456100
     18 C24         8.8610   -1.1050    6.8430 c3        1 BT3      0.136400
     19 C11         2.3680   -2.5180    5.3830 ca        1 BT3     -0.091500
     20 C13         1.3790   -1.5270    5.3060 ca        1 BT3     -0.110300
     21 C15         0.0500   -1.8660    5.5700 ca        1 BT3     -0.091500
     22 C32        -0.3000   -3.1720    5.9120 ca        1 BT3     -0.179500
     23 C19         0.6970   -4.1510    5.9870 ca        1 BT3      0.128100
     24 C21         2.0420   -3.8240    5.7200 ca        1 BT3     -0.179500
     25 O3          0.4790   -5.4730    6.3160 os        1 BT3     -0.337900
     26 C25        -0.8820   -5.8410    6.5720 c3        1 BT3      0.125400
     27 C17         1.2780   -8.4710    9.4310 c3        1 BT3     -0.096400
     28 C23         0.3340   -9.6520    9.2510 c3        1 BT3     -0.096400
     29 C26        -0.9200   -9.0920    8.5600 c3        1 BT3      0.152800
     30 N2         -0.7340   -7.6650    8.2760 n3        1 BT3     -0.722600
     31 C27         0.5320   -7.2440    8.8820 c3        1 BT3      0.152800
     32 C22        10.7510   -1.1210   10.1520 c3        1 BT3      0.154300
     33 N3          9.6240   -1.2460    9.2210 n3        1 BT3     -0.722600
     34 C28         8.4530   -0.6190    9.8380 c3        1 BT3      0.154300
     35 C29         8.8650    0.0750   11.1470 c3        1 BT3     -0.096400
     36 C30        10.3320   -0.2700   11.3620 c3        1 BT3     -0.096400
     37 C33        -0.8630   -7.3470    6.8640 c3        1 BT3      0.163800
     38 C34         9.9350   -0.7690    7.8850 c3        1 BT3      0.159800
     39 O1         -0.2450    0.3530   -1.3400 oh        1 BT3     -0.497100
     40 H2          2.2950    0.4680   -0.9190 ha        1 BT3      0.157000
     41 H5         -0.5000   -0.1350    3.2260 ha        1 BT3      0.139000
     42 H6         -1.5850    0.0290    0.9730 ha        1 BT3      0.134000
     43 H71         2.5060    0.2390    5.7270 hc        1 BT3      0.058200
     44 H72         0.8470    0.5440    5.0610 hc        1 BT3      0.058200
     45 H12         4.2930    2.0380    5.1540 ha        1 BT3      0.147000
     46 H14         6.2700    1.9310    6.7290 ha        1 BT3      0.159000
     47 H20         5.5440   -1.8190    3.5760 h4        1 BT3      0.032100
     48 H241        9.3360   -1.2000    5.8320 h1        1 BT3      0.064200
     49 H242        8.2930   -2.0370    7.0900 h1        1 BT3      0.064200
     50 H11         3.4160   -2.2510    5.1670 ha        1 BT3      0.133500
     51 H15        -0.7360   -1.0980    5.5120 ha        1 BT3      0.133500
     52 H32        -1.3520   -3.4140    6.1180 ha        1 BT3      0.143000
     53 H21         2.8110   -4.6060    5.7830 ha        1 BT3      0.143000
     54 H251       -1.2810   -5.2410    7.4300 h1        1 BT3      0.049200
     55 H252       -1.4950   -5.6470    5.6520 h1        1 BT3      0.049200
     56 H172        2.2320   -8.6320    8.8700 hc        1 BT3      0.046700
     57 H231        0.8030  -10.4500    8.6250 hc        1 BT3      0.046700
     58 H232        0.0640  -10.1060   10.2350 hc        1 BT3      0.046700
     59 H261       -1.8070   -9.1710    9.2460 h1        1 BT3      0.049950
     60 H262       -1.1500   -9.6850    7.6330 h1        1 BT3      0.049950
     61 H271        0.2690   -6.5470    9.7250 h1        1 BT3      0.049950
     62 H272        1.1780   -6.6790    8.1560 h1        1 BT3      0.049950
     63 H221       11.6610   -0.6790    9.6630 h1        1 BT3      0.049200
     64 H222       11.0120   -2.1640   10.4830 h1        1 BT3      0.049200
     65 H281        7.7220   -1.4450   10.0560 h1        1 BT3      0.049200
     66 H282        7.9530    0.1100    9.1440 h1        1 BT3      0.049200
     67 H291        8.2360   -0.2870   11.9950 hc        1 BT3      0.046200
     68 H292        8.7220    1.1810   11.0650 hc        1 BT3      0.046200
     69 H301       10.9580    0.6530   11.4260 hc        1 BT3      0.046200
     70 H302       10.4760   -0.8450   12.3080 hc        1 BT3      0.046200
     71 H331       -0.0500   -7.8150    6.2360 h1        1 BT3      0.046200
     72 H332       -1.8530   -7.7610    6.5190 h1        1 BT3      0.046200
     73 H341       10.8800   -1.2900    7.5560 h1        1 BT3      0.045700
     74 H342       10.1210    0.3450    7.8540 h1        1 BT3      0.045700
     75 HO1        -1.2060    0.2720   -1.2510 ho        1 BT3      0.420000
     76 H171        1.5380   -8.3200   10.5070 hc        1 BT3      0.046700
@<TRIPOS>BOND
     1    1    2 ar  
     2    1    6 ar  
     3    1   39 1   
     4    2    3 ar  
     5    2   40 1   
     6    3    4 ar  
     7    3    7 1   
     8    4    5 ar  
     9    4    9 1   
    10    5    6 ar  
    11    5   41 1   
    12    6   42 1   
    13    7    8 1   
    14    8    9 2   
    15    8   11 1   
    16    9   10 1   
    17   10   20 1   
    18   10   43 1   
    19   10   44 1   
    20   11   12 ar  
    21   11   16 ar  
    22   12   13 ar  
    23   12   45 1   
    24   13   14 ar  
    25   13   46 1   
    26   14   15 ar  
    27   14   17 1   
    28   15   16 ar  
    29   16   47 1   
    30   17   18 1   
    31   18   38 1   
    32   18   48 1   
    33   18   49 1   
    34   19   20 ar  
    35   19   24 ar  
    36   19   50 1   
    37   20   21 ar  
    38   21   22 ar  
    39   21   51 1   
    40   22   23 ar  
    41   22   52 1   
    42   23   24 ar  
    43   23   25 1   
    44   24   53 1   
    45   25   26 1   
    46   26   37 1   
    47   26   54 1   
    48   26   55 1   
    49   27   28 1   
    50   27   31 1   
    51   27   56 1   
    52   27   76 1   
    53   28   29 1   
    54   28   57 1   
    55   28   58 1   
    56   29   30 1   
    57   29   59 1   
    58   29   60 1   
    59   30   31 1   
    60   30   37 1   
    61   31   61 1   
    62   31   62 1   
    63   32   33 1   
    64   32   36 1   
    65   32   63 1   
    66   32   64 1   
    67   33   34 1   
    68   33   38 1   
    69   34   35 1   
    70   34   65 1   
    71   34   66 1   
    72   35   36 1   
    73   35   67 1   
    74   35   68 1   
    75   36   69 1   
    76   36   70 1   
    77   37   71 1   
    78   37   72 1   
    79   38   73 1   
    80   38   74 1   
    81   39   75 1   
@<TRIPOS>SUBSTRUCTURE
     1 BT3         1 TEMP              0 ****  ****    0 ROOT
