@<TRIPOS>MOLECULE
BT5
   65    69     1     0     0
SMALL
bcc


@<TRIPOS>ATOM
      1 CBB         0.7960    2.1460   -0.4270 c         1 BT5      0.674100
      2 OBB        -0.2900    2.4620   -1.1350 os        1 BT5     -0.544500
      3 OCB         0.8560    2.6820    0.6910 o         1 BT5     -0.589000
      4 CAB         1.7660    1.2080   -1.0690 c3        1 BT5     -0.129400
      5 C9B         3.0000    1.0170   -0.2150 c3        1 BT5     -0.079400
      6 C8B         4.0130    0.1400   -0.9190 c3        1 BT5     -0.080400
      7 C7B         5.2610   -0.0310   -0.0750 c3        1 BT5     -0.073400
      8 C2B         6.2900   -0.8790   -0.7850 c3        1 BT5     -0.008600
      9 S1B         5.7500   -2.5800   -0.8450 ss        1 BT5     -0.281200
     10 C6B         7.3720   -3.2620   -0.9720 c3        1 BT5     -0.048300
     11 C5B         8.3700   -2.2890   -0.3560 c3        1 BT5      0.052700
     12 N1B         8.8730   -2.6370    0.9710 n         1 BT5     -0.511900
     13 C3B         8.3850   -1.6740    1.9120 c         1 BT5      0.747500
     14 O3B         8.5280   -1.7640    3.1440 o         1 BT5     -0.618500
     15 N2B         7.8280   -0.5490    1.2380 n         1 BT5     -0.515900
     16 C4B         7.6940   -0.8570   -0.1810 c3        1 BT5      0.061700
     17 P          -1.3320    3.5540   -0.3640 p5        1 BT5      1.456800
     18 OP1        -0.7190    4.8810   -0.3220 o         1 BT5     -0.812500
     19 OP2        -2.0450    2.7790    0.6750 o         1 BT5     -0.812500
     20 O5'        -2.4050    3.5470   -1.6240 os        1 BT5     -0.563200
     21 C5'        -3.1230    2.3740   -1.8320 c3        1 BT5      0.191400
     22 C4'        -4.6160    2.5560   -1.5090 c3        1 BT5      0.080100
     23 O4'        -5.2340    1.2620   -1.3870 os        1 BT5     -0.427600
     24 C3'        -4.8730    3.2980   -0.1880 c3        1 BT5      0.091100
     25 O3'        -5.9480    4.2090   -0.2690 oh        1 BT5     -0.595800
     26 C2'        -5.1750    2.1870    0.8410 c3        1 BT5      0.077100
     27 O2'        -6.3940    2.4200    1.5270 oh        1 BT5     -0.610800
     28 C1'        -5.3970    0.8960   -0.0070 c3        1 BT5      0.249800
     29 N9         -4.5320   -0.2010    0.3580 na        1 BT5     -0.275000
     30 C8         -3.1770   -0.1620    0.7850 cc        1 BT5      0.439700
     31 N7         -2.6300   -1.3770    0.9340 nd        1 BT5     -0.579100
     32 C5         -3.6380   -2.2860    0.5730 ca        1 BT5     -0.212200
     33 C6         -3.6840   -3.7140    0.5190 ca        1 BT5      0.718200
     34 N6         -2.6010   -4.4600    0.9590 nh        1 BT5     -0.940500
     35 N1         -4.8330   -4.3280    0.0840 nb        1 BT5     -0.798000
     36 C2         -5.8860   -3.5260   -0.2350 ca        1 BT5      0.658900
     37 N3         -5.9960   -2.1790   -0.2150 nb        1 BT5     -0.718000
     38 C4         -4.8460   -1.5600    0.1900 ca        1 BT5      0.450800
     39 H101        1.2460    0.2280   -1.2360 hc        1 BT5      0.070700
     40 H102        2.0400    1.6210   -2.0750 hc        1 BT5      0.070700
     41 H9B1        3.4510    2.0180    0.0160 hc        1 BT5      0.059700
     42 H9B2        2.7070    0.5590    0.7670 hc        1 BT5      0.059700
     43 H8B1        3.5640   -0.8670   -1.1310 hc        1 BT5      0.045700
     44 H8B2        4.2840    0.5980   -1.9070 hc        1 BT5      0.045700
     45 H7B1        5.6990    0.9820    0.1390 hc        1 BT5      0.058700
     46 H7B2        4.9790   -0.4960    0.9070 hc        1 BT5      0.058700
     47 H2B         6.3790   -0.5160   -1.8450 h1        1 BT5      0.081700
     48 H6B1        7.3690   -4.2600   -0.4710 h1        1 BT5      0.078200
     49 H6B2        7.6330   -3.4300   -2.0460 h1        1 BT5      0.078200
     50 H5B         9.2660   -2.1900   -1.0320 h1        1 BT5      0.083700
     51 H1B         8.7870   -3.5880    1.2530 hn        1 BT5      0.305500
     52 H4          7.0730   -0.0880    1.6930 hn        1 BT5      0.322500
     53 H4B         8.3120   -0.0940   -0.7360 h1        1 BT5      0.085700
     54 H5'        -3.0370    2.0980   -2.9200 h1        1 BT5      0.035200
     55 H5''       -2.7070    1.5370   -1.2040 h1        1 BT5      0.035200
     56 H4'        -5.1450    3.0550   -2.3640 h1        1 BT5      0.075700
     57 H3'        -3.9730    3.9060    0.1150 h1        1 BT5      0.138700
     58 H2         -6.7210    3.7120   -0.5700 ho        1 BT5      0.399000
     59 H1         -4.3260    2.1000    1.5730 h1        1 BT5      0.113700
     60 H2'        -6.3760    3.3470    1.8040 ho        1 BT5      0.420000
     61 H1'        -6.4660    0.5320    0.0770 h2        1 BT5      0.112700
     62 H8         -2.6610    0.8060    0.9840 h5        1 BT5      0.155800
     63 HN61       -1.7390   -3.9710    1.0210 hn        1 BT5      0.422300
     64 HN62       -2.5550   -5.4130    0.6880 hn        1 BT5      0.422300
     65 H3         -6.7940   -4.0700   -0.5690 h5        1 BT5      0.038100
@<TRIPOS>BOND
     1    1    2 1   
     2    1    3 2   
     3    1    4 1   
     4    2   17 1   
     5    4    5 1   
     6    4   39 1   
     7    4   40 1   
     8    5    6 1   
     9    5   41 1   
    10    5   42 1   
    11    6    7 1   
    12    6   43 1   
    13    6   44 1   
    14    7    8 1   
    15    7   45 1   
    16    7   46 1   
    17    8    9 1   
    18    8   16 1   
    19    8   47 1   
    20    9   10 1   
    21   10   11 1   
    22   10   48 1   
    23   10   49 1   
    24   11   12 1   
    25   11   16 1   
    26   11   50 1   
    27   12   13 1   
    28   12   51 1   
    29   13   14 2   
    30   13   15 1   
    31   15   16 1   
    32   15   52 1   
    33   16   53 1   
    34   17   18 1   
    35   17   19 1   
    36   17   20 1   
    37   20   21 1   
    38   21   22 1   
    39   21   54 1   
    40   21   55 1   
    41   22   23 1   
    42   22   24 1   
    43   22   56 1   
    44   23   28 1   
    45   24   25 1   
    46   24   26 1   
    47   24   57 1   
    48   25   58 1   
    49   26   27 1   
    50   26   28 1   
    51   26   59 1   
    52   27   60 1   
    53   28   29 1   
    54   28   61 1   
    55   29   30 1   
    56   29   38 1   
    57   30   31 2   
    58   30   62 1   
    59   31   32 1   
    60   32   33 ar  
    61   32   38 ar  
    62   33   34 1   
    63   33   35 ar  
    64   34   63 1   
    65   34   64 1   
    66   35   36 ar  
    67   36   37 ar  
    68   36   65 1   
    69   37   38 ar  
@<TRIPOS>SUBSTRUCTURE
     1 BT5         1 TEMP              0 ****  ****    0 ROOT
