@<TRIPOS>MOLECULE
BT5
   65    64     1     0     0
SMALL
bcc


@<TRIPOS>ATOM
      1 CBB        -2.5310    2.0940   -0.3360 c1        1 BT5      0.343000
      2 OBB        -1.0980    2.4020   -0.3450 o         1 BT5     -0.662500
      3 OCB        -3.1820    2.3210    0.6400 o         1 BT5     -0.401000
      4 CAB        -3.2300    1.6600   -1.6430 c3        1 BT5     -0.158000
      5 C9B        -4.4540    0.8060   -1.3130 c3        1 BT5     -0.159000
      6 C8B        -4.9070    0.0560   -2.5780 c3        1 BT5     -0.159000
      7 C7B        -6.0570   -0.9240   -2.2090 c3        1 BT5     -0.152000
      8 C2B        -6.1180   -2.0910   -3.2590 c3        1 BT5     -0.230000
      9 S1B        -6.8800   -1.5710   -4.6580 ss        1 BT5      0.082000
     10 C6B        -8.0540   -2.7200   -4.9700 c3        1 BT5     -0.309000
     11 C5B        -7.7350   -3.8380   -4.0280 c3        1 BT5     -0.024000
     12 N1B        -8.8510   -4.3370   -3.5610 n         1 BT5     -0.321000
     13 C3B        -9.1300   -3.5880   -2.1850 c2        1 BT5      0.339000
     14 O3B       -10.2050   -3.4980   -1.6200 o         1 BT5     -0.343000
     15 N2B        -7.8860   -2.7500   -1.8930 n         1 BT5     -0.325000
     16 C4B        -6.9470   -3.1760   -2.7440 c3        1 BT5     -0.015000
     17 P          -0.3220    2.4080    1.0400 p5        1 BT5      1.610500
     18 OP1        -0.7140    1.2640    1.8100 o         1 BT5     -0.662500
     19 OP2        -0.6420    3.5950    1.7560 o         1 BT5     -0.662500
     20 O5'         1.2510    2.3550    0.7760 os        1 BT5     -0.724000
     21 C5'         2.1020    1.6740    1.7630 c3        1 BT5      0.049000
     22 C4'         3.4420    1.3440    1.1280 c3        1 BT5     -0.048000
     23 O4'         4.4050    1.9400    1.7650 os        1 BT5     -0.275000
     24 C3'         3.7400   -0.1430    1.2580 c3        1 BT5      0.002000
     25 O3'         3.6600   -0.7450    0.0460 oh        1 BT5     -0.363000
     26 C2'         5.2040   -0.2290    1.8110 c3        1 BT5     -0.001000
     27 O2'         6.0120   -1.1820    0.9980 oh        1 BT5     -0.315000
     28 C1'         5.6670    0.9520    1.6920 c3        1 BT5      0.121000
     29 N9          6.5400    1.2260    2.7170 n3        1 BT5     -0.184000
     30 C8          6.1090    1.8010    3.8710 c1        1 BT5     -0.026000
     31 N7          7.1900    2.1530    4.5870 n2        1 BT5     -0.137000
     32 C5          8.3130    1.7930    3.8690 c1        1 BT5     -0.230000
     33 C6          9.6890    2.0210    4.0910 c1        1 BT5      0.212000
     34 N6         10.4100    2.4640    5.2670 n3        1 BT5     -0.344000
     35 N1         10.6060    1.6620    3.1350 n1        1 BT5     -0.274000
     36 C2         10.1870    1.0830    1.9660 c1        1 BT5      0.005000
     37 N3          8.8520    0.8610    1.7500 n1        1 BT5     -0.193000
     38 C4          7.9080    1.2270    2.7270 c1        1 BT5      0.063000
     39 H101       -2.6320    1.1600   -2.1650 hc        1 BT5      0.110000
     40 H102       -3.5240    2.4820   -2.1610 hc        1 BT5      0.110000
     41 H9B1       -4.2280    0.1720   -0.6270 hc        1 BT5      0.098500
     42 H9B2       -5.1810    1.3820   -0.9960 hc        1 BT5      0.098500
     43 H8B1       -4.1860   -0.4250   -2.9320 hc        1 BT5      0.085000
     44 H8B2       -5.2310    0.7070   -3.2510 hc        1 BT5      0.085000
     45 H7B1       -6.8700   -0.4630   -2.2110 hc        1 BT5      0.098000
     46 H7B2       -5.8870   -1.3140   -1.2710 hc        1 BT5      0.098000
     47 H2B        -5.1820   -2.4300   -3.4710 h1        1 BT5      0.122000
     48 H6B1       -8.8910   -2.3470   -4.6900 h1        1 BT5      0.118000
     49 H6B2       -7.9020   -3.0360   -5.8220 h1        1 BT5      0.118000
     50 H5B        -7.1880   -4.5300   -4.4640 h1        1 BT5      0.124000
     51 H1B        -9.4490   -4.8580   -4.0270 hn        1 BT5      0.219000
     52 H4         -7.7530   -2.2010   -1.1530 hn        1 BT5      0.236000
     53 H4B        -6.4210   -3.8060   -2.3390 h1        1 BT5      0.125000
     54 H5'         2.2380    2.2480    2.5170 h1        1 BT5      0.064000
     55 H5''        1.6660    0.8490    2.0550 h1        1 BT5      0.064000
     56 H4'         3.4460    1.5970    0.2260 h1        1 BT5      0.136000
     57 H3'         3.1410   -0.5410    1.8600 h1        1 BT5      0.129000
     58 H2          3.0750   -1.5130    0.1040 ho        1 BT5      0.280000
     59 H1          5.1990   -0.5020    2.7530 h1        1 BT5      0.127000
     60 H2'         6.0210   -1.9510    1.3830 ho        1 BT5      0.226000
     61 H1'         6.1450    1.0550    0.7740 h2        1 BT5      0.154000
     62 H8          5.1270    1.9120    4.1630 DU        1 BT5      0.219000
     63 HN61       10.0990    3.2100    5.7580 hn        1 BT5      0.224500
     64 HN62       11.1690    1.9540    5.5910 hn        1 BT5      0.224500
     65 H3         10.8530    0.8210    1.2730 ha        1 BT5      0.179000
@<TRIPOS>BOND
     1    1    3 1   
     2    1    4 1   
     3    2   17 1   
     4    4    5 1   
     5    4   39 1   
     6    4   40 1   
     7    5    6 1   
     8    5   41 1   
     9    5   42 1   
    10    6    7 1   
    11    6   43 1   
    12    6   44 1   
    13    7    8 1   
    14    7   45 1   
    15    7   46 1   
    16    8    9 1   
    17    8   16 1   
    18    8   47 1   
    19    9   10 1   
    20   10   11 1   
    21   10   48 1   
    22   10   49 1   
    23   11   12 1   
    24   11   16 1   
    25   11   50 1   
    26   12   13 1   
    27   12   51 1   
    28   13   14 1   
    29   13   15 1   
    30   15   16 1   
    31   15   52 1   
    32   16   53 1   
    33   17   18 1   
    34   17   19 1   
    35   17   20 1   
    36   20   21 1   
    37   21   22 1   
    38   21   54 1   
    39   21   55 1   
    40   22   23 1   
    41   22   24 1   
    42   22   56 1   
    43   23   28 1   
    44   24   25 1   
    45   24   26 1   
    46   24   57 1   
    47   25   58 1   
    48   26   27 1   
    49   26   28 1   
    50   26   59 1   
    51   27   60 1   
    52   28   29 1   
    53   28   61 1   
    54   29   30 1   
    55   29   38 1   
    56   30   31 1   
    57   31   32 1   
    58   32   38 1   
    59   33   34 1   
    60   33   35 1   
    61   34   63 1   
    62   34   64 1   
    63   36   37 1   
    64   36   65 1   
@<TRIPOS>SUBSTRUCTURE
     1 BT5         1 TEMP              0 ****  ****    0 ROOT
