@<TRIPOS>MOLECULE
BT6
   13    13     1     0     0
SMALL
bcc


@<TRIPOS>ATOM
      1 S1          0.0550    0.3030    0.3390 sh        1 BT6     -0.254700
      2 C1          1.7350    0.1760    0.1410 ca        1 BT6      0.015900
      3 C6          2.4950   -0.0050    1.3050 ca        1 BT6     -0.132000
      4 C5          3.8800   -0.1180    1.2270 ca        1 BT6     -0.113000
      5 C4          4.5210   -0.0520   -0.0110 ca        1 BT6     -0.137000
      6 C3          3.7690    0.1270   -1.1710 ca        1 BT6     -0.113000
      7 C2          2.3820    0.2410   -1.0970 ca        1 BT6     -0.132000
      8 HS1        -0.3140    0.4590   -0.9200 hs        1 BT6      0.190800
      9 H6          1.9900   -0.0570    2.2820 ha        1 BT6      0.136500
     10 H5          4.4690   -0.2600    2.1450 ha        1 BT6      0.133500
     11 H4          5.6160   -0.1420   -0.0710 ha        1 BT6      0.134000
     12 H3          4.2690    0.1800   -2.1500 ha        1 BT6      0.133500
     13 H2          1.7990    0.3830   -2.0190 ha        1 BT6      0.136500
@<TRIPOS>BOND
     1    1    2 1   
     2    1    8 1   
     3    2    3 ar  
     4    2    7 ar  
     5    3    4 ar  
     6    3    9 1   
     7    4    5 ar  
     8    4   10 1   
     9    5    6 ar  
    10    5   11 1   
    11    6    7 ar  
    12    6   12 1   
    13    7   13 1   
@<TRIPOS>SUBSTRUCTURE
     1 BT6         1 TEMP              0 ****  ****    0 ROOT
