@<TRIPOS>MOLECULE
BT6
   13    13     1     0     0
SMALL
bcc


@<TRIPOS>ATOM
      1 S1          2.1570   -0.3350    0.3210 sh        1 BT6     -0.254700
      2 C1          0.4780   -0.1390    0.1830 ca        1 BT6      0.015900
      3 C6         -0.1680    1.1010    0.2080 ca        1 BT6     -0.132000
      4 C5         -1.5540    1.1730    0.0870 ca        1 BT6     -0.113000
      5 C4         -2.3070    0.0090   -0.0580 ca        1 BT6     -0.137000
      6 C3         -1.6670   -1.2320   -0.0830 ca        1 BT6     -0.113000
      7 C2         -0.2820   -1.3080    0.0370 ca        1 BT6     -0.132000
      8 HS1         2.5280    0.9280    0.4390 hs        1 BT6      0.190800
      9 H6          0.4170    2.0260    0.3220 ha        1 BT6      0.136500
     10 H5         -2.0530    2.1530    0.1080 ha        1 BT6      0.133500
     11 H4         -3.4010    0.0660   -0.1520 ha        1 BT6      0.134000
     12 H3         -2.2570   -2.1530   -0.1970 ha        1 BT6      0.133500
     13 H2          0.2220   -2.2870    0.0170 ha        1 BT6      0.136500
@<TRIPOS>BOND
     1    1    2 1   
     2    1    8 1   
     3    2    3 ar  
     4    2    7 ar  
     5    3    4 ar  
     6    3    9 1   
     7    4    5 ar  
     8    4   10 1   
     9    5    6 ar  
    10    5   11 1   
    11    6    7 ar  
    12    6   12 1   
    13    7   13 1   
@<TRIPOS>SUBSTRUCTURE
     1 BT6         1 TEMP              0 ****  ****    0 ROOT
