@<TRIPOS>MOLECULE
BT6
   13    11     1     0     0
SMALL
bcc


@<TRIPOS>ATOM
      1 S1         -2.8250    0.0850   -0.0000 sh        1 BT6      0.079000
      2 C1         -1.0520    0.0850   -0.0000 c2        1 BT6     -0.242000
      3 C6         -0.3590    0.0850    1.2000 c2        1 BT6     -0.082000
      4 C5          1.0280    0.0850    1.2000 c1        1 BT6     -0.145000
      5 C4          1.7210    0.0850    0.0000 c1        1 BT6     -0.123500
      6 C3          1.0280    0.0850   -1.2000 c1        1 BT6     -0.123500
      7 C2         -0.3580    0.0850   -1.2000 c1        1 BT6     -0.082000
      8 HS1        -3.2170   -1.0250   -0.0000 hs        1 BT6      0.022000
      9 H6         -0.8470    0.0850    2.0460 ha        1 BT6      0.145000
     10 H5          1.5160    0.0850    2.0460 ha        1 BT6      0.136000
     11 H4          2.6970    0.0850    0.0000 ha        1 BT6      0.135000
     12 H3          1.5160    0.0850   -2.0460 ha        1 BT6      0.135000
     13 H2         -0.8470    0.0850   -2.0460 ha        1 BT6      0.145000
@<TRIPOS>BOND
     1    1    2 1   
     2    1    8 1   
     3    2    3 1   
     4    2    7 1   
     5    3    4 1   
     6    3    9 1   
     7    4   10 1   
     8    5    6 1   
     9    5   11 1   
    10    6   12 1   
    11    7   13 1   
@<TRIPOS>SUBSTRUCTURE
     1 BT6         1 TEMP              0 ****  ****    0 ROOT
