@<TRIPOS>MOLECULE
BT8
   54    54     1     0     0
SMALL
bcc


@<TRIPOS>ATOM
      1 C10        -0.5220    0.5250    0.9600 c3        1 BT8     -0.109000
      2 C13         1.6130   -0.5700    2.6260 c3        1 BT8     -0.081000
      3 C15        -2.4360   -2.7670    1.1850 c1        1 BT8     -0.002000
      4 C17        -3.7540   -4.5730    1.8260 c3        1 BT8     -0.017000
      5 C20        -5.2770   -6.6500    2.9500 c2        1 BT8     -0.070000
      6 C21        -5.8830   -5.5960    2.2390 c2        1 BT8     -0.128000
      7 C22        -5.2350   -4.4270    1.7700 c1        1 BT8      0.042000
      8 C28        -9.7670   -8.9290    4.7030 c3        1 BT8     -0.310000
      9 C02         5.9970    0.4580    0.3410 c3        1 BT8     -0.072000
     10 C03         4.9660    1.2530   -0.4030 c2        1 BT8     -0.226000
     11 C04         3.6620    1.1740   -0.0810 c2        1 BT8     -0.083000
     12 C05         3.2450    0.3160    1.0230 c2        1 BT8     -0.329000
     13 N06         4.2720   -0.3430    1.7860 n2        1 BT8      0.009000
     14 N07         5.4500   -0.2830    1.5020 n2        1 BT8     -0.083000
     15 N08         1.9210    0.1280    1.3630 n3        1 BT8      0.159000
     16 C09         0.9220    0.5670    0.6000 c2        1 BT8     -0.260000
     17 C11        -1.1230   -0.8050    0.6810 c2        1 BT8     -0.041000
     18 C12         1.7110    0.3180    3.8530 c3        1 BT8     -0.223000
     19 C14        -1.8800   -1.4690    1.5690 c2        1 BT8     -0.271000
     20 O16        -3.1660   -3.2920    2.1660 os        1 BT8     -0.152000
     21 C18        -3.1410   -5.6190    2.7030 c2        1 BT8     -0.152000
     22 C19        -3.8710   -6.6440    3.1970 c2        1 BT8     -0.098000
     23 O23        -7.2700   -5.8400    2.1870 os        1 BT8     -0.005000
     24 N24        -7.5470   -6.9670    2.8100 n2        1 BT8     -0.122000
     25 C25        -6.3990   -7.5180    3.3060 c2        1 BT8      0.079000
     26 O26        -6.2630   -8.6550    4.0020 oh        1 BT8     -0.299000
     27 C27        -8.6990   -9.7200    4.1750 c1        1 BT8     -0.067000
     28 H10        -1.0510    1.2900    0.3220 hc        1 BT8      0.110000
     29 H10A       -0.6850    0.8270    2.0310 hc        1 BT8      0.110000
     30 H13         0.5700   -0.9980    2.5490 h1        1 BT8      0.126500
     31 H13A        2.3160   -1.4450    2.7370 h1        1 BT8      0.126500
     32 H15        -0.6900   -3.3140    2.9300 ha        1 BT8      0.001000
     33 H15A       -0.3850   -3.8340    3.2400 ha        1 BT8      0.001000
     34 H22        -3.4860   -4.8350    0.7420 h1        1 BT8      0.189000
     35 H28        -9.4710   -8.4930    5.6970 hc        1 BT8      0.137667
     36 H28A       -9.8700   -8.0470    3.9970 hc        1 BT8      0.137667
     37 H28B      -10.7640   -9.4250    4.8020 hc        1 BT8      0.137667
     38 H01         7.9490    0.7750    1.2720 hc        1 BT8      0.080000
     39 H01A        7.6010    1.8150   -0.1740 hc        1 BT8      0.080000
     40 H01B        6.8130    2.1810    1.4180 hc        1 BT8      0.080000
     41 H03         6.4040   -0.3430   -0.3510 h1        1 BT8      0.110000
     42 H04         5.3360    1.9050   -1.2030 ha        1 BT8      0.133000
     43 H09         2.9160    1.7800   -0.6140 ha        1 BT8      0.125000
     44 H09A        1.1590    0.9950   -0.3870 h4        1 BT8      0.168000
     45 H11        -0.9160   -1.2260   -0.3190 ha        1 BT8      0.150000
     46 H12         1.4840   -0.3040    4.7530 hc        1 BT8      0.095000
     47 H12A        2.7380    0.7420    3.9630 hc        1 BT8      0.095000
     48 H14         0.9780    1.1590    3.8040 hc        1 BT8      0.095000
     49 H14A       -2.0940   -1.0540    2.5690 ha        1 BT8      0.118000
     50 H18        -2.0600   -5.5210    2.8890 ha        1 BT8      0.152000
     51 H19        -3.4340   -7.4580    3.7950 ha        1 BT8      0.160000
     52 H27        -7.1910   -9.1190    4.1240 ho        1 BT8      0.314000
     53 H27A       -8.9300  -10.6930    3.7210 ha        1 BT8      0.076000
     54 C01         7.1590    1.3610    0.7450 c3        1 BT8     -0.195000
@<TRIPOS>BOND
     1    1   16 1   
     2    1   17 1   
     3    1   28 1   
     4    1   29 1   
     5    2   15 1   
     6    2   18 1   
     7    2   30 1   
     8    2   31 1   
     9    3   19 1   
    10    3   20 1   
    11    4    7 1   
    12    4   20 1   
    13    4   21 1   
    14    4   34 1   
    15    5    6 1   
    16    5   22 1   
    17    5   25 1   
    18    6    7 1   
    19    6   23 1   
    20    8   27 1   
    21    8   35 1   
    22    8   36 1   
    23    8   37 1   
    24    9   10 1   
    25    9   14 1   
    26    9   41 1   
    27    9   54 1   
    28   10   11 1   
    29   10   42 1   
    30   11   12 1   
    31   11   43 1   
    32   12   13 1   
    33   12   15 1   
    34   13   14 1   
    35   15   16 1   
    36   16   44 1   
    37   17   19 1   
    38   17   45 1   
    39   18   46 1   
    40   18   47 1   
    41   18   48 1   
    42   19   49 1   
    43   21   22 1   
    44   21   50 1   
    45   22   51 1   
    46   23   24 1   
    47   24   25 1   
    48   25   26 1   
    49   26   52 1   
    50   27   53 1   
    51   32   33 1   
    52   38   54 1   
    53   39   54 1   
    54   40   54 1   
@<TRIPOS>SUBSTRUCTURE
     1 BT8         1 TEMP              0 ****  ****    0 ROOT
