@<TRIPOS>MOLECULE
BT8
   54    57     1     0     0
SMALL
bcc


@<TRIPOS>ATOM
      1 C10        -3.1000   -1.9820   -0.6060 c3        1 BT8     -0.079900
      2 C13        -3.7520    0.6420    0.4370 c3        1 BT8      0.185300
      3 C15         0.4930   -0.7310   -0.1740 c3        1 BT8      0.128400
      4 C17         2.8710   -0.9030    0.0070 ca        1 BT8      0.171100
      5 C20         5.3940    0.2470   -0.0530 ca        1 BT8     -0.256900
      6 C21         5.2100   -1.1470    0.2080 ca        1 BT8      0.093100
      7 C22         3.9700   -1.7560    0.2460 ca        1 BT8     -0.163000
      8 C28         9.3040    3.0380   -0.3400 c3        1 BT8     -0.104100
      9 C02        -8.6560    1.1910    0.0080 ca        1 BT8      0.311600
     10 C03        -8.5080   -0.2100    0.0570 ca        1 BT8     -0.184300
     11 C04        -7.2210   -0.7410    0.0790 ca        1 BT8     -0.224300
     12 C05        -6.1220    0.1660    0.0530 ca        1 BT8      0.545200
     13 N06        -6.3710    1.5400    0.0040 nb        1 BT8     -0.346000
     14 N07        -7.5440    2.0040   -0.0110 nb        1 BT8     -0.289000
     15 N08        -4.7980   -0.3370    0.1610 nh        1 BT8     -0.724300
     16 C09        -4.4350   -1.2920   -0.8800 c3        1 BT8      0.185300
     17 C11        -1.9940   -0.9620   -0.3790 c3        1 BT8     -0.065700
     18 C12        -2.4050   -0.0150    0.7360 c3        1 BT8     -0.079900
     19 C14        -0.6910   -1.6750   -0.0590 c3        1 BT8     -0.083400
     20 O16         1.6530   -1.5460    0.0510 os        1 BT8     -0.326900
     21 C18         3.0270    0.4730   -0.2520 ca        1 BT8     -0.237000
     22 C19         4.2940    1.0570   -0.2830 ca        1 BT8     -0.006000
     23 O23         6.4750   -1.7360    0.4060 os        1 BT8     -0.011600
     24 N24         7.4260   -0.8040    0.2860 nc        1 BT8     -0.478200
     25 C25         6.8560    0.3890    0.0160 cd        1 BT8      0.579200
     26 O26         7.4490    1.5980   -0.1820 os        1 BT8     -0.384400
     27 C27         8.8920    1.6080   -0.0870 c3        1 BT8      0.129400
     28 H10        -3.1880   -2.6460    0.2930 hc        1 BT8      0.052950
     29 H10A       -2.8540   -2.6270   -1.4880 hc        1 BT8      0.052950
     30 H13        -3.6200    1.3550   -0.4280 h1        1 BT8      0.046950
     31 H13A       -4.0650    1.2410    1.3380 h1        1 BT8      0.046950
     32 H15         0.5510   -0.2740   -1.1960 h1        1 BT8      0.043700
     33 H15A        0.4480    0.0770    0.6030 h1        1 BT8      0.043700
     34 H22         3.8320   -2.8250    0.4460 ha        1 BT8      0.173000
     35 H28         8.9690    3.3710   -1.3510 hc        1 BT8      0.051700
     36 H28A        8.8510    3.7170    0.4220 hc        1 BT8      0.051700
     37 H28B       10.4160    3.1100   -0.2800 hc        1 BT8      0.051700
     38 H01       -10.1600    2.4610    0.8770 hc        1 BT8      0.053367
     39 H01A      -10.1390    2.4360   -0.9350 hc        1 BT8      0.053367
     40 H01B      -10.7960    1.0130   -0.0160 hc        1 BT8      0.053367
     41 H03        -9.3880   -0.8660    0.0820 ha        1 BT8      0.148000
     42 H04        -7.0640   -1.8270    0.1330 ha        1 BT8      0.152000
     43 H09        -4.3740   -0.7820   -1.8870 h1        1 BT8      0.046950
     44 H09A       -5.2390   -2.0780   -0.9410 h1        1 BT8      0.046950
     45 H11        -1.8600   -0.3660   -1.3260 hc        1 BT8      0.050700
     46 H12        -1.6440    0.7990    0.8520 hc        1 BT8      0.052950
     47 H12A       -2.4580   -0.5750    1.7060 hc        1 BT8      0.052950
     48 H14        -0.5430   -2.5310   -0.7700 hc        1 BT8      0.061200
     49 H14A       -0.7280   -2.1040    0.9760 hc        1 BT8      0.061200
     50 H18         2.1480    1.1070   -0.4340 ha        1 BT8      0.144000
     51 H19         4.4150    2.1310   -0.4850 ha        1 BT8      0.152000
     52 H27         9.3130    0.9140   -0.8600 h1        1 BT8      0.056700
     53 H27A        9.1930    1.2650    0.9360 h1        1 BT8      0.056700
     54 C01       -10.0110    1.8070   -0.0180 c3        1 BT8     -0.138400
@<TRIPOS>BOND
     1    1   16 1   
     2    1   17 1   
     3    1   28 1   
     4    1   29 1   
     5    2   15 1   
     6    2   18 1   
     7    2   30 1   
     8    2   31 1   
     9    3   19 1   
    10    3   20 1   
    11    3   32 1   
    12    3   33 1   
    13    4    7 ar  
    14    4   20 1   
    15    4   21 ar  
    16    5    6 ar  
    17    5   22 ar  
    18    5   25 1   
    19    6    7 ar  
    20    6   23 1   
    21    7   34 1   
    22    8   27 1   
    23    8   35 1   
    24    8   36 1   
    25    8   37 1   
    26    9   10 ar  
    27    9   14 ar  
    28    9   54 1   
    29   10   11 ar  
    30   10   41 1   
    31   11   12 ar  
    32   11   42 1   
    33   12   13 ar  
    34   12   15 1   
    35   13   14 ar  
    36   15   16 1   
    37   16   43 1   
    38   16   44 1   
    39   17   18 1   
    40   17   19 1   
    41   17   45 1   
    42   18   46 1   
    43   18   47 1   
    44   19   48 1   
    45   19   49 1   
    46   21   22 ar  
    47   21   50 1   
    48   22   51 1   
    49   23   24 1   
    50   24   25 2   
    51   25   26 1   
    52   26   27 1   
    53   27   52 1   
    54   27   53 1   
    55   38   54 1   
    56   39   54 1   
    57   40   54 1   
@<TRIPOS>SUBSTRUCTURE
     1 BT8         1 TEMP              0 ****  ****    0 ROOT
