@<TRIPOS>MOLECULE
BT8
   54    49     1     0     0
SMALL
bcc


@<TRIPOS>ATOM
      1 C10         1.3900    1.8280    0.8380 c3        1 BT8     -0.158500
      2 C13         2.8690    0.7170    3.0700 c3        1 BT8     -0.051500
      3 C15        -1.4720   -0.2170    1.0290 c3        1 BT8     -0.022000
      4 C17        -3.3810   -0.4980   -0.3700 c1        1 BT8      0.126000
      5 C20        -4.9570   -1.3490   -2.5190 c1        1 BT8     -0.062500
      6 C21        -4.4360   -0.0810   -2.5180 c1        1 BT8     -0.062500
      7 C22        -3.6340    0.3560   -1.4270 c1        1 BT8     -0.084500
      8 C28        -7.3310   -4.2910   -5.4510 c3        1 BT8     -0.222000
      9 C01         9.1010    1.1240    2.2830 c3        1 BT8     -0.162000
     10 C02         7.5790    1.3400    2.1440 c2        1 BT8     -0.111000
     11 C03         7.0260    2.5460    2.4950 c1        1 BT8     -0.119000
     12 C04         5.6780    2.6940    2.5110 c1        1 BT8     -0.159000
     13 C05         4.8680    1.6410    2.1770 c1        1 BT8      0.024000
     14 N06         5.4150    0.4480    1.8300 n1        1 BT8     -0.083000
     15 N07         6.7760    0.2970    1.8140 n2        1 BT8     -0.026000
     16 N08         3.4550    1.7900    2.2270 n3        1 BT8     -0.215000
     17 C09         2.9080    1.8060    0.8560 c3        1 BT8     -0.051500
     18 C11         0.7930    0.7450    1.6810 c3        1 BT8     -0.105000
     19 C12         1.3490    0.7340    3.0600 c3        1 BT8     -0.158500
     20 C14        -0.7400    0.9620    1.7610 c3        1 BT8     -0.162000
     21 O16        -2.8290    0.1700    0.7300 os        1 BT8     -0.210000
     22 C18        -3.9120   -1.7930   -0.3710 c1        1 BT8     -0.237000
     23 C19        -4.6960   -2.2220   -1.4350 c1        1 BT8     -0.084500
     24 O23        -4.7240    0.4970   -3.7270 o         1 BT8     -0.010700
     25 N24        -5.4350   -0.4290   -4.4880 n2        1 BT8     -0.146300
     26 C25        -5.5780   -1.5570   -3.7520 c1        1 BT8      0.074000
     27 O26        -6.0400   -2.8400   -4.0730 o         1 BT8     -0.179000
     28 C27        -6.7470   -2.9050   -5.2830 c3        1 BT8     -0.021000
     29 H10         1.0830    2.6920    1.1720 hc        1 BT8      0.092250
     30 H10A        1.0830    1.7180   -0.0830 hc        1 BT8      0.092250
     31 H13         3.1800    0.8300    3.9860 h1        1 BT8      0.086250
     32 H13A        3.1760   -0.1490    2.7370 h1        1 BT8      0.086250
     33 H15        -0.9980   -0.4280    0.1900 h1        1 BT8      0.083000
     34 H15A       -1.4790   -1.0130    1.6110 h1        1 BT8      0.083000
     35 H22        -3.2200    1.2300   -1.4520 ha        1 BT8      0.162500
     36 H28        -7.7900   -4.3490   -6.3090 hc        1 BT8      0.091000
     37 H28A       -6.6100   -4.9550   -5.4210 hc        1 BT8      0.091000
     38 H28B       -7.9710   -4.4680   -4.7220 hc        1 BT8      0.091000
     39 H01         9.5820    1.8060    1.7440 hc        1 BT8      0.092667
     40 H01A        9.3610    1.2110    3.2330 hc        1 BT8      0.092667
     41 H01B        9.3330    0.2350    1.9630 hc        1 BT8      0.092667
     42 H03         7.5990    3.2930    2.7310 ha        1 BT8      0.148000
     43 H04         5.2850    3.5500    2.7600 ha        1 BT8      0.152000
     44 H09         3.2390    2.5950    0.3950 h1        1 BT8      0.086250
     45 H09A        3.2190    1.0090    0.3820 h1        1 BT8      0.086250
     46 H11         0.9690   -0.1160    1.2620 hc        1 BT8      0.090000
     47 H12         1.0400    1.5320    3.5320 hc        1 BT8      0.092250
     48 H12A        1.0210   -0.0550    3.5270 hc        1 BT8      0.092250
     49 H14        -1.0180    0.9860    2.7010 hc        1 BT8      0.100500
     50 H14A       -0.9720    1.8080    1.3310 hc        1 BT8      0.100500
     51 H18        -3.7330   -2.3930    0.3750 ha        1 BT8      0.144000
     52 H19        -5.0650   -3.1230   -1.4350 ha        1 BT8      0.162500
     53 H27        -7.4710   -2.2430   -5.2750 h1        1 BT8      0.096000
     54 H27A       -6.1410   -2.7140   -6.0260 h1        1 BT8      0.096000
@<TRIPOS>BOND
     1    1   17 1   
     2    1   18 1   
     3    1   29 1   
     4    1   30 1   
     5    2   16 1   
     6    2   19 1   
     7    2   31 1   
     8    2   32 1   
     9    3   20 1   
    10    3   21 1   
    11    3   33 1   
    12    3   34 1   
    13    4   21 1   
    14    4   22 1   
    15    5   23 1   
    16    6    7 1   
    17    7   35 1   
    18    8   28 1   
    19    8   36 1   
    20    8   37 1   
    21    8   38 1   
    22    9   10 1   
    23    9   39 1   
    24    9   40 1   
    25    9   41 1   
    26   10   11 1   
    27   10   15 1   
    28   11   42 1   
    29   12   13 1   
    30   12   43 1   
    31   13   16 1   
    32   14   15 1   
    33   16   17 1   
    34   17   44 1   
    35   17   45 1   
    36   18   19 1   
    37   18   20 1   
    38   18   46 1   
    39   19   47 1   
    40   19   48 1   
    41   20   49 1   
    42   20   50 1   
    43   22   51 1   
    44   23   52 1   
    45   24   25 2   
    46   25   26 1   
    47   27   28 1   
    48   28   53 1   
    49   28   54 1   
@<TRIPOS>SUBSTRUCTURE
     1 BT8         1 TEMP              0 ****  ****    0 ROOT
