@<TRIPOS>MOLECULE
BT8
   54    54     1     0     0
SMALL
bcc


@<TRIPOS>ATOM
      1 C10        -3.8840    2.1160    0.7540 c2        1 BT8     -0.224000
      2 C13         1.5970    0.0950    1.7740 c2        1 BT8     -0.033000
      3 C15        -2.2560    0.5780    3.5940 c3        1 BT8     -0.010000
      4 C17        -1.8010   -1.7520    3.9900 c3        1 BT8     -0.020000
      5 C20        -2.4800   -4.3770    3.2100 c2        1 BT8     -0.029000
      6 C21        -2.2730   -3.3550    2.2630 c2        1 BT8     -0.125000
      7 C22        -2.0510   -1.9920    2.5490 c1        1 BT8     -0.026000
      8 C28        -3.2130   -8.8170    0.2070 c2        1 BT8     -0.229000
      9 C02         2.5710   -4.7130    2.3240 c2        1 BT8     -0.104000
     10 C03         2.5290   -4.5220    0.9270 c2        1 BT8     -0.122000
     11 C04         2.1080   -3.2890    0.4380 c2        1 BT8     -0.141000
     12 C05         1.7470   -2.2870    1.3830 c2        1 BT8      0.028000
     13 N06         1.8130   -2.5710    2.7470 n2        1 BT8     -0.090000
     14 N07         2.2010   -3.6940    3.1740 n2        1 BT8     -0.035000
     15 N08         1.3650   -0.9980    0.9160 nh        1 BT8     -0.194000
     16 C09         0.1530   -0.9730    0.1240 c3        1 BT8     -0.120000
     17 C11        -3.5930    1.9720    2.0450 c2        1 BT8     -0.157000
     18 C12         0.8770    1.2270    1.8280 c2        1 BT8     -0.303000
     19 C14        -3.5050    0.6610    2.7300 c3        1 BT8     -0.170000
     20 O16        -2.3380   -0.5290    4.4900 os        1 BT8     -0.253000
     21 C18        -2.1500   -2.8190    4.9830 c2        1 BT8     -0.092000
     22 C19        -2.4250   -4.0900    4.6050 c2        1 BT8     -0.130000
     23 O23        -2.4290   -3.9140    0.9720 os        1 BT8     -0.009000
     24 N24        -2.7090   -5.1940    1.0730 n2        1 BT8     -0.063000
     25 C25        -2.7600   -5.5490    2.3870 c2        1 BT8      0.024000
     26 O26        -3.0190   -6.7730    2.9170 oh        1 BT8     -0.213000
     27 C27        -4.2720   -9.1960    0.9120 c2        1 BT8     -0.229000
     28 H10         0.1630   -0.0390   -0.4970 h1        1 BT8      0.097667
     29 H10A       -4.0640    1.2630    0.0860 ha        1 BT8      0.111500
     30 H13        -0.0430    1.4030    1.2590 ha        1 BT8      0.123000
     31 H13A        2.5140   -0.0170    2.3880 h4        1 BT8      0.147000
     32 H15        -1.3330    0.5180    2.9600 h1        1 BT8      0.097500
     33 H15A       -2.1890    1.4610    4.2880 h1        1 BT8      0.097500
     34 H22        -0.6510   -1.6670    4.0030 h1        1 BT8      0.174000
     35 H28        -4.2950  -10.1260    1.4970 ha        1 BT8      0.116750
     36 H28A       -2.2890   -9.4100    0.1630 ha        1 BT8      0.116750
     37 H28B       -3.1920   -7.8910   -0.3850 ha        1 BT8      0.116750
     38 H01         3.9380   -5.8700    3.5150 hc        1 BT8      0.093667
     39 H01A        3.2480   -6.7360    2.0750 hc        1 BT8      0.093667
     40 H01B        2.2220   -6.4520    3.5470 hc        1 BT8      0.093667
     41 H03         2.8260   -5.3300    0.2420 ha        1 BT8      0.150000
     42 H04         2.0620   -3.0920   -0.6430 ha        1 BT8      0.159000
     43 H09         0.1300   -1.8620   -0.5580 h1        1 BT8      0.097667
     44 H09A       -0.7740   -0.9830    0.7680 h1        1 BT8      0.097667
     45 H11        -3.9640    3.1020    0.2780 ha        1 BT8      0.111500
     46 H12        -3.4150    2.8500    2.6890 ha        1 BT8      0.115000
     47 H12A        1.2070    2.0610    2.4580 ha        1 BT8      0.123000
     48 H14        -4.4110    0.5250    3.3810 hc        1 BT8      0.106000
     49 H14A       -3.4920   -0.1860    1.9900 hc        1 BT8      0.106000
     50 H18        -2.1380   -2.5110    6.0400 ha        1 BT8      0.160000
     51 H19        -2.6250   -4.8960    5.3250 ha        1 BT8      0.160000
     52 H27        -3.1950   -7.4060    2.1910 ho        1 BT8      0.251000
     53 H27A       -5.2010   -8.6110    0.9470 ha        1 BT8      0.116750
     54 C01         3.0180   -6.0130    2.8950 c3        1 BT8     -0.164000
@<TRIPOS>BOND
     1    1   17 1   
     2    1   29 1   
     3    1   45 1   
     4    2   15 1   
     5    2   18 1   
     6    2   31 1   
     7    3   19 1   
     8    3   20 1   
     9    3   32 1   
    10    3   33 1   
    11    4    7 1   
    12    4   20 1   
    13    4   21 1   
    14    4   34 1   
    15    5    6 1   
    16    5   22 1   
    17    5   25 1   
    18    6    7 1   
    19    6   23 1   
    20    8   27 1   
    21    8   36 1   
    22    8   37 1   
    23    9   10 1   
    24    9   14 1   
    25    9   54 1   
    26   10   11 1   
    27   10   41 1   
    28   11   12 1   
    29   11   42 1   
    30   12   13 1   
    31   12   15 1   
    32   13   14 1   
    33   15   16 1   
    34   16   28 1   
    35   16   43 1   
    36   16   44 1   
    37   17   19 1   
    38   17   46 1   
    39   18   30 1   
    40   18   47 1   
    41   19   48 1   
    42   19   49 1   
    43   21   22 1   
    44   21   50 1   
    45   22   51 1   
    46   23   24 1   
    47   24   25 1   
    48   25   26 1   
    49   26   52 1   
    50   27   35 1   
    51   27   53 1   
    52   38   54 1   
    53   39   54 1   
    54   40   54 1   
@<TRIPOS>SUBSTRUCTURE
     1 BT8         1 TEMP              0 ****  ****    0 ROOT
