@<TRIPOS>MOLECULE
BT9
   29    23     1     0     0
SMALL
bcc


@<TRIPOS>ATOM
      1 C01        -0.5060    0.5330   -3.9720 c1        1 BT9     -0.105000
      2 C02         0.5140   -0.3740   -3.7280 c1        1 BT9     -0.155000
      3 C03         1.1530   -0.3850   -2.4990 c1        1 BT9     -0.155000
      4 C04         0.7730    0.5120   -1.5120 c1        1 BT9     -0.018000
      5 C05        -0.2460    1.4190   -1.7560 c1        1 BT9     -0.129000
      6 C06        -0.8850    1.4300   -2.9860 c1        1 BT9     -0.092000
      7 N07         1.4820    0.5540   -0.2820 n3        1 BT9     -0.242000
      8 C08         0.9100   -0.0140    0.8870 c2        1 BT9      0.140000
      9 C09         0.5640    0.8000    1.9540 c2        1 BT9     -0.226000
     10 C10         0.0790    0.2390    3.1260 c1        1 BT9     -0.040000
     11 C11        -0.0600   -1.1370    3.2290 c1        1 BT9     -0.243000
     12 C12         0.2850   -1.9510    2.1620 c1        1 BT9     -0.040000
     13 C13         0.7700   -1.3890    0.9910 c1        1 BT9     -0.203000
     14 C14        -2.0130    2.4060   -3.2440 c1        1 BT9      0.358000
     15 O15        -1.7580    3.5620   -3.6720 os        1 BT9     -0.562000
     16 O16        -3.2070    2.0490   -3.0670 o         1 BT9     -0.556000
     17 C17        -0.6560   -1.7440    4.4820 c3        1 BT9      0.476000
     18 F18        -1.3870   -2.8170    4.1540 f         1 BT9     -0.179333
     19 F19        -1.4370   -0.8400    5.0880 f         1 BT9     -0.179333
     20 F20         0.3290   -2.1110    5.3110 f         1 BT9     -0.179333
     21 H1         -0.9410    0.5550   -4.8450 ha        1 BT9      0.157000
     22 H2          0.7840   -1.0030   -4.4250 ha        1 BT9      0.115000
     23 H3          1.8890   -1.0060   -2.3370 ha        1 BT9      0.115000
     24 H4         -0.4950    2.0690   -1.0710 ha        1 BT9      0.158000
     25 H5          2.3030    0.9470   -0.2430 hn        1 BT9      0.217000
     26 H6          0.6620    1.7680    1.8810 ha        1 BT9      0.134000
     27 H7         -0.1350    0.8100    3.8880 ha        1 BT9      0.135000
     28 H8          0.2150   -2.9210    2.2460 ha        1 BT9      0.139000
     29 H9          1.0130   -1.9630    0.2390 ha        1 BT9      0.161000
@<TRIPOS>BOND
     1    1    6 1   
     2    1   21 1   
     3    2    3 1   
     4    2   22 1   
     5    3   23 1   
     6    4    5 1   
     7    4    7 1   
     8    5   24 1   
     9    7    8 1   
    10    7   25 1   
    11    8    9 1   
    12    8   13 1   
    13    9   10 1   
    14    9   26 1   
    15   10   27 1   
    16   11   12 1   
    17   11   17 1   
    18   12   28 1   
    19   13   29 1   
    20   14   16 1   
    21   17   18 1   
    22   17   19 1   
    23   17   20 1   
@<TRIPOS>SUBSTRUCTURE
     1 BT9         1 TEMP              0 ****  ****    0 ROOT
