@<TRIPOS>MOLECULE
BT9
   29    30     1     0     0
SMALL
bcc


@<TRIPOS>ATOM
      1 C01         4.5760    0.3580   -0.6070 ca        1 BT9     -0.104000
      2 C02         4.2610    1.6870   -0.8810 ca        1 BT9     -0.155000
      3 C03         3.0230    2.2120   -0.5200 ca        1 BT9     -0.154000
      4 C04         2.0800    1.3920    0.1350 ca        1 BT9      0.063600
      5 C05         2.4070    0.0510    0.4110 ca        1 BT9     -0.124000
      6 C06         3.6490   -0.4650    0.0380 ca        1 BT9     -0.117600
      7 N07         0.8380    1.9700    0.5150 nh        1 BT9     -0.629000
      8 C08        -0.3780    1.3300    0.3630 ca        1 BT9      0.227600
      9 C09        -1.5240    1.8330    1.0420 ca        1 BT9     -0.212000
     10 C10        -2.7750    1.2830    0.8170 ca        1 BT9     -0.038500
     11 C11        -2.9320    0.2190   -0.0730 ca        1 BT9     -0.248300
     12 C12        -1.8140   -0.3070   -0.7310 ca        1 BT9     -0.038500
     13 C13        -0.5550    0.2320   -0.5210 ca        1 BT9     -0.212000
     14 C14         3.9930   -1.9200    0.3420 c         1 BT9      0.908200
     15 O15         5.1430   -2.3290    0.0180 o         1 BT9     -0.823300
     16 O16         3.1090   -2.6280    0.8990 o         1 BT9     -0.823300
     17 C17        -4.3100   -0.3530   -0.3290 c3        1 BT9      0.697200
     18 F18        -4.3370   -1.6660   -0.7350 f         1 BT9     -0.250967
     19 F19        -5.1600   -0.3300    0.7540 f         1 BT9     -0.250967
     20 F20        -5.0300    0.2980   -1.3070 f         1 BT9     -0.250967
     21 H1          5.5510   -0.0730   -0.8860 ha        1 BT9      0.157000
     22 H2          4.9920    2.3330   -1.3880 ha        1 BT9      0.110000
     23 H3          2.7880    3.2620   -0.7460 ha        1 BT9      0.114000
     24 H4          1.7000   -0.6260    0.9210 ha        1 BT9      0.164000
     25 H5          0.9010    2.6210    1.2670 hn        1 BT9      0.416800
     26 H6         -1.4230    2.6670    1.7520 ha        1 BT9      0.149500
     27 H7         -3.6540    1.6820    1.3470 ha        1 BT9      0.138500
     28 H8         -1.9350   -1.1630   -1.4140 ha        1 BT9      0.138500
     29 H9          0.3180   -0.2020   -1.0360 ha        1 BT9      0.149500
@<TRIPOS>BOND
     1    1    2 ar  
     2    1    6 ar  
     3    1   21 1   
     4    2    3 ar  
     5    2   22 1   
     6    3    4 ar  
     7    3   23 1   
     8    4    5 ar  
     9    4    7 1   
    10    5    6 ar  
    11    5   24 1   
    12    6   14 1   
    13    7    8 1   
    14    7   25 1   
    15    8    9 ar  
    16    8   13 ar  
    17    9   10 ar  
    18    9   26 1   
    19   10   11 ar  
    20   10   27 1   
    21   11   12 ar  
    22   11   17 1   
    23   12   13 ar  
    24   12   28 1   
    25   13   29 1   
    26   14   15 1   
    27   14   16 1   
    28   17   18 1   
    29   17   19 1   
    30   17   20 1   
@<TRIPOS>SUBSTRUCTURE
     1 BT9         1 TEMP              0 ****  ****    0 ROOT
