@<TRIPOS>MOLECULE
BT9
   30    31     1     0     0
SMALL
bcc


@<TRIPOS>ATOM
      1 C01         0.3980    0.5400    0.0110 ca        1 BT9     -0.052000
      2 C02         1.6970    0.6880    0.5050 ca        1 BT9     -0.130000
      3 C03         2.0230    0.2570    1.7890 ca        1 BT9     -0.131000
      4 C04         1.0200   -0.3460    2.5700 ca        1 BT9     -0.100400
      5 C05        -0.2850   -0.5060    2.0800 ca        1 BT9     -0.099000
      6 C06        -0.5920   -0.0500    0.7980 ca        1 BT9     -0.116600
      7 N07         1.3320   -0.8280    3.9220 n4        1 BT9     -0.494800
      8 C08         1.1250    0.1820    4.9700 ca        1 BT9     -0.010400
      9 C09         2.1130    0.3630    5.9550 ca        1 BT9     -0.104000
     10 C10         1.9090    1.3060    6.9570 ca        1 BT9     -0.066000
     11 C11         0.7340    2.0630    6.9770 ca        1 BT9     -0.134300
     12 C12        -0.2420    1.8870    5.9970 ca        1 BT9     -0.066000
     13 C13        -0.0530    0.9460    4.9840 ca        1 BT9     -0.104000
     14 C14        -2.0440   -0.2000    0.3040 c         1 BT9      0.917200
     15 O15        -2.2770    0.1420   -0.8780 o         1 BT9     -0.787800
     16 O16        -2.8620   -0.6480    1.1510 o         1 BT9     -0.787800
     17 C17         0.5340    3.1080    8.0760 c3        1 BT9      0.687200
     18 F18        -0.7790    3.3730    8.3690 f         1 BT9     -0.223633
     19 F19         1.0960    2.7640    9.2810 f         1 BT9     -0.223633
     20 F20         1.0790    4.3320    7.7780 f         1 BT9     -0.223633
     21 H1          0.1230    0.8830   -1.0030 ha        1 BT9      0.186000
     22 H2          2.4760    1.1530   -0.1190 ha        1 BT9      0.145000
     23 H3          3.0450    0.3910    2.1710 ha        1 BT9      0.128000
     24 H4         -1.1020   -0.9800    2.6560 ha        1 BT9      0.180000
     25 H5          2.3080   -1.1430    3.9460 hn        1 BT9      0.451800
     26 H6          3.0460   -0.2220    5.9500 ha        1 BT9      0.175500
     27 H7          2.6730    1.4550    7.7390 ha        1 BT9      0.178500
     28 H8         -1.1690    2.4880    6.0180 ha        1 BT9      0.178500
     29 H9         -0.8260    0.8230    4.2000 ha        1 BT9      0.175500
     30 H072        0.7150   -1.6270    4.1260 hn        1 BT9      0.451800
@<TRIPOS>BOND
     1    1    2 ar  
     2    1    6 ar  
     3    1   21 1   
     4    2    3 ar  
     5    2   22 1   
     6    3    4 ar  
     7    3   23 1   
     8    4    5 ar  
     9    4    7 1   
    10    5    6 ar  
    11    5   24 1   
    12    6   14 1   
    13    7    8 1   
    14    7   25 1   
    15    7   30 1   
    16    8    9 ar  
    17    8   13 ar  
    18    9   10 ar  
    19    9   26 1   
    20   10   11 ar  
    21   10   27 1   
    22   11   12 ar  
    23   11   17 1   
    24   12   13 ar  
    25   12   28 1   
    26   13   29 1   
    27   14   15 1   
    28   14   16 1   
    29   17   18 1   
    30   17   19 1   
    31   17   20 1   
@<TRIPOS>SUBSTRUCTURE
     1 BT9         1 TEMP              0 ****  ****    0 ROOT
