@<TRIPOS>MOLECULE
BT9
   29    30     1     0     0
SMALL
bcc


@<TRIPOS>ATOM
      1 C01         0.1270    0.0670   -0.1720 ca        1 BT9     -0.104000
      2 C02         1.5070    0.1660   -0.0050 ca        1 BT9     -0.155000
      3 C03         2.0740    0.1120    1.2650 ca        1 BT9     -0.154000
      4 C04         1.2440   -0.0510    2.3950 ca        1 BT9      0.063600
      5 C05        -0.1490   -0.1540    2.2180 ca        1 BT9     -0.124000
      6 C06        -0.7050   -0.0920    0.9390 ca        1 BT9     -0.117600
      7 N07         1.8600   -0.1320    3.6730 nh        1 BT9     -0.629000
      8 C08         1.3700    0.5050    4.7970 ca        1 BT9      0.227600
      9 C09         1.8540    0.1310    6.0820 ca        1 BT9     -0.212500
     10 C10         1.4680    0.8300    7.2140 ca        1 BT9     -0.038500
     11 C11         0.5870    1.9090    7.1130 ca        1 BT9     -0.249300
     12 C12         0.0790    2.2760    5.8620 ca        1 BT9     -0.038500
     13 C13         0.4570    1.5920    4.7200 ca        1 BT9     -0.212500
     14 C14        -2.2160   -0.2040    0.7580 c         1 BT9      0.908200
     15 O15        -2.6670   -0.1790   -0.4200 o         1 BT9     -0.823300
     16 O16        -2.9250   -0.3140    1.7970 o         1 BT9     -0.823300
     17 C17         0.1950    2.6800    8.3560 c3        1 BT9      0.697200
     18 F18        -1.0240    3.3130    8.2960 f         1 BT9     -0.250967
     19 F19         0.1160    1.9290    9.5060 f         1 BT9     -0.250967
     20 F20         1.0640    3.6920    8.7020 f         1 BT9     -0.250967
     21 H1         -0.3380    0.1080   -1.1710 ha        1 BT9      0.157000
     22 H2          2.1600    0.2910   -0.8810 ha        1 BT9      0.110000
     23 H3          3.1630    0.1950    1.3800 ha        1 BT9      0.114000
     24 H4         -0.8350   -0.2830    3.0730 ha        1 BT9      0.164000
     25 H5          2.3680   -0.9750    3.8320 hn        1 BT9      0.416800
     26 H6          2.5440   -0.7190    6.1860 ha        1 BT9      0.149500
     27 H7          1.8510    0.5310    8.2020 ha        1 BT9      0.138500
     28 H8         -0.6350    3.1120    5.7880 ha        1 BT9      0.138500
     29 H9          0.0380    1.8850    3.7420 ha        1 BT9      0.149500
@<TRIPOS>BOND
     1    1    2 ar  
     2    1    6 ar  
     3    1   21 1   
     4    2    3 ar  
     5    2   22 1   
     6    3    4 ar  
     7    3   23 1   
     8    4    5 ar  
     9    4    7 1   
    10    5    6 ar  
    11    5   24 1   
    12    6   14 1   
    13    7    8 1   
    14    7   25 1   
    15    8    9 ar  
    16    8   13 ar  
    17    9   10 ar  
    18    9   26 1   
    19   10   11 ar  
    20   10   27 1   
    21   11   12 ar  
    22   11   17 1   
    23   12   13 ar  
    24   12   28 1   
    25   13   29 1   
    26   14   15 1   
    27   14   16 1   
    28   17   18 1   
    29   17   19 1   
    30   17   20 1   
@<TRIPOS>SUBSTRUCTURE
     1 BT9         1 TEMP              0 ****  ****    0 ROOT
