@<TRIPOS>MOLECULE
BTA
   18    17     1     0     0
SMALL
bcc


@<TRIPOS>ATOM
      1 N          -1.9720   -0.3030   -1.0450 n3        1 BTA     -0.891800
      2 CA         -0.5500   -0.3030   -1.0450 c3        1 BTA      0.018500
      3 CB         -0.0460   -0.3030    0.3800 c3        1 BTA     -0.063400
      4 CG          0.7090    0.9800    0.6470 c3        1 BTA     -0.078400
      5 CD          1.1750    1.0000    2.0870 c3        1 BTA     -0.088100
      6 C          -0.0460   -1.5370   -1.7580 c         1 BTA      0.887600
      7 O           0.7530   -1.4240   -2.7250 o         1 BTA     -0.845800
      8 OXT        -0.4250   -2.6790   -1.3850 o         1 BTA     -0.845800
      9 HN1        -2.2760   -0.8260   -1.7280 hn        1 BTA      0.328800
     10 HN2        -2.2760    0.5490   -1.1570 hn        1 BTA      0.328800
     11 HA         -0.2240    0.4940   -1.5060 h1        1 BTA      0.039700
     12 HB1        -0.8030   -0.3690    0.9920 hc        1 BTA      0.045200
     13 HB2         0.5490   -1.0650    0.5140 hc        1 BTA      0.045200
     14 HG1         1.4830    1.0320    0.0540 hc        1 BTA      0.034200
     15 HG2         0.1220    1.7430    0.4850 hc        1 BTA      0.034200
     16 HD1         1.7480    0.2280    2.2540 hc        1 BTA      0.017367
     17 HD2         1.6770    1.8200    2.2550 hc        1 BTA      0.017367
     18 HD3         0.4000    0.9650    2.6800 hc        1 BTA      0.017367
@<TRIPOS>BOND
     1    1    2 1   
     2    1    9 1   
     3    1   10 1   
     4    2    3 1   
     5    2    6 1   
     6    2   11 1   
     7    3    4 1   
     8    3   12 1   
     9    3   13 1   
    10    4    5 1   
    11    4   14 1   
    12    4   15 1   
    13    5   16 1   
    14    5   17 1   
    15    5   18 1   
    16    6    7 1   
    17    6    8 1   
@<TRIPOS>SUBSTRUCTURE
     1 BTA         1 TEMP              0 ****  ****    0 ROOT
