@<TRIPOS>MOLECULE
BTA
   18    17     1     0     0
SMALL
bcc


@<TRIPOS>ATOM
      1 N          -1.8750    0.2860   -0.0850 n3        1 BTA     -0.891800
      2 CA         -0.4240    0.4100   -0.1630 c3        1 BTA      0.018500
      3 CB          0.3070   -0.2720    0.9930 c3        1 BTA     -0.063400
      4 CG          0.0170    0.3770    2.3290 c3        1 BTA     -0.078400
      5 CD          0.8170   -0.2580    3.4390 c3        1 BTA     -0.088100
      6 C           0.1960   -0.1060   -1.5040 c         1 BTA      0.887600
      7 O          -0.5870   -0.5740   -2.3820 o         1 BTA     -0.845800
      8 OXT         1.4460   -0.0080   -1.6460 o         1 BTA     -0.845800
      9 HN1        -2.1040   -0.6810    0.0630 hn        1 BTA      0.328800
     10 HN2        -2.2420    0.5240   -0.9930 hn        1 BTA      0.328800
     11 HA         -0.1990    1.5160   -0.1170 h1        1 BTA      0.039700
     12 HB1         1.4060   -0.2120    0.7680 hc        1 BTA      0.045200
     13 HB2         0.0320   -1.3580    1.0360 hc        1 BTA      0.045200
     14 HG1        -1.0770    0.2960    2.5620 hc        1 BTA      0.034200
     15 HG2         0.2600    1.4710    2.2710 hc        1 BTA      0.034200
     16 HD1         0.5960    0.2360    4.4160 hc        1 BTA      0.017367
     17 HD2         0.5710   -1.3430    3.5290 hc        1 BTA      0.017367
     18 HD3         1.9120   -0.1650    3.2370 hc        1 BTA      0.017367
@<TRIPOS>BOND
     1    1    2 1   
     2    1    9 1   
     3    1   10 1   
     4    2    3 1   
     5    2    6 1   
     6    2   11 1   
     7    3    4 1   
     8    3   12 1   
     9    3   13 1   
    10    4    5 1   
    11    4   14 1   
    12    4   15 1   
    13    5   16 1   
    14    5   17 1   
    15    5   18 1   
    16    6    7 1   
    17    6    8 1   
@<TRIPOS>SUBSTRUCTURE
     1 BTA         1 TEMP              0 ****  ****    0 ROOT
