@<TRIPOS>MOLECULE
BTB
   34    33     1     0     0
SMALL
bcc


@<TRIPOS>ATOM
      1 C1          0.0130    0.1140   -0.2440 c3        1 BTB      0.118400
      2 O1          1.3800   -0.2060   -0.2830 oh        1 BTB     -0.621800
      3 C2         -0.4980    0.2910    1.2120 c3        1 BTB      0.101200
      4 C3         -2.0550    0.2720    1.1460 c3        1 BTB      0.118400
      5 O3         -2.5350    0.2240    2.4780 oh        1 BTB     -0.621800
      6 C4         -0.1280    1.7120    1.7250 c3        1 BTB      0.118400
      7 O4          1.1640    2.0330    1.2420 oh        1 BTB     -0.621800
      8 N           0.0150   -0.8020    2.1430 n4        1 BTB     -0.651400
      9 C5         -0.0890   -2.1960    1.5900 c3        1 BTB      0.079800
     10 C6         -1.5020   -2.7780    1.4700 c3        1 BTB      0.108900
     11 O6         -1.9790   -2.6410    0.1490 oh        1 BTB     -0.616300
     12 C7          1.4350   -0.5990    2.5970 c3        1 BTB      0.079800
     13 C8          1.6470   -0.9480    4.0750 c3        1 BTB      0.108900
     14 O8          1.1880   -2.2690    4.2880 oh        1 BTB     -0.616300
     15 H11        -0.2130    1.0620   -0.7980 h1        1 BTB      0.077033
     16 H12        -0.5160   -0.7530   -0.7320 h1        1 BTB      0.077033
     17 HO1         1.8880    0.6170   -0.2260 ho        1 BTB      0.444333
     18 H31        -2.4290   -0.6060    0.5560 h1        1 BTB      0.077033
     19 H32        -2.4020    1.2110    0.6350 h1        1 BTB      0.077033
     20 HO3        -3.5010    0.2570    2.4380 ho        1 BTB      0.444333
     21 H41        -0.8790    2.4450    1.3220 h1        1 BTB      0.077033
     22 H42        -0.1480    1.7610    2.8470 h1        1 BTB      0.077033
     23 HO4         1.2840    2.9870    1.3420 ho        1 BTB      0.444333
     24 H51         0.4930   -2.8590    2.3020 hx        1 BTB      0.122950
     25 H52         0.4230   -2.2130    0.5850 hx        1 BTB      0.122950
     26 H61        -2.2460   -2.2390    2.1190 h1        1 BTB      0.074700
     27 H62        -1.4640   -3.8570    1.7800 h1        1 BTB      0.074700
     28 HO6        -1.6610   -3.3920   -0.3680 ho        1 BTB      0.436000
     29 H71         2.1030   -1.2310    1.9410 hx        1 BTB      0.122950
     30 H72         1.7580    0.4700    2.4540 hx        1 BTB      0.122950
     31 H81         2.7450   -0.8560    4.2920 h1        1 BTB      0.074700
     32 H82         1.0760   -0.2430    4.7390 h1        1 BTB      0.074700
     33 HO8         1.5750   -2.5840    5.1150 ho        1 BTB      0.436000
     34 HN1        -0.5910   -0.7580    2.9800 hn        1 BTB      0.458800
@<TRIPOS>BOND
     1    1    2 1   
     2    1    3 1   
     3    1   15 1   
     4    1   16 1   
     5    2   17 1   
     6    3    4 1   
     7    3    6 1   
     8    3    8 1   
     9    4    5 1   
    10    4   18 1   
    11    4   19 1   
    12    5   20 1   
    13    6    7 1   
    14    6   21 1   
    15    6   22 1   
    16    7   23 1   
    17    8    9 1   
    18    8   12 1   
    19    8   34 1   
    20    9   10 1   
    21    9   24 1   
    22    9   25 1   
    23   10   11 1   
    24   10   26 1   
    25   10   27 1   
    26   11   28 1   
    27   12   13 1   
    28   12   29 1   
    29   12   30 1   
    30   13   14 1   
    31   13   31 1   
    32   13   32 1   
    33   14   33 1   
@<TRIPOS>SUBSTRUCTURE
     1 BTB         1 TEMP              0 ****  ****    0 ROOT
