@<TRIPOS>MOLECULE
BTB
   34    33     1     0     0
SMALL
bcc


@<TRIPOS>ATOM
      1 C1         -0.0380    0.2930   -0.1070 c3        1 BTB      0.111067
      2 O1          1.3760    0.3120   -0.1590 oh        1 BTB     -0.614133
      3 C2         -0.4680    0.1950    1.3750 c3        1 BTB      0.103200
      4 C3         -2.0300    0.1600    1.3620 c3        1 BTB      0.111067
      5 O3         -2.4690   -0.2090    2.6560 oh        1 BTB     -0.614133
      6 C4         -0.1100    1.5260    2.1040 c3        1 BTB      0.111067
      7 O4          1.2560    1.8360    2.1090 oh        1 BTB     -0.614133
      8 N           0.0980   -1.0260    2.0860 nx        1 BTB     -0.659400
      9 C5          0.0160   -2.3040    1.3040 c3        1 BTB      0.105300
     10 C6         -1.3860   -2.8540    1.0280 c3        1 BTB      0.109900
     11 O6         -1.7540   -2.4220   -0.2700 oh        1 BTB     -0.628800
     12 C7          1.5220   -0.8660    2.5570 c3        1 BTB      0.105300
     13 C8          1.6350   -0.4470    4.0270 c3        1 BTB      0.109900
     14 O8          0.8510   -1.3590    4.7780 oh        1 BTB     -0.628800
     15 H11        -0.4530    1.2530   -0.5200 h1        1 BTB      0.076867
     16 H12        -0.4480   -0.5700   -0.7020 h1        1 BTB      0.076867
     17 HO1         1.6280    0.3840   -1.0900 ho        1 BTB      0.440667
     18 H31        -2.4120   -0.5750    0.6030 h1        1 BTB      0.076867
     19 H32        -2.4030    1.1840    1.0870 h1        1 BTB      0.076867
     20 HO3        -3.3950    0.0550    2.7370 ho        1 BTB      0.440667
     21 H41        -0.6970    2.3440    1.6020 h1        1 BTB      0.076867
     22 H42        -0.4140    1.4630    3.1850 h1        1 BTB      0.076867
     23 HO4         1.5210    2.0650    1.2050 ho        1 BTB      0.440667
     24 H51         0.5540   -3.0890    1.9150 hx        1 BTB      0.115700
     25 H52         0.5680   -2.1540    0.3320 hx        1 BTB      0.115700
     26 H61        -2.1440   -2.4900    1.7750 h1        1 BTB      0.071950
     27 H62        -1.3330   -3.9760    1.0750 h1        1 BTB      0.071950
     28 HO6        -2.3570   -3.0790   -0.6400 ho        1 BTB      0.441500
     29 H71         2.0490   -1.8580    2.4450 hx        1 BTB      0.115700
     30 H72         2.0550   -0.1180    1.9030 hx        1 BTB      0.115700
     31 H81         2.7190   -0.5120    4.3160 h1        1 BTB      0.071950
     32 H82         1.2730    0.6040    4.1860 h1        1 BTB      0.071950
     33 HO8         1.0290   -1.1920    5.7130 ho        1 BTB      0.441500
     34 HN1        -0.4890   -1.1440    2.9340 hn        1 BTB      0.475800
@<TRIPOS>BOND
     1    1    2 1   
     2    1    3 1   
     3    1   15 1   
     4    1   16 1   
     5    2   17 1   
     6    3    4 1   
     7    3    6 1   
     8    3    8 1   
     9    4    5 1   
    10    4   18 1   
    11    4   19 1   
    12    5   20 1   
    13    6    7 1   
    14    6   21 1   
    15    6   22 1   
    16    7   23 1   
    17    8    9 1   
    18    8   12 1   
    19    8   34 1   
    20    9   10 1   
    21    9   24 1   
    22    9   25 1   
    23   10   11 1   
    24   10   26 1   
    25   10   27 1   
    26   11   28 1   
    27   12   13 1   
    28   12   29 1   
    29   12   30 1   
    30   13   14 1   
    31   13   31 1   
    32   13   32 1   
    33   14   33 1   
@<TRIPOS>SUBSTRUCTURE
     1 BTB         1 TEMP              0 ****  ****    0 ROOT
