@<TRIPOS>MOLECULE
BTB
   33    32     1     0     0
SMALL
bcc


@<TRIPOS>ATOM
      1 C1          1.4750    0.1280   -1.5040 c3        1 BTB      0.130067
      2 O1          2.8890    0.1280   -1.5040 oh        1 BTB     -0.619800
      3 C2          0.9620    0.1280   -0.0530 c3        1 BTB      0.117200
      4 C3          1.7410   -0.9140    0.7670 c3        1 BTB      0.130067
      5 O3          3.1260   -0.7710    0.5180 oh        1 BTB     -0.619800
      6 C4          1.1690    1.5230    0.5620 c3        1 BTB      0.130067
      7 O4          2.5440    1.8520    0.5380 oh        1 BTB     -0.619800
      8 N          -0.4710   -0.2090   -0.0400 n3        1 BTB     -0.781600
      9 C5         -1.2060    0.7700   -0.8180 c3        1 BTB      0.187300
     10 C6         -2.2120    0.0560   -1.7170 c3        1 BTB      0.121900
     11 O6         -2.7230    0.9670   -2.6670 oh        1 BTB     -0.606800
     12 C7         -0.9570   -0.2040    1.3260 c3        1 BTB      0.187300
     13 C8         -1.8290   -1.4350    1.5610 c3        1 BTB      0.121900
     14 O8         -2.0800   -1.5770    2.9440 oh        1 BTB     -0.606800
     15 H11         1.1500   -0.6690   -1.9640 h1        1 BTB      0.051533
     16 H12         1.1500    0.9250   -1.9640 h1        1 BTB      0.051533
     17 HO1         3.1850    0.0990   -2.3400 ho        1 BTB      0.429667
     18 H31         1.5660   -0.7760    1.7180 h1        1 BTB      0.051533
     19 H32         1.4550   -1.8110    0.5100 h1        1 BTB      0.051533
     20 HO3         3.5730   -1.3870    0.9740 ho        1 BTB      0.429667
     21 H41         0.8510    1.5210    1.4850 h1        1 BTB      0.051533
     22 H42         0.6670    2.1840    0.0470 h1        1 BTB      0.051533
     23 HO4         2.6620    2.6570    0.8930 ho        1 BTB      0.429667
     24 H51        -0.5830    1.2810   -1.3690 h1        1 BTB      0.052700
     25 H52        -1.6800    1.3750   -0.2150 h1        1 BTB      0.052700
     26 H61        -2.9450   -0.2930   -1.1740 h1        1 BTB      0.027700
     27 H62        -1.7700   -0.6820   -2.1790 h1        1 BTB      0.027700
     28 HO6        -3.3510    0.5690   -3.1510 ho        1 BTB      0.404000
     29 H71        -1.4840    0.6030    1.4810 h1        1 BTB      0.052700
     30 H72        -0.1990   -0.2200    1.9410 h1        1 BTB      0.052700
     31 H81        -1.3670   -2.2290    1.2310 h1        1 BTB      0.027700
     32 H82        -2.6750   -1.3300    1.0860 h1        1 BTB      0.027700
     33 HO8        -2.6330   -2.2580    3.0760 ho        1 BTB      0.404000
@<TRIPOS>BOND
     1    1    2 1   
     2    1    3 1   
     3    1   15 1   
     4    1   16 1   
     5    2   17 1   
     6    3    4 1   
     7    3    6 1   
     8    3    8 1   
     9    4    5 1   
    10    4   18 1   
    11    4   19 1   
    12    5   20 1   
    13    6    7 1   
    14    6   21 1   
    15    6   22 1   
    16    7   23 1   
    17    8    9 1   
    18    8   12 1   
    19    9   10 1   
    20    9   24 1   
    21    9   25 1   
    22   10   11 1   
    23   10   26 1   
    24   10   27 1   
    25   11   28 1   
    26   12   13 1   
    27   12   29 1   
    28   12   30 1   
    29   13   14 1   
    30   13   31 1   
    31   13   32 1   
    32   14   33 1   
@<TRIPOS>SUBSTRUCTURE
     1 BTB         1 TEMP              0 ****  ****    0 ROOT
