@<TRIPOS>MOLECULE
BTB
   34    33     1     0     0
SMALL
bcc


@<TRIPOS>ATOM
      1 C1          0.0380    0.1060   -0.2440 c3        1 BTB      0.118400
      2 O1          1.4040   -0.2200   -0.2680 oh        1 BTB     -0.621800
      3 C2         -0.4890    0.2910    1.2060 c3        1 BTB      0.101200
      4 C3         -2.0450    0.2800    1.1220 c3        1 BTB      0.118400
      5 O3         -2.5400    0.2390    2.4490 oh        1 BTB     -0.621800
      6 C4         -0.1170    1.7120    1.7170 c3        1 BTB      0.118400
      7 O4          1.1820    2.0250    1.2470 oh        1 BTB     -0.621800
      8 N           0.0090   -0.8010    2.1460 n4        1 BTB     -0.651400
      9 C5         -0.0960   -2.1960    1.5960 c3        1 BTB      0.079800
     10 C6         -1.5100   -2.7720    1.4620 c3        1 BTB      0.108900
     11 O6         -1.9720   -2.6370    0.1370 oh        1 BTB     -0.616300
     12 C7          1.4250   -0.6030    2.6140 c3        1 BTB      0.079800
     13 C8          1.6190   -0.9490    4.0950 c3        1 BTB      0.108900
     14 O8          1.1520   -2.2670    4.3070 oh        1 BTB     -0.616300
     15 H11        -0.1770    1.0540   -0.8040 h1        1 BTB      0.077033
     16 H12        -0.4910   -0.7600   -0.7350 h1        1 BTB      0.077033
     17 HO1         1.9150    0.6010   -0.2080 ho        1 BTB      0.444333
     18 H31        -2.3810    1.2180    0.6040 h1        1 BTB      0.077033
     19 H32        -2.4160   -0.5990    0.5310 h1        1 BTB      0.077033
     20 HO3        -3.5040    0.2760    2.3980 ho        1 BTB      0.444333
     21 H41        -0.1490    1.7650    2.8390 h1        1 BTB      0.077033
     22 H42        -0.8600    2.4480    1.3040 h1        1 BTB      0.077033
     23 HO4         1.3050    2.9790    1.3450 ho        1 BTB      0.444333
     24 H51         0.4750   -2.8600    2.3160 hx        1 BTB      0.122950
     25 H52         0.4270   -2.2190    0.5970 hx        1 BTB      0.122950
     26 H61        -2.2590   -2.2270    2.1020 h1        1 BTB      0.074700
     27 H62        -1.4800   -3.8500    1.7770 h1        1 BTB      0.074700
     28 HO6        -1.6520   -3.3920   -0.3750 ho        1 BTB      0.436000
     29 H71         1.7550    0.4630    2.4720 hx        1 BTB      0.122950
     30 H72         2.0970   -1.2400    1.9680 hx        1 BTB      0.122950
     31 H81         1.0440   -0.2400    4.7520 h1        1 BTB      0.074700
     32 H82         2.7160   -0.8610    4.3240 h1        1 BTB      0.074700
     33 HO8         1.5290   -2.5820    5.1400 ho        1 BTB      0.436000
     34 HN1        -0.6060   -0.7520    2.9760 hn        1 BTB      0.458800
@<TRIPOS>BOND
     1    1    2 1   
     2    1    3 1   
     3    1   15 1   
     4    1   16 1   
     5    2   17 1   
     6    3    4 1   
     7    3    6 1   
     8    3    8 1   
     9    4    5 1   
    10    4   18 1   
    11    4   19 1   
    12    5   20 1   
    13    6    7 1   
    14    6   21 1   
    15    6   22 1   
    16    7   23 1   
    17    8    9 1   
    18    8   12 1   
    19    8   34 1   
    20    9   10 1   
    21    9   24 1   
    22    9   25 1   
    23   10   11 1   
    24   10   26 1   
    25   10   27 1   
    26   11   28 1   
    27   12   13 1   
    28   12   29 1   
    29   12   30 1   
    30   13   14 1   
    31   13   31 1   
    32   13   32 1   
    33   14   33 1   
@<TRIPOS>SUBSTRUCTURE
     1 BTB         1 TEMP              0 ****  ****    0 ROOT
