@<TRIPOS>MOLECULE
BTB
   33    32     1     0     0
SMALL
bcc


@<TRIPOS>ATOM
      1 C1          2.2560   -0.5180    0.6610 c3        1 BTB      0.133733
      2 O1          2.8860    0.4110   -0.1900 oh        1 BTB     -0.615467
      3 C2          0.7590   -0.7560    0.3230 c3        1 BTB      0.122200
      4 C3          0.2030   -1.6350    1.4910 c3        1 BTB      0.133733
      5 O3         -1.0850   -2.1340    1.2120 oh        1 BTB     -0.615467
      6 C4          0.6750   -1.6820   -0.9250 c3        1 BTB      0.133733
      7 O4          1.5910   -1.3160   -1.9360 oh        1 BTB     -0.615467
      8 N          -0.0400    0.4630    0.1790 n3        1 BTB     -0.771600
      9 C5         -0.1100    1.3080    1.3560 c3        1 BTB      0.190800
     10 C6         -1.5480    1.4960    1.8710 c3        1 BTB      0.119900
     11 O6         -1.8970    0.3250    2.5900 oh        1 BTB     -0.617300
     12 C7          0.0740    1.1970   -1.0650 c3        1 BTB      0.190800
     13 C8         -1.1500    1.0260   -1.9850 c3        1 BTB      0.119900
     14 O8         -0.8640   -0.0370   -2.8810 oh        1 BTB     -0.617300
     15 H11         2.3610   -0.0760    1.6890 h1        1 BTB      0.051533
     16 H12         2.7870   -1.5070    0.6240 h1        1 BTB      0.051533
     17 HO1         2.9680   -0.0030   -1.0610 ho        1 BTB      0.423000
     18 H31         0.8510   -2.5470    1.5970 h1        1 BTB      0.051533
     19 H32         0.2000   -1.0680    2.4590 h1        1 BTB      0.051533
     20 HO3        -1.6940   -1.3830    1.2510 ho        1 BTB      0.423000
     21 H41         0.9870   -2.7170   -0.6110 h1        1 BTB      0.051533
     22 H42        -0.3780   -1.7130   -1.3090 h1        1 BTB      0.051533
     23 HO4         1.0970   -0.8660   -2.6350 ho        1 BTB      0.423000
     24 H51         0.2960    2.3420    1.1500 h1        1 BTB      0.051950
     25 H52         0.5010    0.8850    2.2020 h1        1 BTB      0.051950
     26 H61        -2.2720    1.6640    1.0300 h1        1 BTB      0.028200
     27 H62        -1.5730    2.3820    2.5620 h1        1 BTB      0.028200
     28 HO6        -2.8080    0.4360    2.8830 ho        1 BTB      0.405000
     29 H71         0.1640    2.3040   -0.8660 h1        1 BTB      0.051950
     30 H72         0.9980    0.8990   -1.6360 h1        1 BTB      0.051950
     31 H81        -2.0860    0.8140   -1.4050 h1        1 BTB      0.028200
     32 H82        -1.2930    1.9680   -2.5820 h1        1 BTB      0.028200
     33 HO8        -1.6980   -0.3020   -3.2830 ho        1 BTB      0.405000
@<TRIPOS>BOND
     1    1    2 1   
     2    1    3 1   
     3    1   15 1   
     4    1   16 1   
     5    2   17 1   
     6    3    4 1   
     7    3    6 1   
     8    3    8 1   
     9    4    5 1   
    10    4   18 1   
    11    4   19 1   
    12    5   20 1   
    13    6    7 1   
    14    6   21 1   
    15    6   22 1   
    16    7   23 1   
    17    8    9 1   
    18    8   12 1   
    19    9   10 1   
    20    9   24 1   
    21    9   25 1   
    22   10   11 1   
    23   10   26 1   
    24   10   27 1   
    25   11   28 1   
    26   12   13 1   
    27   12   29 1   
    28   12   30 1   
    29   13   14 1   
    30   13   31 1   
    31   13   32 1   
    32   14   33 1   
@<TRIPOS>SUBSTRUCTURE
     1 BTB         1 TEMP              0 ****  ****    0 ROOT
