@<TRIPOS>MOLECULE
BTC
   13    12     1     0     0
SMALL
bcc


@<TRIPOS>ATOM
      1 N          -1.6220    0.3100   -0.5580 n3        1 BTC     -0.897800
      2 CA         -0.2080    0.3530   -0.4010 c3        1 BTC      0.002500
      3 CB          0.1460    0.1030    1.0470 c3        1 BTC      0.071700
      4 SG          1.8640   -0.3200    1.1700 sh        1 BTC     -0.506900
      5 C           0.4270   -0.7110   -1.2670 c         1 BTC      0.893600
      6 O          -0.0130   -1.8900   -1.2390 o         1 BTC     -0.834300
      7 OXT         1.3960   -0.4180   -2.0150 o         1 BTC     -0.834300
      8 H          -2.0140    0.8550    0.0640 hn        1 BTC      0.335800
      9 H2         -1.8440    0.5960   -1.3990 hn        1 BTC      0.335800
     10 HA          0.1230    1.2320   -0.6700 h1        1 BTC      0.054700
     11 HB2        -0.0290    0.9100    1.5700 h1        1 BTC      0.074700
     12 HB3        -0.3960   -0.6340    1.3930 h1        1 BTC      0.074700
     13 HG          2.1710   -0.3850    2.3050 hs        1 BTC      0.229800
@<TRIPOS>BOND
     1    1    2 1   
     2    1    8 1   
     3    1    9 1   
     4    2    3 1   
     5    2    5 1   
     6    2   10 1   
     7    3    4 1   
     8    3   11 1   
     9    3   12 1   
    10    4   13 1   
    11    5    6 1   
    12    5    7 1   
@<TRIPOS>SUBSTRUCTURE
     1 BTC         1 TEMP              0 ****  ****    0 ROOT
