@<TRIPOS>MOLECULE
BTC
   13    12     1     0     0
SMALL
bcc


@<TRIPOS>ATOM
      1 N           1.7050    0.3450   -0.2520 n3        1 BTC     -0.882800
      2 CA          0.2760    0.3370    0.0280 c3        1 BTC      0.021500
      3 CB         -0.5280   -0.5340   -0.9210 c3        1 BTC      0.052700
      4 SG         -0.5800    0.1830   -2.5560 sh        1 BTC     -0.434900
      5 C          -0.0920   -0.0920    1.4970 c         1 BTC      0.890600
      6 O           0.8520   -0.2040    2.3280 o         1 BTC     -0.836800
      7 OXT        -1.3110   -0.2800    1.7620 o         1 BTC     -0.836800
      8 H           2.0280   -0.6050   -0.3060 hn        1 BTC      0.332300
      9 H2          2.1590    0.7520    0.5510 hn        1 BTC      0.332300
     10 HA         -0.0780    1.4040   -0.0800 h1        1 BTC      0.060700
     11 HB2        -0.0960   -1.5600   -0.9950 h1        1 BTC      0.067200
     12 HB3        -1.5660   -0.6140   -0.5100 h1        1 BTC      0.067200
     13 HG         -1.6860   -0.3920   -2.9860 hs        1 BTC      0.165800
@<TRIPOS>BOND
     1    1    2 1   
     2    1    8 1   
     3    1    9 1   
     4    2    3 1   
     5    2    5 1   
     6    2   10 1   
     7    3    4 1   
     8    3   11 1   
     9    3   12 1   
    10    4   13 1   
    11    5    6 1   
    12    5    7 1   
@<TRIPOS>SUBSTRUCTURE
     1 BTC         1 TEMP              0 ****  ****    0 ROOT
