@<TRIPOS>MOLECULE
BTD
   35    34     1     0     0
SMALL
bcc


@<TRIPOS>ATOM
      1 O5'         2.0220   -3.7820   -3.3200 oh        1 BTD     -0.320000
      2 C5'         0.6870   -3.3240   -3.0960 c3        1 BTD     -0.034000
      3 C4'         0.4740   -3.1070   -1.6410 c3        1 BTD     -0.014000
      4 O4'         1.1230   -2.0760   -1.2510 os        1 BTD     -0.289000
      5 C1'         0.2420   -1.4020   -0.1100 c3        1 BTD      0.168000
      6 N1          0.5730   -0.0430    0.0080 n         1 BTD     -0.274000
      7 C6          0.0210    0.7400    1.0850 c2        1 BTD      0.055000
      8 C2          1.5650    0.5440   -0.8870 c2        1 BTD      0.401000
      9 O2          2.1260   -0.1260   -1.6510 o         1 BTD     -0.376000
     10 N3          1.8770    1.9570   -0.7950 n         1 BTD     -0.361000
     11 C4          1.2490    2.7720    0.2220 c2        1 BTD      0.357000
     12 O4          1.4690    3.9740    0.2690 o         1 BTD     -0.328000
     13 C5          0.3040    2.1630    1.1630 c2        1 BTD     -0.161000
     14 C55        -0.4190    3.0310    2.2000 c2        1 BTD     -0.341000
     15 C44         0.0370    3.3100    3.5360 c1        1 BTD     -0.169000
     16 C33        -0.9970    4.3220    4.2200 c1        1 BTD     -0.118000
     17 C22        -2.0430    4.6160    3.2680 c1        1 BTD     -0.537000
     18 S11        -1.7380    3.8310    1.9680 ss        1 BTD      0.733000
     19 BR         -3.5480    5.7440    3.5730 br        1 BTD      0.120000
     20 C2'        -1.0540   -1.5400   -0.4920 c3        1 BTD     -0.216000
     21 C3'        -1.0740   -2.7650   -1.3510 c3        1 BTD      0.013000
     22 O3'        -1.6620   -3.7770   -0.7040 oh        1 BTD     -0.318000
     23 HO5'        2.0960   -4.1090   -4.1800 ho        1 BTD      0.208000
     24 H5'1        0.0850   -3.9590   -3.4080 h1        1 BTD      0.101500
     25 H5'2        0.5460   -2.4790   -3.5750 h1        1 BTD      0.101500
     26 H4'         0.7510   -3.8830   -1.1390 h1        1 BTD      0.143000
     27 H1'         0.3890   -1.8450    0.7120 h2        1 BTD      0.128000
     28 H6         -0.6160    0.3300    1.7180 h4        1 BTD      0.174000
     29 HN3         2.5230    2.3400   -1.3780 hn        1 BTD      0.271000
     30 H44         0.8430    2.9430    3.9570 DU        1 BTD      0.158000
     31 H33        -0.9300    4.6890    5.1530 DU        1 BTD      0.158000
     32 H2'1       -1.6560   -1.6700    0.3240 hc        1 BTD      0.121500
     33 H2'2       -1.3290   -0.7930   -0.9850 hc        1 BTD      0.121500
     34 H3'        -1.5730   -2.5700   -2.2480 h1        1 BTD      0.118000
     35 HO3'       -2.3650   -4.0540   -1.1630 ho        1 BTD      0.207000
@<TRIPOS>BOND
     1    1    2 1   
     2    1   23 1   
     3    2    3 1   
     4    2   24 1   
     5    2   25 1   
     6    3    4 1   
     7    3   21 1   
     8    3   26 1   
     9    4    5 1   
    10    5    6 1   
    11    5   20 1   
    12    5   27 1   
    13    6    7 1   
    14    6    8 1   
    15    7   13 1   
    16    7   28 1   
    17    8    9 1   
    18    8   10 1   
    19   10   11 1   
    20   10   29 1   
    21   11   12 1   
    22   11   13 1   
    23   13   14 1   
    24   14   15 1   
    25   14   18 1   
    26   15   16 1   
    27   16   17 1   
    28   17   18 1   
    29   20   21 1   
    30   20   32 1   
    31   20   33 1   
    32   21   22 1   
    33   21   34 1   
    34   22   35 1   
@<TRIPOS>SUBSTRUCTURE
     1 BTD         1 TEMP              0 ****  ****    0 ROOT
