@<TRIPOS>MOLECULE
BTD
   35    37     1     0     0
SMALL
bcc


@<TRIPOS>ATOM
      1 O5'         0.3290   -2.6400    5.1840 oh        1 BTD     -0.592800
      2 C5'         0.0920   -1.2760    5.4560 c3        1 BTD      0.116400
      3 C4'         1.2700   -0.4110    5.0130 c3        1 BTD      0.097100
      4 O4'         1.4400   -0.5460    3.5910 os        1 BTD     -0.432600
      5 C1'         1.1920    0.6930    2.9150 c3        1 BTD      0.317500
      6 N1         -0.0020    0.5920    2.0690 n         1 BTD     -0.378000
      7 C6          0.1500    0.1270    0.7710 cc        1 BTD      0.040600
      8 C2         -1.3130    0.7170    2.6050 c         1 BTD      0.810500
      9 O2         -1.5180    1.0490    3.7930 o         1 BTD     -0.652500
     10 N3         -2.4030    0.4880    1.7560 n         1 BTD     -0.584500
     11 C4         -2.2800    0.0670    0.4190 c         1 BTD      0.726700
     12 O4         -3.3230   -0.1280   -0.2250 o         1 BTD     -0.598500
     13 C5         -0.8990   -0.1070   -0.0780 cd        1 BTD     -0.159400
     14 C55        -0.6830   -0.5250   -1.4360 cd        1 BTD     -0.051900
     15 C44        -1.5860   -1.1880   -2.2520 cc        1 BTD     -0.125000
     16 C33        -1.0420   -1.4590   -3.5410 cc        1 BTD     -0.115000
     17 C22         0.2540   -0.9920   -3.6640 cd        1 BTD     -0.080000
     18 S11         0.7670   -0.2460   -2.2530 ss        1 BTD      0.027200
     19 BR          1.3270   -1.1330   -5.1410 br        1 BTD     -0.018100
     20 C2'         1.1660    1.8060    3.9780 c3        1 BTD     -0.137400
     21 C3'         1.0450    1.0800    5.3240 c3        1 BTD      0.124100
     22 O3'         2.0620    1.4810    6.2240 oh        1 BTD     -0.590800
     23 HO5'        0.5200   -2.7130    4.2390 ho        1 BTD      0.409000
     24 H5'1       -0.8510   -0.9320    4.9500 h1        1 BTD      0.062200
     25 H5'2       -0.0260   -1.2160    6.5710 h1        1 BTD      0.062200
     26 H4'         2.2300   -0.7860    5.4650 h1        1 BTD      0.103700
     27 H1'         2.0710    0.8230    2.2130 h2        1 BTD      0.087700
     28 H6          1.1970   -0.0320    0.4380 h4        1 BTD      0.171000
     29 HN3        -3.3140    0.6050    2.1480 hn        1 BTD      0.356500
     30 H44        -2.6050   -1.4640   -1.9570 ha        1 BTD      0.185000
     31 H33        -1.6030   -1.9770   -4.3250 ha        1 BTD      0.168000
     32 H2'1        2.1320    2.3710    3.9290 hc        1 BTD      0.082700
     33 H2'2        0.3240    2.5250    3.8330 hc        1 BTD      0.082700
     34 H3'         0.0280    1.2480    5.7730 h1        1 BTD      0.078700
     35 HO3'        1.8300    2.3650    6.5310 ho        1 BTD      0.408000
@<TRIPOS>BOND
     1    1    2 1   
     2    1   23 1   
     3    2    3 1   
     4    2   24 1   
     5    2   25 1   
     6    3    4 1   
     7    3   21 1   
     8    3   26 1   
     9    4    5 1   
    10    5    6 1   
    11    5   20 1   
    12    5   27 1   
    13    6    7 1   
    14    6    8 1   
    15    7   13 2   
    16    7   28 1   
    17    8    9 2   
    18    8   10 1   
    19   10   11 1   
    20   10   29 1   
    21   11   12 2   
    22   11   13 1   
    23   13   14 1   
    24   14   15 2   
    25   14   18 1   
    26   15   16 1   
    27   15   30 1   
    28   16   17 2   
    29   16   31 1   
    30   17   18 1   
    31   17   19 1   
    32   20   21 1   
    33   20   32 1   
    34   20   33 1   
    35   21   22 1   
    36   21   34 1   
    37   22   35 1   
@<TRIPOS>SUBSTRUCTURE
     1 BTD         1 TEMP              0 ****  ****    0 ROOT
