@<TRIPOS>MOLECULE
BTD
   35    37     1     0     0
SMALL
bcc


@<TRIPOS>ATOM
      1 O5'        -0.0630   -0.9460    0.7310 oh        1 BTD     -0.592800
      2 C5'         1.3290   -0.8340    0.5290 c3        1 BTD      0.116400
      3 C4'         1.9840   -0.0100    1.6370 c3        1 BTD      0.097100
      4 O4'         1.7810   -0.6750    2.8950 os        1 BTD     -0.432600
      5 C1'         3.0220   -1.1130    3.4620 c3        1 BTD      0.317500
      6 N1          3.0850   -2.5770    3.5040 n         1 BTD     -0.378000
      7 C6          2.5630   -3.2260    4.6130 cc        1 BTD      0.040600
      8 C2          3.4310   -3.3450    2.3580 c         1 BTD      0.810500
      9 O2          3.8270   -2.8160    1.2960 o         1 BTD     -0.652500
     10 N3          3.3510   -4.7410    2.4450 n         1 BTD     -0.584500
     11 C4          2.8760   -5.4300    3.5760 c         1 BTD      0.726700
     12 O4          2.8290   -6.6690    3.5210 o         1 BTD     -0.598500
     13 C5          2.4720   -4.5880    4.7210 cd        1 BTD     -0.159400
     14 C55         1.9840   -5.2120    5.9200 cd        1 BTD     -0.051900
     15 C44         1.4470   -6.4850    6.0330 cc        1 BTD     -0.125000
     16 C33         1.0550   -6.7840    7.3700 cc        1 BTD     -0.115000
     17 C22         1.3070   -5.7300    8.2300 cd        1 BTD     -0.080000
     18 S11         2.0060   -4.4390    7.4210 ss        1 BTD      0.027200
     19 BR          0.9550   -5.6820   10.0260 br        1 BTD     -0.018100
     20 C2'         4.1580   -0.4160    2.6900 c3        1 BTD     -0.137400
     21 C3'         3.5010    0.1480    1.4230 c3        1 BTD      0.124100
     22 O3'         3.7630    1.5320    1.2740 oh        1 BTD     -0.590800
     23 HO5'       -0.1930   -1.3200    1.6120 ho        1 BTD      0.409000
     24 H5'1        1.4410   -0.3050   -0.4550 h1        1 BTD      0.062200
     25 H5'2        1.8020   -1.8520    0.4750 h1        1 BTD      0.062200
     26 H4'         1.4760    0.9890    1.7410 h1        1 BTD      0.103700
     27 H1'         2.9900   -0.7630    4.5390 h2        1 BTD      0.087700
     28 H6          2.2310   -2.5660    5.4410 h4        1 BTD      0.171000
     29 HN3         3.6220   -5.2600    1.6360 hn        1 BTD      0.356500
     30 H44         1.3450   -7.1920    5.2020 ha        1 BTD      0.185000
     31 H33         0.6090   -7.7400    7.6580 ha        1 BTD      0.168000
     32 H2'1        4.9950   -1.1080    2.4330 hc        1 BTD      0.082700
     33 H2'2        4.5610    0.4160    3.3200 hc        1 BTD      0.082700
     34 H3'         3.8410   -0.4210    0.5150 h1        1 BTD      0.078700
     35 HO3'        4.6820    1.6120    0.9920 ho        1 BTD      0.408000
@<TRIPOS>BOND
     1    1    2 1   
     2    1   23 1   
     3    2    3 1   
     4    2   24 1   
     5    2   25 1   
     6    3    4 1   
     7    3   21 1   
     8    3   26 1   
     9    4    5 1   
    10    5    6 1   
    11    5   20 1   
    12    5   27 1   
    13    6    7 1   
    14    6    8 1   
    15    7   13 2   
    16    7   28 1   
    17    8    9 2   
    18    8   10 1   
    19   10   11 1   
    20   10   29 1   
    21   11   12 2   
    22   11   13 1   
    23   13   14 1   
    24   14   15 2   
    25   14   18 1   
    26   15   16 1   
    27   15   30 1   
    28   16   17 2   
    29   16   31 1   
    30   17   18 1   
    31   17   19 1   
    32   20   21 1   
    33   20   32 1   
    34   20   33 1   
    35   21   22 1   
    36   21   34 1   
    37   22   35 1   
@<TRIPOS>SUBSTRUCTURE
     1 BTD         1 TEMP              0 ****  ****    0 ROOT
