@<TRIPOS>MOLECULE
BTD
   35    37     1     0     0
SMALL
bcc


@<TRIPOS>ATOM
      1 O5'        -0.0690   -0.9540    0.7310 oh        1 BTD     -0.592800
      2 C5'         1.3230   -0.8190    0.5410 c3        1 BTD      0.116400
      3 C4'         1.9570    0.0020    1.6620 c3        1 BTD      0.097100
      4 O4'         1.7540   -0.6790    2.9120 os        1 BTD     -0.432600
      5 C1'         2.9980   -1.1050    3.4830 c3        1 BTD      0.317500
      6 N1          3.0830   -2.5680    3.5100 n         1 BTD     -0.378000
      7 C6          2.5610   -3.2360    4.6090 cc        1 BTD      0.040600
      8 C2          3.4480   -3.3200    2.3590 c         1 BTD      0.810500
      9 O2          3.8440   -2.7730    1.3060 o         1 BTD     -0.652500
     10 N3          3.3880   -4.7170    2.4310 ns        1 BTD     -0.584500
     11 C4          2.9150   -5.4250    3.5500 c         1 BTD      0.726700
     12 O4          2.8860   -6.6640    3.4820 o         1 BTD     -0.598500
     13 C5          2.4900   -4.6010    4.7020 cd        1 BTD     -0.159400
     14 C55         2.0020   -5.2450    5.8900 cd        1 BTD     -0.051900
     15 C44         1.4830   -6.5270    5.9850 cc        1 BTD     -0.125000
     16 C33         1.0860   -6.8450    7.3160 cc        1 BTD     -0.115000
     17 C22         1.3170   -5.7980    8.1900 cd        1 BTD     -0.080000
     18 S11         2.0020   -4.4880    7.3990 ss        1 BTD      0.027200
     19 Br          0.9510   -5.7740    9.9830 br        1 BTD     -0.018100
     20 C2'         4.1290   -0.3830    2.7270 c3        1 BTD     -0.137400
     21 C3'         3.4730    0.1850    1.4620 c3        1 BTD      0.124100
     22 O3'         3.7160    1.5740    1.3290 oh        1 BTD     -0.590800
     23 HO5'       -0.2000   -1.3400    1.6070 ho        1 BTD      0.409000
     24 H5'1        1.8110   -1.8300    0.4790 h1        1 BTD      0.062200
     25 H5'2        1.4340   -0.2790   -0.4360 h1        1 BTD      0.062200
     26 H4'         1.4340    0.9920    1.7730 h1        1 BTD      0.103700
     27 H1'         2.9530   -0.7670    4.5640 h2        1 BTD      0.087700
     28 H6          2.2140   -2.5910    5.4410 h4        1 BTD      0.171000
     29 HN3         3.6730   -5.2240    1.6180 hn        1 BTD      0.356500
     30 H44         1.3980   -7.2260    5.1460 ha        1 BTD      0.185000
     31 H33         0.6520   -7.8110    7.5910 ha        1 BTD      0.168000
     32 H2'1        4.5150    0.4480    3.3690 hc        1 BTD      0.082700
     33 H2'2        4.9780   -1.0600    2.4690 hc        1 BTD      0.082700
     34 H3'         3.8280   -0.3700    0.5500 h1        1 BTD      0.078700
     35 HO3'        4.6360    1.6710    1.0550 ho        1 BTD      0.408000
@<TRIPOS>BOND
     1    1    2 1   
     2    1   23 1   
     3    2    3 1   
     4    2   24 1   
     5    2   25 1   
     6    3    4 1   
     7    3   21 1   
     8    3   26 1   
     9    4    5 1   
    10    5    6 1   
    11    5   20 1   
    12    5   27 1   
    13    6    7 1   
    14    6    8 1   
    15    7   13 2   
    16    7   28 1   
    17    8    9 2   
    18    8   10 1   
    19   10   11 1   
    20   10   29 1   
    21   11   12 2   
    22   11   13 1   
    23   13   14 1   
    24   14   15 2   
    25   14   18 1   
    26   15   16 1   
    27   15   30 1   
    28   16   17 2   
    29   16   31 1   
    30   17   18 1   
    31   17   19 1   
    32   20   21 1   
    33   20   32 1   
    34   20   33 1   
    35   21   22 1   
    36   21   34 1   
    37   22   35 1   
@<TRIPOS>SUBSTRUCTURE
     1 BTD         1 TEMP              0 ****  ****    0 ROOT
