@<TRIPOS>MOLECULE
BTD
   35    37     1     0     0
SMALL
bcc


@<TRIPOS>ATOM
      1 O5'        -0.0630   -0.9010    0.7600 oh        1 BTD     -0.592800
      2 C5'         1.3290   -0.8050    0.5470 c3        1 BTD      0.116400
      3 C4'         2.0020    0.0050    1.6540 c3        1 BTD      0.097100
      4 O4'         1.8010   -0.6640    2.9100 os        1 BTD     -0.432600
      5 C1'         3.0410   -1.1200    3.4650 c3        1 BTD      0.317500
      6 N1          3.0870   -2.5850    3.4990 n         1 BTD     -0.378000
      7 C6          2.5660   -3.2330    4.6100 cc        1 BTD      0.040600
      8 C2          3.4140   -3.3520    2.3470 c         1 BTD      0.810500
      9 O2          3.8070   -2.8220    1.2840 o         1 BTD     -0.652500
     10 N3          3.3170   -4.7470    2.4280 n         1 BTD     -0.584500
     11 C4          2.8430   -5.4360    3.5590 c         1 BTD      0.726700
     12 O4          2.7800   -6.6730    3.4980 o         1 BTD     -0.598500
     13 C5          2.4590   -4.5950    4.7120 cd        1 BTD     -0.159400
     14 C55         1.9740   -5.2190    5.9120 cd        1 BTD     -0.051900
     15 C44         1.4220   -6.4850    6.0230 cc        1 BTD     -0.125000
     16 C33         1.0390   -6.7860    7.3620 cc        1 BTD     -0.115000
     17 C22         1.3120   -5.7400    8.2260 cd        1 BTD     -0.080000
     18 S11         2.0200   -4.4540    7.4170 ss        1 BTD      0.027200
     19 BR          0.9770   -5.6970   10.0250 br        1 BTD     -0.018100
     20 C2'         4.1790   -0.4330    2.6870 c3        1 BTD     -0.137400
     21 C3'         3.5190    0.1450    1.4290 c3        1 BTD      0.124100
     22 O3'         3.7970    1.5270    1.2840 oh        1 BTD     -0.590800
     23 HO5'       -0.1910   -1.2790    1.6400 ho        1 BTD      0.409000
     24 H5'1        1.4380   -0.2720   -0.4350 h1        1 BTD      0.062200
     25 H5'2        1.7880   -1.8280    0.4840 h1        1 BTD      0.062200
     26 H4'         1.5080    1.0090    1.7680 h1        1 BTD      0.103700
     27 H1'         3.0220   -0.7750    4.5440 h2        1 BTD      0.087700
     28 H6          2.2500   -2.5740    5.4440 h4        1 BTD      0.171000
     29 HN3         3.5750   -5.2650    1.6130 hn        1 BTD      0.356500
     30 H44         1.3040   -7.1860    5.1900 ha        1 BTD      0.185000
     31 H33         0.5830   -7.7370    7.6490 ha        1 BTD      0.168000
     32 H2'1        5.0060   -1.1350    2.4200 hc        1 BTD      0.082700
     33 H2'2        4.5980    0.3910    3.3180 hc        1 BTD      0.082700
     34 H3'         3.8440   -0.4230    0.5150 h1        1 BTD      0.078700
     35 HO3'        4.7150    1.5970    0.9950 ho        1 BTD      0.408000
@<TRIPOS>BOND
     1    1    2 1   
     2    1   23 1   
     3    2    3 1   
     4    2   24 1   
     5    2   25 1   
     6    3    4 1   
     7    3   21 1   
     8    3   26 1   
     9    4    5 1   
    10    5    6 1   
    11    5   20 1   
    12    5   27 1   
    13    6    7 1   
    14    6    8 1   
    15    7   13 2   
    16    7   28 1   
    17    8    9 2   
    18    8   10 1   
    19   10   11 1   
    20   10   29 1   
    21   11   12 2   
    22   11   13 1   
    23   13   14 1   
    24   14   15 2   
    25   14   18 1   
    26   15   16 1   
    27   15   30 1   
    28   16   17 2   
    29   16   31 1   
    30   17   18 1   
    31   17   19 1   
    32   20   21 1   
    33   20   32 1   
    34   20   33 1   
    35   21   22 1   
    36   21   34 1   
    37   22   35 1   
@<TRIPOS>SUBSTRUCTURE
     1 BTD         1 TEMP              0 ****  ****    0 ROOT
