@<TRIPOS>MOLECULE
BTE
   15    16     1     0     0
SMALL
bcc


@<TRIPOS>ATOM
      1 N10        -1.8100    2.1660    0.1590 nh        1 BTE     -0.828200
      2 C1         -1.4580    0.8320    0.0390 ca        1 BTE      0.213600
      3 C6         -2.3910   -0.1910    0.0120 ca        1 BTE     -0.239000
      4 C5         -2.0130   -1.5600   -0.0030 ca        1 BTE     -0.063000
      5 C4         -0.7130   -1.9700   -0.0060 ca        1 BTE     -0.146000
      6 C3          0.3240   -0.9840    0.0010 ca        1 BTE     -0.037000
      7 N9          1.6500   -1.1650   -0.0130 nc        1 BTE     -0.284500
      8 S8          2.3440    0.3190   -0.0110 ss        1 BTE      0.518000
      9 N7          1.0160    1.2690    0.0070 nc        1 BTE     -0.284500
     10 C2         -0.0500    0.4620    0.0170 ca        1 BTE     -0.109000
     11 H1         -1.1180    2.8390   -0.0740 hn        1 BTE      0.414800
     12 H2         -2.7370    2.3960   -0.1170 hn        1 BTE      0.414800
     13 H3         -3.4670    0.0410    0.0150 ha        1 BTE      0.139000
     14 H4         -2.8230   -2.3080   -0.0120 ha        1 BTE      0.136000
     15 H5         -0.4320   -3.0320   -0.0150 ha        1 BTE      0.154000
@<TRIPOS>BOND
     1    1    2 1   
     2    1   11 1   
     3    1   12 1   
     4    2    3 ar  
     5    2   10 ar  
     6    3    4 ar  
     7    3   13 1   
     8    4    5 ar  
     9    4   14 1   
    10    5    6 ar  
    11    5   15 1   
    12    6    7 2   
    13    6   10 ar  
    14    7    8 1   
    15    8    9 1   
    16    9   10 2   
@<TRIPOS>SUBSTRUCTURE
     1 BTE         1 TEMP              0 ****  ****    0 ROOT
