@<TRIPOS>MOLECULE
BTE
   15    16     1     0     0
SMALL
bcc


@<TRIPOS>ATOM
      1 N10        -0.0340   -0.1060    0.0330 nv        1 BTE     -0.828200
      2 C1          1.3480   -0.0060    0.0360 ca        1 BTE      0.213600
      3 C6          2.0900    0.0830    1.2020 ca        1 BTE     -0.239000
      4 C5          3.5110    0.0760    1.1960 ca        1 BTE     -0.063000
      5 C4          4.2470   -0.0040    0.0520 ca        1 BTE     -0.146000
      6 C3          3.5670   -0.0800   -1.2060 ca        1 BTE     -0.037000
      7 N9          4.0900   -0.1510   -2.4350 nc        1 BTE     -0.284500
      8 S8          2.8400   -0.2000   -3.4930 ss        1 BTE      0.518000
      9 N7          1.5750   -0.1350   -2.4630 nc        1 BTE     -0.284500
     10 C2          2.0740   -0.0740   -1.2240 ca        1 BTE     -0.109000
     11 H1         -0.4990    0.0810   -0.8250 hn        1 BTE      0.414800
     12 H2         -0.4940    0.2290    0.8480 hn        1 BTE      0.414800
     13 H3          1.5840    0.1480    2.1770 ha        1 BTE      0.139000
     14 H4          4.0200    0.1380    2.1720 ha        1 BTE      0.136000
     15 H5          5.3460   -0.0110    0.0590 ha        1 BTE      0.154000
@<TRIPOS>BOND
     1    1    2 1   
     2    1   11 1   
     3    1   12 1   
     4    2    3 ar  
     5    2   10 ar  
     6    3    4 ar  
     7    3   13 1   
     8    4    5 ar  
     9    4   14 1   
    10    5    6 ar  
    11    5   15 1   
    12    6    7 2   
    13    6   10 ar  
    14    7    8 1   
    15    8    9 1   
    16    9   10 2   
@<TRIPOS>SUBSTRUCTURE
     1 BTE         1 TEMP              0 ****  ****    0 ROOT
