@<TRIPOS>MOLECULE
BTE
   15    16     1     0     0
SMALL
bcc


@<TRIPOS>ATOM
      1 N10        -0.0300   -0.1010    0.0660 nh        1 BTE     -0.828200
      2 C1          1.3510   -0.0000    0.0490 ca        1 BTE      0.213600
      3 C6          2.1090    0.1150    1.2030 ca        1 BTE     -0.239000
      4 C5          3.5290    0.1090    1.1790 ca        1 BTE     -0.063000
      5 C4          4.2510    0.0040    0.0280 ca        1 BTE     -0.146000
      6 C3          3.5550   -0.1000   -1.2180 ca        1 BTE     -0.037000
      7 N9          4.0620   -0.1980   -2.4530 nc        1 BTE     -0.284500
      8 S8          2.7990   -0.2710   -3.4930 ss        1 BTE      0.518000
      9 N7          1.5470   -0.1830   -2.4490 nc        1 BTE     -0.284500
     10 C2          2.0620   -0.0950   -1.2180 ca        1 BTE     -0.109000
     11 H1         -0.4800    0.2520    0.8790 hn        1 BTE      0.414800
     12 H2         -0.5060    0.0660   -0.7900 hn        1 BTE      0.414800
     13 H3          1.6150    0.2010    2.1830 ha        1 BTE      0.139000
     14 H4          4.0510    0.1930    2.1470 ha        1 BTE      0.136000
     15 H5          5.3500   -0.0020    0.0220 ha        1 BTE      0.154000
@<TRIPOS>BOND
     1    1    2 1   
     2    1   11 1   
     3    1   12 1   
     4    2    3 ar  
     5    2   10 ar  
     6    3    4 ar  
     7    3   13 1   
     8    4    5 ar  
     9    4   14 1   
    10    5    6 ar  
    11    5   15 1   
    12    6    7 2   
    13    6   10 ar  
    14    7    8 1   
    15    8    9 1   
    16    9   10 2   
@<TRIPOS>SUBSTRUCTURE
     1 BTE         1 TEMP              0 ****  ****    0 ROOT
