@<TRIPOS>MOLECULE
BTE
   16    17     1     0     0
SMALL
bcc


@<TRIPOS>ATOM
      1 N10        -0.0600    0.0400   -0.0010 n4        1 BTE     -0.689000
      2 C1          1.3990    0.0290    0.0500 ca        1 BTE     -0.056400
      3 C6          2.1040    0.0790    1.2340 ca        1 BTE     -0.022000
      4 C5          3.5250    0.0650    1.2310 ca        1 BTE     -0.150000
      5 C4          4.2570    0.0040    0.0750 ca        1 BTE      0.015000
      6 C3          3.5790   -0.0500   -1.1810 ca        1 BTE     -0.073000
      7 N9          4.0850   -0.1140   -2.4260 nc        1 BTE     -0.269500
      8 S8          2.8510   -0.1520   -3.4680 ss        1 BTE      0.763000
      9 N7          1.5910   -0.0920   -2.4460 nc        1 BTE     -0.369500
     10 C2          2.0950   -0.0370   -1.2010 ca        1 BTE     -0.089000
     11 H1         -0.3730    0.8530   -0.5490 hn        1 BTE      0.468467
     12 H2         -0.3880   -0.8150   -0.4690 hn        1 BTE      0.468467
     13 H3          1.5920    0.1300    2.2120 ha        1 BTE      0.164000
     14 H4          4.0380    0.1070    2.2080 ha        1 BTE      0.181000
     15 H5          5.3620   -0.0060    0.0860 ha        1 BTE      0.193000
     16 H103       -0.4540    0.0890    0.9430 hn        1 BTE      0.468467
@<TRIPOS>BOND
     1    1    2 1   
     2    1   11 1   
     3    1   12 1   
     4    1   16 1   
     5    2    3 ar  
     6    2   10 ar  
     7    3    4 ar  
     8    3   13 1   
     9    4    5 ar  
    10    4   14 1   
    11    5    6 ar  
    12    5   15 1   
    13    6    7 2   
    14    6   10 ar  
    15    7    8 1   
    16    8    9 1   
    17    9   10 2   
@<TRIPOS>SUBSTRUCTURE
     1 BTE         1 TEMP              0 ****  ****    0 ROOT
