@<TRIPOS>MOLECULE
BTE
   15    13     1     0     0
SMALL
bcc


@<TRIPOS>ATOM
      1 N10        -2.3820    0.0000    0.2740 n3        1 BTE     -0.337000
      2 C1         -0.9630    0.0000    0.2740 c2        1 BTE      0.132000
      3 C6         -0.2630    0.0000    1.5030 c1        1 BTE     -0.239000
      4 C5          1.1810    0.0000    1.5140 c1        1 BTE     -0.104500
      5 C4          1.9000    0.0000    0.2960 c1        1 BTE     -0.104500
      6 C3          1.2230    0.0000   -0.9040 c1        1 BTE     -0.037000
      7 N9          1.6750    0.0000   -2.2430 n1        1 BTE     -0.316000
      8 S8          0.4940    0.0000   -3.1200 ss        1 BTE      0.581000
      9 N7         -0.7010    0.0000   -2.2600 n2        1 BTE     -0.316000
     10 C2         -0.2680    0.0000   -0.9150 c2        1 BTE     -0.109000
     11 H1         -2.8380   -0.7900    0.2830 hn        1 BTE      0.210000
     12 H2         -2.8380    0.7900    0.2840 hn        1 BTE      0.210000
     13 H3         -0.7560    0.0000    2.3460 ha        1 BTE      0.139000
     14 H4          1.6620    0.0000    2.3640 ha        1 BTE      0.145000
     15 H5          2.8760    0.0000    0.3050 ha        1 BTE      0.145000
@<TRIPOS>BOND
     1    1    2 1   
     2    1   11 1   
     3    1   12 1   
     4    2    3 1   
     5    2   10 1   
     6    3   13 1   
     7    4    5 1   
     8    4   14 1   
     9    5   15 1   
    10    6   10 1   
    11    7    8 1   
    12    8    9 1   
    13    9   10 1   
@<TRIPOS>SUBSTRUCTURE
     1 BTE         1 TEMP              0 ****  ****    0 ROOT
