@<TRIPOS>MOLECULE
BTH
   73    76     1     0     0
SMALL
bcc


@<TRIPOS>ATOM
      1 O40         1.7480   -0.9750   -1.4920 o         1 BTH     -0.660100
      2 C25         2.3800    0.0700   -1.2070 c         1 BTH      0.672100
      3 N4          3.1060    0.1390   -0.0380 ns        1 BTH     -0.558900
      4 C33         3.0700   -0.9280    0.9320 c3        1 BTH     -0.006300
      5 C34         3.1010   -0.4270    2.3870 c         1 BTH      0.558100
      6 O39         3.7910   -1.0140    3.2200 o         1 BTH     -0.494100
      7 C31         2.2290    0.7350    2.7070 c3        1 BTH     -0.202100
      8 C35         4.2050   -1.9540    0.7470 c3        1 BTH     -0.184400
      9 C15         4.2970   -2.5090   -0.6330 c         1 BTH      0.667100
     10 O37         3.2180   -3.0490   -1.2700 oh        1 BTH     -0.634100
     11 O36         5.3120   -2.5790   -1.3420 o         1 BTH     -0.574000
     12 C24         2.4090    1.2530   -2.1760 c3        1 BTH     -0.038400
     13 C26         1.9390    2.4870   -1.5160 cc        1 BTH     -0.172400
     14 S41         2.9470    3.7120   -0.9430 ss        1 BTH      0.010200
     15 C27         0.6090    2.8090   -1.3130 cd        1 BTH     -0.121000
     16 C28         0.4600    4.0750   -0.6660 cd        1 BTH     -0.153000
     17 C14         1.6810    4.6590   -0.4110 cc        1 BTH     -0.138100
     18 C23         3.7910    1.4290   -2.7960 c3        1 BTH     -0.081400
     19 C22         4.4230    0.1460   -3.2960 c3        1 BTH     -0.096400
     20 C9          3.7330   -0.4510   -4.5070 c3        1 BTH     -0.105400
     21 C10         3.1920   -1.8540   -4.2630 c3        1 BTH      0.098800
     22 N3          4.2460   -2.8660   -3.9620 ny        1 BTH     -0.670800
     23 C17         4.8310   -3.5640   -5.1670 c         1 BTH      0.574700
     24 O38         4.3920   -3.2150   -6.2610 o         1 BTH     -0.469100
     25 C30         5.8360   -4.5800   -4.9030 ca        1 BTH     -0.267600
     26 C32         6.4160   -4.8190   -3.6440 ca        1 BTH     -0.025000
     27 C19         7.3650   -5.8100   -3.4750 ca        1 BTH     -0.193500
     28 C13         6.2540   -5.3600   -6.0020 ca        1 BTH     -0.025000
     29 C12         7.1980   -6.3550   -5.8460 ca        1 BTH     -0.193500
     30 C11         7.7770   -6.6190   -4.5700 ca        1 BTH      0.264600
     31 N2          8.7620   -7.5850   -4.4770 nu        1 BTH     -0.727300
     32 C20         9.1330   -8.3060   -3.3230 ca        1 BTH      0.520900
     33 N1          8.3820   -8.3270   -2.2170 nb        1 BTH     -0.678000
     34 C16        10.3970   -9.0580   -3.3980 ca        1 BTH      0.290900
     35 N5         10.8480   -9.7700   -2.3930 nb        1 BTH     -0.587000
     36 C29        10.0890   -9.8020   -1.2320 ca        1 BTH      0.269300
     37 C21         8.8510   -9.0730   -1.1510 ca        1 BTH      0.315300
     38 C7         10.5270  -10.5600   -0.1060 ca        1 BTH     -0.142300
     39 C8          9.7680  -10.5900    1.0390 ca        1 BTH     -0.120000
     40 C18         8.5500   -9.8790    1.1190 ca        1 BTH     -0.103000
     41 C6          8.0930   -9.1350    0.0580 ca        1 BTH     -0.173300
     42 HN4         2.3900   -2.8670   -0.7920 ho        1 BTH      0.480000
     43 H33         2.0790   -1.4760    0.8190 h1        1 BTH      0.093700
     44 H311        2.0250    0.7740    3.8070 hc        1 BTH      0.080367
     45 H312        1.2580    0.6690    2.1590 hc        1 BTH      0.080367
     46 H313        2.7450    1.6840    2.4150 hc        1 BTH      0.080367
     47 H351        5.1920   -1.4870    1.0140 hc        1 BTH      0.116200
     48 H352        4.0320   -2.8000    1.4690 hc        1 BTH      0.116200
     49 H24         1.6780    0.9830   -2.9970 hc        1 BTH      0.099700
     50 H27        -0.2400    2.1870   -1.6090 ha        1 BTH      0.164000
     51 H28        -0.5120    4.5080   -0.4180 ha        1 BTH      0.171000
     52 H14         1.8320    5.6280    0.0680 h4        1 BTH      0.187000
     53 H231        3.7010    2.1590   -3.6450 hc        1 BTH      0.067700
     54 H232        4.4820    1.8870   -2.0350 hc        1 BTH      0.067700
     55 H221        4.4540   -0.5920   -2.4480 hc        1 BTH      0.053200
     56 H222        5.4910    0.3750   -3.5620 hc        1 BTH      0.053200
     57 H91         2.8510    0.1800   -4.8060 hc        1 BTH      0.081700
     58 H92         4.4340   -0.4620   -5.3840 hc        1 BTH      0.081700
     59 H101        2.6220   -2.1980   -5.1740 hx        1 BTH      0.120200
     60 H102        2.4900   -1.8390   -3.3720 hx        1 BTH      0.120200
     61 HN3         3.8500   -3.5770   -3.3280 hn        1 BTH      0.474300
     62 H32         6.1470   -4.2170   -2.7580 ha        1 BTH      0.158500
     63 H19         7.8060   -5.9510   -2.4750 ha        1 BTH      0.168000
     64 H13         5.8130   -5.1710   -6.9970 ha        1 BTH      0.158500
     65 H12         7.4970   -6.9480   -6.7260 ha        1 BTH      0.168000
     66 HN2         9.0550   -8.0080   -5.3340 hn        1 BTH      0.454800
     67 H16        11.0120   -9.0370   -4.3160 h4        1 BTH      0.042100
     68 H7         11.4770  -11.1160   -0.1710 ha        1 BTH      0.163000
     69 H8         10.1040  -11.1750    1.9100 ha        1 BTH      0.150000
     70 H18         7.9650   -9.9280    2.0510 ha        1 BTH      0.146000
     71 H6          7.1410   -8.5850    0.1250 ha        1 BTH      0.149000
     72 H42         3.5230    1.0010    0.2280 hn        1 BTH      0.333500
     73 H321        5.0160   -2.4120   -3.4430 hn        1 BTH      0.474300
@<TRIPOS>BOND
     1    1    2 2   
     2    2    3 1   
     3    2   12 1   
     4    3    4 1   
     5    3   72 1   
     6    4    5 1   
     7    4    8 1   
     8    4   43 1   
     9    5    6 2   
    10    5    7 1   
    11    7   44 1   
    12    7   45 1   
    13    7   46 1   
    14    8    9 1   
    15    8   47 1   
    16    8   48 1   
    17    9   10 1   
    18    9   11 2   
    19   10   42 1   
    20   12   13 1   
    21   12   18 1   
    22   12   49 1   
    23   13   14 1   
    24   13   15 2   
    25   14   17 1   
    26   15   16 1   
    27   15   50 1   
    28   16   17 2   
    29   16   51 1   
    30   17   52 1   
    31   18   19 1   
    32   18   53 1   
    33   18   54 1   
    34   19   20 1   
    35   19   55 1   
    36   19   56 1   
    37   20   21 1   
    38   20   57 1   
    39   20   58 1   
    40   21   22 1   
    41   21   59 1   
    42   21   60 1   
    43   22   23 1   
    44   22   61 1   
    45   22   73 1   
    46   23   24 2   
    47   23   25 1   
    48   25   26 ar  
    49   25   28 ar  
    50   26   27 ar  
    51   26   62 1   
    52   27   30 ar  
    53   27   63 1   
    54   28   29 ar  
    55   28   64 1   
    56   29   30 ar  
    57   29   65 1   
    58   30   31 1   
    59   31   32 1   
    60   31   66 1   
    61   32   33 ar  
    62   32   34 ar  
    63   33   37 ar  
    64   34   35 ar  
    65   34   67 1   
    66   35   36 ar  
    67   36   37 ar  
    68   36   38 ar  
    69   37   41 ar  
    70   38   39 ar  
    71   38   68 1   
    72   39   40 ar  
    73   39   69 1   
    74   40   41 ar  
    75   40   70 1   
    76   41   71 1   
@<TRIPOS>SUBSTRUCTURE
     1 BTH         1 TEMP              0 ****  ****    0 ROOT
