@<TRIPOS>MOLECULE
BTH
   73    76     1     0     0
SMALL
bcc


@<TRIPOS>ATOM
      1 O40         1.7600   -0.7450   -1.7010 o         1 BTH     -0.668100
      2 C25         2.4450    0.2620   -1.4000 c         1 BTH      0.672100
      3 N4          3.1370    0.2950   -0.2100 n         1 BTH     -0.555900
      4 C33         2.9710   -0.7350    0.7870 c3        1 BTH     -0.004300
      5 C34         3.0470   -0.1770    2.2210 c         1 BTH      0.559100
      6 O39         3.7830    0.7710    2.4950 o         1 BTH     -0.493100
      7 C31         2.1710   -0.8680    3.2060 c3        1 BTH     -0.201100
      8 C35         4.0310   -1.8510    0.6900 c3        1 BTH     -0.186400
      9 C15         4.1740   -2.4170   -0.6830 c         1 BTH      0.668100
     10 O37         3.1050   -2.8910   -1.3830 oh        1 BTH     -0.632100
     11 O36         5.2250   -2.5510   -1.3270 o         1 BTH     -0.570000
     12 C24         2.5820    1.4330   -2.3740 c3        1 BTH     -0.036400
     13 C26         2.1190    2.6880   -1.7490 cc        1 BTH     -0.176400
     14 S41         3.1270    3.8350   -1.0340 ss        1 BTH      0.024200
     15 C27         0.7960    3.0900   -1.6900 cd        1 BTH     -0.120000
     16 C28         0.6510    4.3500   -1.0330 cd        1 BTH     -0.155000
     17 C14         1.8690    4.8510   -0.6270 cc        1 BTH     -0.137100
     18 C23         4.0070    1.5520   -2.9050 c3        1 BTH     -0.082400
     19 C22         4.6170    0.2440   -3.3650 c3        1 BTH     -0.095400
     20 C9          3.9690   -0.3360   -4.6070 c3        1 BTH     -0.105400
     21 C10         3.3340   -1.7010   -4.3770 c3        1 BTH      0.097800
     22 N3          4.3110   -2.7680   -4.0130 n4        1 BTH     -0.669800
     23 C17         4.9200   -3.5060   -5.1830 c         1 BTH      0.573700
     24 O38         4.5260   -3.1710   -6.2980 o         1 BTH     -0.468100
     25 C30         5.8950   -4.5370   -4.8680 ca        1 BTH     -0.266600
     26 C32         6.4010   -4.7900   -3.5810 ca        1 BTH     -0.025000
     27 C19         7.3270   -5.7950   -3.3660 ca        1 BTH     -0.193500
     28 C13         6.3600   -5.3190   -5.9460 ca        1 BTH     -0.025000
     29 C12         7.2820   -6.3270   -5.7450 ca        1 BTH     -0.193500
     30 C11         7.7880   -6.6020   -4.4410 ca        1 BTH      0.263600
     31 N2          8.7580   -7.5790   -4.3000 nh        1 BTH     -0.728300
     32 C20         9.0550   -8.3120   -3.1330 ca        1 BTH      0.520900
     33 N1          8.2400   -8.3360   -2.0720 nb        1 BTH     -0.679000
     34 C16        10.3150   -9.0740   -3.1400 ca        1 BTH      0.291900
     35 N5         10.7010   -9.7990   -2.1170 nb        1 BTH     -0.587000
     36 C29         9.8750   -9.8350   -1.0030 ca        1 BTH      0.269300
     37 C21         8.6400   -9.0970   -0.9880 ca        1 BTH      0.315300
     38 C7         10.2400  -10.6070    0.1390 ca        1 BTH     -0.142300
     39 C8          9.4140  -10.6420    1.2370 ca        1 BTH     -0.121000
     40 C18         8.1990   -9.9210    1.2520 ca        1 BTH     -0.103000
     41 C6          7.8110   -9.1640    0.1740 ca        1 BTH     -0.174300
     42 HN4         3.5970    1.1330    0.0730 hn        1 BTH      0.346500
     43 H33         1.9480   -1.2040    0.6480 h1        1 BTH      0.087700
     44 H311        2.4520   -0.5800    4.2500 hc        1 BTH      0.080367
     45 H312        2.2530   -1.9760    3.0980 hc        1 BTH      0.080367
     46 H313        1.1070   -0.5670    3.0290 hc        1 BTH      0.080367
     47 H351        3.7410   -2.6810    1.3900 hc        1 BTH      0.107700
     48 H352        5.0340   -1.4540    1.0130 hc        1 BTH      0.107700
     49 H24         1.8940    1.1850   -3.2380 hc        1 BTH      0.096700
     50 H27        -0.0500    2.5260   -2.0930 ha        1 BTH      0.162000
     51 H28        -0.3140    4.8400   -0.8850 ha        1 BTH      0.169000
     52 H14         2.0220    5.7970   -0.1070 h4        1 BTH      0.186000
     53 H231        3.9990    2.2830   -3.7580 hc        1 BTH      0.068700
     54 H232        4.6660    1.9840   -2.1030 hc        1 BTH      0.068700
     55 H221        4.5780   -0.4900   -2.5140 hc        1 BTH      0.052200
     56 H222        5.7050    0.4330   -3.5770 hc        1 BTH      0.052200
     57 H91         4.7210   -0.4020   -5.4390 hc        1 BTH      0.081700
     58 H92         3.1450    0.3390   -4.9710 hc        1 BTH      0.081700
     59 H101        2.7890   -2.0240   -5.3110 hx        1 BTH      0.120700
     60 H102        2.5910   -1.6340   -3.5220 hx        1 BTH      0.120700
     61 HN3         3.8410   -3.4520   -3.4000 hn        1 BTH      0.473800
     62 H32         6.0900   -4.1910   -2.7060 ha        1 BTH      0.158500
     63 H19         7.7090   -5.9460   -2.3440 ha        1 BTH      0.167500
     64 H13         5.9750   -5.1210   -6.9630 ha        1 BTH      0.158500
     65 H12         7.6210   -6.9200   -6.6100 ha        1 BTH      0.167500
     66 HN2         9.0940   -8.0000   -5.1420 hn        1 BTH      0.454800
     67 H16        10.9830   -9.0500   -4.0210 h4        1 BTH      0.043100
     68 H7         11.1880  -11.1700    0.1250 ha        1 BTH      0.163000
     69 H8          9.6930  -11.2380    2.1200 ha        1 BTH      0.150000
     70 H18         7.5590   -9.9760    2.1470 ha        1 BTH      0.145000
     71 H6          6.8610   -8.6070    0.1890 ha        1 BTH      0.149000
     72 H42         2.2610   -2.6400   -0.9660 ho        1 BTH      0.483000
     73 H321        5.0760   -2.3550   -3.4540 hn        1 BTH      0.473800
@<TRIPOS>BOND
     1    1    2 2   
     2    2    3 1   
     3    2   12 1   
     4    3    4 1   
     5    3   42 1   
     6    4    5 1   
     7    4    8 1   
     8    4   43 1   
     9    5    6 2   
    10    5    7 1   
    11    7   44 1   
    12    7   45 1   
    13    7   46 1   
    14    8    9 1   
    15    8   47 1   
    16    8   48 1   
    17    9   10 1   
    18    9   11 2   
    19   10   72 1   
    20   12   13 1   
    21   12   18 1   
    22   12   49 1   
    23   13   14 1   
    24   13   15 2   
    25   14   17 1   
    26   15   16 1   
    27   15   50 1   
    28   16   17 2   
    29   16   51 1   
    30   17   52 1   
    31   18   19 1   
    32   18   53 1   
    33   18   54 1   
    34   19   20 1   
    35   19   55 1   
    36   19   56 1   
    37   20   21 1   
    38   20   57 1   
    39   20   58 1   
    40   21   22 1   
    41   21   59 1   
    42   21   60 1   
    43   22   23 1   
    44   22   61 1   
    45   22   73 1   
    46   23   24 2   
    47   23   25 1   
    48   25   26 ar  
    49   25   28 ar  
    50   26   27 ar  
    51   26   62 1   
    52   27   30 ar  
    53   27   63 1   
    54   28   29 ar  
    55   28   64 1   
    56   29   30 ar  
    57   29   65 1   
    58   30   31 1   
    59   31   32 1   
    60   31   66 1   
    61   32   33 ar  
    62   32   34 ar  
    63   33   37 ar  
    64   34   35 ar  
    65   34   67 1   
    66   35   36 ar  
    67   36   37 ar  
    68   36   38 ar  
    69   37   41 ar  
    70   38   39 ar  
    71   38   68 1   
    72   39   40 ar  
    73   39   69 1   
    74   40   41 ar  
    75   40   70 1   
    76   41   71 1   
@<TRIPOS>SUBSTRUCTURE
     1 BTH         1 TEMP              0 ****  ****    0 ROOT
