@<TRIPOS>MOLECULE
BTH
   74    77     1     0     0
SMALL
bcc


@<TRIPOS>ATOM
      1 O40         2.6930   -0.9750   -1.4600 o         1 BTH     -0.745100
      2 C25         2.6950    0.2880   -1.4600 c         1 BTH      0.686100
      3 N4          3.1110    0.9630   -0.3480 n         1 BTH     -0.532900
      4 C33         3.4150    0.2850    0.8900 c3        1 BTH     -0.000300
      5 C34         3.4120    1.2540    2.0920 c         1 BTH      0.561100
      6 O39         3.7860    2.4180    1.9600 o         1 BTH     -0.481100
      7 C31         2.9240    0.6650    3.3670 c3        1 BTH     -0.202100
      8 C35         4.7850   -0.4210    0.8910 c3        1 BTH     -0.187400
      9 C15         4.9220   -1.4460   -0.1850 c         1 BTH      0.683100
     10 O37         4.0990   -2.5360   -0.2480 oh        1 BTH     -0.627100
     11 O36         5.7800   -1.4880   -1.0810 o         1 BTH     -0.591000
     12 C24         2.2900    1.0660   -2.7140 c3        1 BTH     -0.027400
     13 C26         1.4200    2.2110   -2.3820 cc        1 BTH     -0.200400
     14 S41         1.9620    3.7770   -2.0710 ss        1 BTH      0.028200
     15 C27         0.0380    2.1450   -2.3100 cd        1 BTH     -0.112000
     16 C28        -0.5380    3.4100   -1.9810 cd        1 BTH     -0.153000
     17 C14         0.4280    4.3790   -1.8210 cc        1 BTH     -0.124100
     18 C23         3.5250    1.5030   -3.4950 c3        1 BTH     -0.087400
     19 C22         4.5740    0.4310   -3.7070 c3        1 BTH     -0.096400
     20 C9          4.2200   -0.6150   -4.7440 c3        1 BTH     -0.107400
     21 C10         3.4720   -1.8270   -4.2100 c3        1 BTH      0.109800
     22 N3          4.2590   -2.6370   -3.2200 n4        1 BTH     -0.669800
     23 C17         4.4560   -4.0590   -3.6370 c         1 BTH      0.552700
     24 O38         3.5100   -4.6370   -4.1590 o         1 BTH     -0.403100
     25 C30         5.7870   -4.6620   -3.4020 ca        1 BTH     -0.145600
     26 C32         6.5850   -4.3290   -2.3030 ca        1 BTH     -0.054000
     27 C19         7.8110   -4.9670   -2.1120 ca        1 BTH     -0.098500
     28 C13         6.2090   -5.6460   -4.3100 ca        1 BTH     -0.054000
     29 C12         7.4340   -6.2870   -4.1340 ca        1 BTH     -0.098500
     30 C11         8.2360   -5.9410   -3.0330 ca        1 BTH      0.011600
     31 N2          9.5350   -6.6020   -2.8450 n4        1 BTH     -0.615100
     32 C20         9.4040   -7.9820   -2.3140 ca        1 BTH      0.320900
     33 N1          8.9890   -8.9410   -3.1480 nb        1 BTH     -0.594000
     34 C16         9.7410   -8.2330   -0.9250 ca        1 BTH      0.321900
     35 N5          9.6590   -9.4490   -0.4200 nb        1 BTH     -0.561000
     36 C29         9.2480  -10.4750   -1.2480 ca        1 BTH      0.324300
     37 C21         8.9090  -10.2130   -2.6360 ca        1 BTH      0.296300
     38 C7          8.4940  -11.3000   -3.4680 ca        1 BTH     -0.154300
     39 C8          8.4230  -12.5680   -2.9470 ca        1 BTH     -0.085000
     40 C18         8.7520  -12.8230   -1.5930 ca        1 BTH     -0.066000
     41 C6          9.1540  -11.8100   -0.7560 ca        1 BTH     -0.157300
     42 HN4         3.2780   -2.3780    0.2470 ho        1 BTH      0.476000
     43 H33         2.6140   -0.4980    1.0680 h1        1 BTH      0.077700
     44 H311        3.2290    1.3040    4.2340 hc        1 BTH      0.084033
     45 H312        3.3280   -0.3660    3.5140 hc        1 BTH      0.084033
     46 H313        1.8060    0.6130    3.3450 hc        1 BTH      0.084033
     47 H351        5.6070    0.3380    0.7690 hc        1 BTH      0.112200
     48 H352        4.9220   -0.9290    1.8850 hc        1 BTH      0.112200
     49 H24         1.6940    0.3410   -3.3450 hc        1 BTH      0.086700
     50 H27        -0.5600    1.2470   -2.4840 ha        1 BTH      0.159000
     51 H28        -1.6150    3.5690   -1.8780 ha        1 BTH      0.176000
     52 H14         0.2400    5.4250   -1.5710 h4        1 BTH      0.194000
     53 H231        3.1820    1.8980   -4.4890 hc        1 BTH      0.076200
     54 H232        4.0120    2.3600   -2.9500 hc        1 BTH      0.076200
     55 H221        4.8260   -0.0480   -2.7230 hc        1 BTH      0.060700
     56 H222        5.5100    0.9520   -4.0580 hc        1 BTH      0.060700
     57 H91         3.5560   -0.1580   -5.5320 hc        1 BTH      0.082200
     58 H92         5.1570   -0.9490   -5.2650 hc        1 BTH      0.082200
     59 H101        2.5310   -1.4950   -3.6760 hx        1 BTH      0.119200
     60 H102        3.1740   -2.4950   -5.0690 hx        1 BTH      0.119200
     61 HN3         5.1720   -2.1890   -3.0420 hn        1 BTH      0.492300
     62 H32         6.2600   -3.5730   -1.5600 ha        1 BTH      0.195000
     63 H19         8.4220   -4.6910   -1.2360 ha        1 BTH      0.184000
     64 H13         5.5640   -5.9270   -5.1640 ha        1 BTH      0.195000
     65 H12         7.7450   -7.0650   -4.8560 ha        1 BTH      0.184000
     66 HN2        10.0230   -6.6320   -3.7560 hn        1 BTH      0.475300
     67 H16        10.0810   -7.4300   -0.2470 h4        1 BTH      0.052100
     68 H7          8.2420  -11.1080   -4.5240 ha        1 BTH      0.170000
     69 H8          8.1070  -13.4120   -3.5860 ha        1 BTH      0.175000
     70 H18         8.6830  -13.8590   -1.2140 ha        1 BTH      0.177000
     71 H6          9.4130  -12.0140    0.2980 ha        1 BTH      0.185000
     72 H42         3.0960    1.9640   -0.3330 hn        1 BTH      0.358500
     73 H321        3.7450   -2.6260   -2.3120 hn        1 BTH      0.492300
     74 H22        10.1050   -6.0640   -2.1790 hn        1 BTH      0.475300
@<TRIPOS>BOND
     1    1    2 2   
     2    2    3 1   
     3    2   12 1   
     4    3    4 1   
     5    3   72 1   
     6    4    5 1   
     7    4    8 1   
     8    4   43 1   
     9    5    6 2   
    10    5    7 1   
    11    7   44 1   
    12    7   45 1   
    13    7   46 1   
    14    8    9 1   
    15    8   47 1   
    16    8   48 1   
    17    9   10 1   
    18    9   11 2   
    19   10   42 1   
    20   12   13 1   
    21   12   18 1   
    22   12   49 1   
    23   13   14 1   
    24   13   15 2   
    25   14   17 1   
    26   15   16 1   
    27   15   50 1   
    28   16   17 2   
    29   16   51 1   
    30   17   52 1   
    31   18   19 1   
    32   18   53 1   
    33   18   54 1   
    34   19   20 1   
    35   19   55 1   
    36   19   56 1   
    37   20   21 1   
    38   20   57 1   
    39   20   58 1   
    40   21   22 1   
    41   21   59 1   
    42   21   60 1   
    43   22   23 1   
    44   22   61 1   
    45   22   73 1   
    46   23   24 2   
    47   23   25 1   
    48   25   26 ar  
    49   25   28 ar  
    50   26   27 ar  
    51   26   62 1   
    52   27   30 ar  
    53   27   63 1   
    54   28   29 ar  
    55   28   64 1   
    56   29   30 ar  
    57   29   65 1   
    58   30   31 1   
    59   31   32 1   
    60   31   66 1   
    61   31   74 1   
    62   32   33 ar  
    63   32   34 ar  
    64   33   37 ar  
    65   34   35 ar  
    66   34   67 1   
    67   35   36 ar  
    68   36   37 ar  
    69   36   41 ar  
    70   37   38 ar  
    71   38   39 ar  
    72   38   68 1   
    73   39   40 ar  
    74   39   69 1   
    75   40   41 ar  
    76   40   70 1   
    77   41   71 1   
@<TRIPOS>SUBSTRUCTURE
     1 BTH         1 TEMP              0 ****  ****    0 ROOT
