@<TRIPOS>MOLECULE
BTH
   71    64     1     0     0
SMALL
bcc


@<TRIPOS>ATOM
      1 O40        -3.1370    3.6240    3.5970 o         1 BTH     -0.391000
      2 C25        -3.7270    3.4190    2.5560 c1        1 BTH      0.300000
      3 N4         -5.0810    2.9910    2.5800 n2        1 BTH     -0.344000
      4 C33        -5.7820    2.9230    3.8130 c3        1 BTH     -0.019000
      5 C34        -6.5410    1.6170    3.8900 c2        1 BTH      0.237000
      6 O39        -7.1290    1.1980    2.9130 o         1 BTH     -0.354000
      7 C31        -6.5970    0.8500    5.1930 c3        1 BTH     -0.284000
      8 C35        -6.7550    4.0770    3.9050 c3        1 BTH     -0.240000
      9 C15        -6.9790    4.4330    5.3580 c2        1 BTH      0.330000
     10 O37        -7.3720    3.5530    6.1700 o         1 BTH     -0.572500
     11 O36        -6.7780    5.6110    5.7560 o         1 BTH     -0.572500
     12 C24        -3.0360    3.6660    1.2340 c3        1 BTH     -0.063000
     13 C26        -3.0430    5.1470    0.9320 c2        1 BTH     -0.370000
     14 S41        -2.0220    6.1910    1.4600 ss        1 BTH      0.580000
     15 C27        -3.9580    5.8320    0.0390 c1        1 BTH     -0.165000
     16 C28        -3.5380    7.3660   -0.0290 c1        1 BTH     -0.154000
     17 C14        -2.3820    7.5610    0.8250 c1        1 BTH     -0.452000
     18 C23        -1.6070    3.1730    1.3110 c3        1 BTH     -0.153000
     19 C22        -1.4450    1.9510    0.4270 c3        1 BTH     -0.157000
     20 C9         -0.2560    2.1480   -0.4940 c3        1 BTH     -0.178000
     21 C10        -0.3670    1.2010   -1.6730 c3        1 BTH     -0.031000
     22 N3          0.9330    0.7470   -2.0420 n         1 BTH     -0.374000
     23 C17         1.0790   -0.4410   -2.8110 c2        1 BTH      0.344000
     24 O38         0.3790   -0.6220   -3.7880 o         1 BTH     -0.369000
     25 C30         2.0970   -1.4870   -2.4040 c2        1 BTH     -0.140000
     26 C32         1.7090   -2.5640   -1.6220 c2        1 BTH     -0.078000
     27 C19         2.6530   -3.4800   -1.1840 c1        1 BTH     -0.170000
     28 C13         3.4300   -1.3260   -2.7480 c1        1 BTH     -0.050000
     29 C12         4.3760   -2.2420   -2.3100 c1        1 BTH     -0.188000
     30 C11         3.9870   -3.3190   -1.5280 c1        1 BTH      0.069000
     31 N2          4.9700   -4.1880   -0.9800 n3        1 BTH     -0.238000
     32 C20         5.7800   -4.9770   -1.8400 c2        1 BTH      0.070000
     33 N1          5.5050   -6.2400   -2.2100 n2        1 BTH     -0.166000
     34 C16         7.0270   -4.4250   -2.1220 c1        1 BTH     -0.098000
     35 N5          7.9560   -5.1540   -2.7650 n1        1 BTH     -0.086000
     36 C29         7.6780   -6.4360   -3.1410 c1        1 BTH     -0.069000
     37 C21         6.4470   -6.9810   -2.8630 c1        1 BTH     -0.007000
     38 C7          8.6330   -7.1830   -3.8580 c1        1 BTH     -0.082000
     39 C8          8.3310   -8.4700   -4.2840 c1        1 BTH     -0.126500
     40 C18         7.0850   -9.0230   -4.0020 c1        1 BTH     -0.126500
     41 C6          6.1420   -8.2870   -3.2950 c1        1 BTH     -0.104000
     42 HN4        -5.4960    2.7480    1.8050 hn        1 BTH      0.226000
     43 H33        -5.1460    2.9730    4.5540 h1        1 BTH      0.170000
     44 H311       -7.1400    1.3460    5.8410 hc        1 BTH      0.115333
     45 H312       -6.9980   -0.0310    5.0360 hc        1 BTH      0.115333
     46 H313       -5.6890    0.7370    5.5450 hc        1 BTH      0.115333
     47 H351       -7.6070    3.8190    3.4980 hc        1 BTH      0.082000
     48 H352       -6.3880    4.8510    3.4320 hc        1 BTH      0.082000
     49 H24        -3.5080    3.1870    0.5260 hc        1 BTH      0.118000
     50 H27        -4.7050    5.4220   -0.4380 DU        1 BTH      0.156667
     51 H28        -3.9830    8.0580   -0.5560 DU        1 BTH      0.156667
     52 H14        -1.7030    8.2520    0.9490 DU        1 BTH      0.156667
     53 H231       -1.3930    2.9360    2.2370 hc        1 BTH      0.103500
     54 H232       -1.0010    3.8780    1.0070 hc        1 BTH      0.103500
     55 H221       -1.2970    1.1610    0.9850 hc        1 BTH      0.084500
     56 H222       -2.2530    1.8270   -0.1070 hc        1 BTH      0.084500
     57 H91         0.5710    1.9630   -0.0040 hc        1 BTH      0.084500
     58 H92        -0.2430    3.0710   -0.8180 hc        1 BTH      0.084500
     59 H101       -0.7770    1.6690   -2.4300 h1        1 BTH      0.100000
     60 H102       -0.9230    0.4330   -1.4240 h1        1 BTH      0.100000
     61 HN3         1.6680    1.2370   -1.8170 hn        1 BTH      0.221000
     62 H32         0.7700   -2.6770   -1.3800 ha        1 BTH      0.141000
     63 H19         2.3800   -4.2380   -0.6340 ha        1 BTH      0.143000
     64 H13         3.7040   -0.5680   -3.2990 ha        1 BTH      0.160000
     65 H12         5.3100   -2.1450   -2.5780 ha        1 BTH      0.144000
     66 HN2         5.0930   -4.2250   -0.0770 hn        1 BTH      0.231000
     67 H16         7.4500   -3.7320   -1.5780 ha        1 BTH      0.184000
     68 H7          9.5070   -6.7960   -4.0570 ha        1 BTH      0.151000
     69 H8          8.9940   -8.9880   -4.7810 ha        1 BTH      0.136500
     70 H18         6.8730   -9.9280   -4.3030 ha        1 BTH      0.136500
     71 H6          5.2690   -8.6750   -3.0980 ha        1 BTH      0.151000
@<TRIPOS>BOND
     1    1    2 1   
     2    2   12 1   
     3    3    4 1   
     4    3   42 1   
     5    4    5 1   
     6    4    8 1   
     7    4   43 1   
     8    5    6 1   
     9    5    7 1   
    10    7   44 1   
    11    7   45 1   
    12    7   46 1   
    13    8    9 1   
    14    8   47 1   
    15    8   48 1   
    16    9   10 1   
    17    9   11 1   
    18   12   13 1   
    19   12   18 1   
    20   12   49 1   
    21   13   14 1   
    22   13   15 1   
    23   14   17 1   
    24   15   16 1   
    25   16   17 1   
    26   18   19 1   
    27   18   53 1   
    28   18   54 1   
    29   19   20 1   
    30   19   55 1   
    31   19   56 1   
    32   20   21 1   
    33   20   57 1   
    34   20   58 1   
    35   21   22 1   
    36   21   59 1   
    37   21   60 1   
    38   22   23 1   
    39   22   61 1   
    40   23   24 1   
    41   23   25 1   
    42   25   26 1   
    43   25   28 1   
    44   26   27 1   
    45   26   62 1   
    46   27   63 1   
    47   28   64 1   
    48   29   30 1   
    49   29   65 1   
    50   30   31 1   
    51   31   32 1   
    52   31   66 1   
    53   32   33 1   
    54   32   34 1   
    55   33   37 1   
    56   34   67 1   
    57   35   36 1   
    58   36   38 1   
    59   37   41 1   
    60   38   68 1   
    61   39   40 1   
    62   39   69 1   
    63   40   70 1   
    64   41   71 1   
@<TRIPOS>SUBSTRUCTURE
     1 BTH         1 TEMP              0 ****  ****    0 ROOT
