@<TRIPOS>MOLECULE
BTH
   71    74     1     0     0
SMALL
bcc


@<TRIPOS>ATOM
      1 O40        31.3280   61.4740    5.8890 o         1 BTH     -0.626100
      2 C25        32.1060   61.7580    6.8240 c         1 BTH      0.657100
      3 N4         33.3140   62.3980    6.6210 n         1 BTH     -0.530900
      4 C33        33.5580   63.1220    5.3880 c3        1 BTH      0.008700
      5 C34        34.4540   62.3410    4.4200 c         1 BTH      0.570100
      6 O39        34.2870   62.4380    3.1980 o         1 BTH     -0.558100
      7 C31        35.5480   61.5070    5.0030 c3        1 BTH     -0.194100
      8 C35        34.2280   64.4890    5.6060 c3        1 BTH     -0.196400
      9 C15        33.6420   65.2430    6.7960 c         1 BTH      0.894600
     10 O37        33.9350   64.8550    7.9740 o         1 BTH     -0.848800
     11 O36        32.8910   66.2400    6.6030 o         1 BTH     -0.848800
     12 C24        31.7610   61.3100    8.2520 c3        1 BTH     -0.063400
     13 C26        32.6480   60.2070    8.6790 cc        1 BTH     -0.097400
     14 S41        33.9410   60.3940    9.7410 ss        1 BTH      0.051200
     15 C27        32.5280   58.8890    8.2780 cd        1 BTH     -0.160000
     16 C28        33.5270   58.0590    8.8710 cd        1 BTH     -0.162000
     17 C14        34.3600   58.7830    9.6970 cc        1 BTH     -0.197100
     18 C23        31.7760   62.4650    9.2440 c3        1 BTH     -0.081400
     19 C22        31.0100   63.6730    8.7460 c3        1 BTH     -0.095400
     20 C9         30.6040   64.5730    9.8930 c3        1 BTH     -0.093400
     21 C10        30.4100   66.0240    9.4400 c3        1 BTH      0.095000
     22 N3         31.6190   66.7860    9.2860 n         1 BTH     -0.536900
     23 C17        32.1020   67.5610   10.3090 c         1 BTH      0.664700
     24 O38        31.4370   67.7520   11.3610 o         1 BTH     -0.676100
     25 C30        33.4140   68.2540   10.1310 ca        1 BTH     -0.137600
     26 C32        34.4300   67.7610    9.3100 ca        1 BTH     -0.071000
     27 C19        35.6450   68.4400    9.2080 ca        1 BTH     -0.161000
     28 C13        33.6230   69.4370   10.8540 ca        1 BTH     -0.071000
     29 C12        34.8220   70.1270   10.7520 ca        1 BTH     -0.161000
     30 C11        35.8560   69.6330    9.9230 ca        1 BTH      0.118600
     31 N2         37.1080   70.3000    9.9050 nh        1 BTH     -0.705300
     32 C20        37.7230   70.7200    8.7170 ca        1 BTH      0.536900
     33 N1         37.3070   70.3220    7.5030 nb        1 BTH     -0.675000
     34 C16        38.9190   71.5760    8.8500 ca        1 BTH      0.270900
     35 N5         39.6290   71.9720    7.8210 nb        1 BTH     -0.615000
     36 C29        39.2210   71.5550    6.5620 ca        1 BTH      0.238300
     37 C21        38.0560   70.7250    6.4160 ca        1 BTH      0.335300
     38 C7         39.9510   71.9440    5.4000 ca        1 BTH     -0.150300
     39 C8         39.5390   71.5270    4.1580 ca        1 BTH     -0.146000
     40 C18        38.3940   70.7120    4.0110 ca        1 BTH     -0.120000
     41 C6         37.6630   70.3150    5.1020 ca        1 BTH     -0.164300
     42 HN4        33.7520   62.8070    7.4300 hn        1 BTH      0.344500
     43 H33        32.5670   63.2880    4.8600 h1        1 BTH      0.096700
     44 H311       35.1060   60.5800    5.4460 hc        1 BTH      0.059367
     45 H312       36.2860   61.2150    4.2180 hc        1 BTH      0.059367
     46 H313       36.0710   62.0740    5.8110 hc        1 BTH      0.059367
     47 H351       34.0920   65.0930    4.6740 hc        1 BTH      0.051700
     48 H352       35.3240   64.3500    5.7900 hc        1 BTH      0.051700
     49 H24        30.7040   60.9110    8.1890 hc        1 BTH      0.084700
     50 H27        31.7690   58.5190    7.5850 ha        1 BTH      0.157000
     51 H28        33.6040   56.9880    8.6780 ha        1 BTH      0.142000
     52 H14        35.1970   58.3760   10.2610 h4        1 BTH      0.161000
     53 H231       32.8340   62.7780    9.4630 hc        1 BTH      0.051700
     54 H232       31.3270   62.1000   10.2060 hc        1 BTH      0.051700
     55 H221       30.0990   63.3480    8.1790 hc        1 BTH      0.065700
     56 H222       31.6670   64.2490    8.0320 hc        1 BTH      0.065700
     57 H91        31.3730   64.5310   10.7080 hc        1 BTH      0.037700
     58 H92        29.6370   64.2130   10.3310 hc        1 BTH      0.037700
     59 H101       29.7500   66.5430   10.1930 h1        1 BTH      0.051200
     60 H102       29.8850   66.0230    8.4410 h1        1 BTH      0.051200
     61 HN3        32.2180   66.5410    8.5100 hn        1 BTH      0.380500
     62 H32        34.2940   66.8210    8.7300 ha        1 BTH      0.182000
     63 H19        36.4280   68.0270    8.5550 ha        1 BTH      0.134500
     64 H13        32.8200   69.8090   11.5110 ha        1 BTH      0.182000
     65 H12        34.9580   71.0550   11.3260 ha        1 BTH      0.134500
     66 HN2        37.2170   70.9620   10.6470 hn        1 BTH      0.411800
     67 H16        39.2550   71.9070    9.8480 h4        1 BTH      0.025100
     68 H7         40.8430   72.5780    5.5160 ha        1 BTH      0.141000
     69 H8         40.1010   71.8250    3.2600 ha        1 BTH      0.129000
     70 H18        38.0930   70.3940    3.0010 ha        1 BTH      0.135000
     71 H6         36.7710   69.6770    4.9880 ha        1 BTH      0.166000
@<TRIPOS>BOND
     1    1    2 2   
     2    2    3 1   
     3    2   12 1   
     4    3    4 1   
     5    3   42 1   
     6    4    5 1   
     7    4    8 1   
     8    4   43 1   
     9    5    6 2   
    10    5    7 1   
    11    7   44 1   
    12    7   45 1   
    13    7   46 1   
    14    8    9 1   
    15    8   47 1   
    16    8   48 1   
    17    9   10 1   
    18    9   11 1   
    19   12   13 1   
    20   12   18 1   
    21   12   49 1   
    22   13   14 1   
    23   13   15 2   
    24   14   17 1   
    25   15   16 1   
    26   15   50 1   
    27   16   17 2   
    28   16   51 1   
    29   17   52 1   
    30   18   19 1   
    31   18   53 1   
    32   18   54 1   
    33   19   20 1   
    34   19   55 1   
    35   19   56 1   
    36   20   21 1   
    37   20   57 1   
    38   20   58 1   
    39   21   22 1   
    40   21   59 1   
    41   21   60 1   
    42   22   23 1   
    43   22   61 1   
    44   23   24 2   
    45   23   25 1   
    46   25   26 ar  
    47   25   28 ar  
    48   26   27 ar  
    49   26   62 1   
    50   27   30 ar  
    51   27   63 1   
    52   28   29 ar  
    53   28   64 1   
    54   29   30 ar  
    55   29   65 1   
    56   30   31 1   
    57   31   32 1   
    58   31   66 1   
    59   32   33 ar  
    60   32   34 ar  
    61   33   37 ar  
    62   34   35 ar  
    63   34   67 1   
    64   35   36 ar  
    65   36   37 ar  
    66   36   38 ar  
    67   37   41 ar  
    68   38   39 ar  
    69   38   68 1   
    70   39   40 ar  
    71   39   69 1   
    72   40   41 ar  
    73   40   70 1   
    74   41   71 1   
@<TRIPOS>SUBSTRUCTURE
     1 BTH         1 TEMP              0 ****  ****    0 ROOT
