@<TRIPOS>MOLECULE
BTI
   31    31     1     0     0
SMALL
bcc


@<TRIPOS>ATOM
      1 C11         2.8430   -2.7630   -3.3610 c1        1 BTI      0.183000
      2 O11         4.0010   -2.6190   -3.6570 o         1 BTI     -0.285000
      3 C10         2.4160   -2.6590   -1.9180 c2        1 BTI     -0.233000
      4 C9          1.5450   -1.4190   -1.7330 c3        1 BTI     -0.154000
      5 C8          1.0700   -1.3400   -0.2620 c3        1 BTI     -0.160000
      6 C7          0.2110   -0.0780   -0.0640 c3        1 BTI     -0.151000
      7 C2         -0.2440    0.0280    1.4880 c3        1 BTI     -0.232000
      8 S1         -1.4530   -0.7190    1.7010 ss        1 BTI      0.073000
      9 C6         -2.7240    0.3940    1.4730 c3        1 BTI     -0.305000
     10 C5         -2.2240    1.6540    2.0090 c3        1 BTI     -0.018000
     11 N3         -2.6680    2.7030    1.2640 n         1 BTI     -0.323000
     12 C3         -1.5190    3.2150    0.4850 c2        1 BTI      0.341000
     13 O3         -1.5370    4.1610   -0.2740 o         1 BTI     -0.339000
     14 N2         -0.2700    2.4170    0.9080 n         1 BTI     -0.327000
     15 C4         -0.6280    1.5920    1.8710 c3        1 BTI     -0.016000
     16 H11         2.1860   -3.0020   -4.0510 ha        1 BTI      0.088000
     17 H102        1.9030   -3.4590   -1.6700 ha        1 BTI      0.115000
     18 H103        3.1980   -2.5910   -1.3550 ha        1 BTI      0.115000
     19 H92         2.0630   -0.6230   -1.9520 hc        1 BTI      0.085000
     20 H93         0.7640   -1.4760   -2.3270 hc        1 BTI      0.085000
     21 H82         0.5430   -2.1250   -0.0520 hc        1 BTI      0.092000
     22 H83         1.8430   -1.3020    0.3260 hc        1 BTI      0.092000
     23 H72         0.7390    0.7220   -0.3080 hc        1 BTI      0.096000
     24 H73        -0.5760   -0.1320   -0.6290 hc        1 BTI      0.096000
     25 H2          0.4670   -0.3010    2.0750 h1        1 BTI      0.123000
     26 H62        -3.4750    0.1040    2.0690 h1        1 BTI      0.123000
     27 H63        -2.8250    0.5140    0.5120 h1        1 BTI      0.123000
     28 H5         -2.4890    1.7590    2.9560 h1        1 BTI      0.129000
     29 HN3        -3.5290    2.9690    1.1800 hn        1 BTI      0.227000
     30 HN2         0.5720    2.5290    0.5840 hn        1 BTI      0.230000
     31 H4         -0.2040    1.8490    2.7140 h1        1 BTI      0.128000
@<TRIPOS>BOND
     1    1    2 1   
     2    1   16 1   
     3    3    4 1   
     4    3   17 1   
     5    3   18 1   
     6    4    5 1   
     7    4   19 1   
     8    4   20 1   
     9    5    6 1   
    10    5   21 1   
    11    5   22 1   
    12    6    7 1   
    13    6   23 1   
    14    6   24 1   
    15    7    8 1   
    16    7   15 1   
    17    7   25 1   
    18    8    9 1   
    19    9   10 1   
    20    9   26 1   
    21    9   27 1   
    22   10   11 1   
    23   10   15 1   
    24   10   28 1   
    25   11   12 1   
    26   11   29 1   
    27   12   13 1   
    28   12   14 1   
    29   14   15 1   
    30   14   30 1   
    31   15   31 1   
@<TRIPOS>SUBSTRUCTURE
     1 BTI         1 TEMP              0 ****  ****    0 ROOT
