@<TRIPOS>MOLECULE
BTI
   31    32     1     0     0
SMALL
bcc


@<TRIPOS>ATOM
      1 C11         0.0880   -0.1010    0.1040 c         1 BTI      0.564900
      2 O11         1.2630   -0.4640    0.0390 o         1 BTI     -0.524100
      3 C10        -0.6520    0.0340    1.3990 c3        1 BTI     -0.204400
      4 C9         -1.7020    1.1200    1.3310 c3        1 BTI     -0.075400
      5 C8         -2.4600    1.2200    2.6380 c3        1 BTI     -0.081400
      6 C7         -3.5030    2.3200    2.5760 c3        1 BTI     -0.072400
      7 C2         -4.3070    2.3820    3.8530 c3        1 BTI     -0.010600
      8 S1         -5.3470    0.9370    3.9840 ss        1 BTI     -0.291200
      9 C6         -6.5820    1.7050    4.9840 c3        1 BTI     -0.044300
     10 C5         -6.5490    3.2100    4.7490 c3        1 BTI      0.058700
     11 N3         -7.6120    3.7550    3.9090 ns        1 BTI     -0.513900
     12 C3         -7.0380    4.2410    2.6950 c         1 BTI      0.750500
     13 O3         -7.6890    4.6370    1.7130 o         1 BTI     -0.614500
     14 N2         -5.6180    4.3200    2.8110 ns        1 BTI     -0.517900
     15 C4         -5.1940    3.6180    4.0150 c3        1 BTI      0.060700
     16 H11        -0.4980    0.1390   -0.8120 h4        1 BTI     -0.004800
     17 H102       -1.1370   -0.9550    1.6230 hc        1 BTI      0.075700
     18 H103        0.0710    0.2450    2.2320 hc        1 BTI      0.075700
     19 H92        -2.4200    0.9030    0.4950 hc        1 BTI      0.045700
     20 H93        -1.2140    2.1040    1.1030 hc        1 BTI      0.045700
     21 H82        -2.9630    0.2410    2.8610 hc        1 BTI      0.052700
     22 H83        -1.7420    1.4260    3.4750 hc        1 BTI      0.052700
     23 H72        -2.9890    3.3060    2.4120 hc        1 BTI      0.056700
     24 H73        -4.1790    2.1350    1.6980 hc        1 BTI      0.056700
     25 H2         -3.5960    2.3660    4.7230 h1        1 BTI      0.083700
     26 H62        -6.3840    1.4930    6.0630 h1        1 BTI      0.083700
     27 H63        -7.5680    1.2460    4.7300 h1        1 BTI      0.083700
     28 H5         -6.6020    3.7460    5.7390 h1        1 BTI      0.089700
     29 HN3        -8.4450    3.2210    3.8140 hn        1 BTI      0.313500
     30 HN2        -5.0990    4.1800    1.9740 hn        1 BTI      0.316500
     31 H4         -4.6480    4.3700    4.6540 h1        1 BTI      0.088700
@<TRIPOS>BOND
     1    1    2 2   
     2    1    3 1   
     3    1   16 1   
     4    3    4 1   
     5    3   17 1   
     6    3   18 1   
     7    4    5 1   
     8    4   19 1   
     9    4   20 1   
    10    5    6 1   
    11    5   21 1   
    12    5   22 1   
    13    6    7 1   
    14    6   23 1   
    15    6   24 1   
    16    7    8 1   
    17    7   15 1   
    18    7   25 1   
    19    8    9 1   
    20    9   10 1   
    21    9   26 1   
    22    9   27 1   
    23   10   11 1   
    24   10   15 1   
    25   10   28 1   
    26   11   12 1   
    27   11   29 1   
    28   12   13 2   
    29   12   14 1   
    30   14   15 1   
    31   14   30 1   
    32   15   31 1   
@<TRIPOS>SUBSTRUCTURE
     1 BTI         1 TEMP              0 ****  ****    0 ROOT
