@<TRIPOS>MOLECULE
BTI
   31    32     1     0     0
SMALL
bcc


@<TRIPOS>ATOM
      1 C11         0.0820   -0.1030    0.0960 c         1 BTI      0.564900
      2 O11         1.2560   -0.4690    0.0300 o         1 BTI     -0.524100
      3 C10        -0.6570    0.0300    1.3920 c3        1 BTI     -0.204400
      4 C9         -1.7060    1.1190    1.3270 c3        1 BTI     -0.075400
      5 C8         -2.4620    1.2170    2.6340 c3        1 BTI     -0.081400
      6 C7         -3.5030    2.3190    2.5760 c3        1 BTI     -0.072400
      7 C2         -4.3050    2.3800    3.8540 c3        1 BTI     -0.010600
      8 S1         -5.3490    0.9370    3.9830 ss        1 BTI     -0.291200
      9 C6         -6.5800    1.7070    4.9860 c3        1 BTI     -0.044300
     10 C5         -6.5450    3.2120    4.7540 c3        1 BTI      0.058700
     11 N3         -7.6070    3.7600    3.9160 n         1 BTI     -0.513900
     12 C3         -7.0340    4.2480    2.7030 c         1 BTI      0.750500
     13 O3         -7.6850    4.6460    1.7220 o         1 BTI     -0.614500
     14 N2         -5.6130    4.3230    2.8160 n         1 BTI     -0.517900
     15 C4         -5.1890    3.6180    4.0190 c3        1 BTI      0.060700
     16 H11        -0.5040    0.1410   -0.8190 h4        1 BTI     -0.004800
     17 H102       -1.1440   -0.9590    1.6130 hc        1 BTI      0.075700
     18 H103        0.0660    0.2370    2.2250 hc        1 BTI      0.075700
     19 H92        -1.2150    2.1020    1.1000 hc        1 BTI      0.045700
     20 H93        -2.4240    0.9040    0.4910 hc        1 BTI      0.045700
     21 H82        -2.9670    0.2380    2.8560 hc        1 BTI      0.052700
     22 H83        -1.7430    1.4200    3.4710 hc        1 BTI      0.052700
     23 H72        -4.1800    2.1370    1.6990 hc        1 BTI      0.056700
     24 H73        -2.9870    3.3040    2.4130 hc        1 BTI      0.056700
     25 H2         -3.5930    2.3620    4.7230 h1        1 BTI      0.083700
     26 H62        -7.5680    1.2500    4.7320 h1        1 BTI      0.083700
     27 H63        -6.3820    1.4920    6.0650 h1        1 BTI      0.083700
     28 H5         -6.5950    3.7460    5.7450 h1        1 BTI      0.089700
     29 HN3        -8.4420    3.2290    3.8220 hn        1 BTI      0.313500
     30 HN2        -5.0960    4.1840    1.9790 hn        1 BTI      0.316500
     31 H4         -4.6410    4.3680    4.6580 h1        1 BTI      0.088700
@<TRIPOS>BOND
     1    1    2 2   
     2    1    3 1   
     3    1   16 1   
     4    3    4 1   
     5    3   17 1   
     6    3   18 1   
     7    4    5 1   
     8    4   19 1   
     9    4   20 1   
    10    5    6 1   
    11    5   21 1   
    12    5   22 1   
    13    6    7 1   
    14    6   23 1   
    15    6   24 1   
    16    7    8 1   
    17    7   15 1   
    18    7   25 1   
    19    8    9 1   
    20    9   10 1   
    21    9   26 1   
    22    9   27 1   
    23   10   11 1   
    24   10   15 1   
    25   10   28 1   
    26   11   12 1   
    27   11   29 1   
    28   12   13 2   
    29   12   14 1   
    30   14   15 1   
    31   14   30 1   
    32   15   31 1   
@<TRIPOS>SUBSTRUCTURE
     1 BTI         1 TEMP              0 ****  ****    0 ROOT
