@<TRIPOS>MOLECULE
BTI
   31    32     1     0     0
SMALL
bcc


@<TRIPOS>ATOM
      1 C11         0.0930   -0.1070    0.1150 c         1 BTI      0.564900
      2 O11         1.2690   -0.4640    0.0520 o         1 BTI     -0.524100
      3 C10        -0.6450    0.0360    1.4110 c3        1 BTI     -0.204400
      4 C9         -1.7010    1.1160    1.3350 c3        1 BTI     -0.075400
      5 C8         -2.4570    1.2250    2.6420 c3        1 BTI     -0.081400
      6 C7         -3.5050    2.3200    2.5730 c3        1 BTI     -0.072400
      7 C2         -4.3070    2.3890    3.8500 c3        1 BTI     -0.010600
      8 S1         -5.3410    0.9410    3.9950 ss        1 BTI     -0.291200
      9 C6         -6.5770    1.7130    4.9910 c3        1 BTI     -0.044300
     10 C5         -6.5510    3.2160    4.7430 c3        1 BTI      0.058700
     11 N3         -7.6170    3.7500    3.9010 n         1 BTI     -0.513900
     12 C3         -7.0470    4.2280    2.6820 c         1 BTI      0.750500
     13 O3         -7.7010    4.6130    1.6980 o         1 BTI     -0.614500
     14 N2         -5.6270    4.3130    2.7940 n         1 BTI     -0.517900
     15 C4         -5.1980    3.6230    4.0030 c3        1 BTI      0.060700
     16 H11        -0.4980    0.1190   -0.8020 h4        1 BTI     -0.004800
     17 H102       -1.1250   -0.9540    1.6440 hc        1 BTI      0.075700
     18 H103        0.0770    0.2570    2.2400 hc        1 BTI      0.075700
     19 H92        -1.2170    2.1000    1.0970 hc        1 BTI      0.045700
     20 H93        -2.4190    0.8880    0.5020 hc        1 BTI      0.045700
     21 H82        -1.7390    1.4400    3.4760 hc        1 BTI      0.052700
     22 H83        -2.9550    0.2450    2.8750 hc        1 BTI      0.052700
     23 H72        -4.1810    2.1240    1.6980 hc        1 BTI      0.056700
     24 H73        -2.9950    3.3060    2.3990 hc        1 BTI      0.056700
     25 H2         -3.5940    2.3830    4.7200 h1        1 BTI      0.083700
     26 H62        -6.3770    1.5100    6.0710 h1        1 BTI      0.083700
     27 H63        -7.5620    1.2480    4.7420 h1        1 BTI      0.083700
     28 H5         -6.6040    3.7600    5.7290 h1        1 BTI      0.089700
     29 HN3        -8.4490    3.2120    3.8120 hn        1 BTI      0.313500
     30 HN2        -5.1090    4.1680    1.9580 hn        1 BTI      0.316500
     31 H4         -4.6540    4.3830    4.6350 h1        1 BTI      0.088700
@<TRIPOS>BOND
     1    1    2 2   
     2    1    3 1   
     3    1   16 1   
     4    3    4 1   
     5    3   17 1   
     6    3   18 1   
     7    4    5 1   
     8    4   19 1   
     9    4   20 1   
    10    5    6 1   
    11    5   21 1   
    12    5   22 1   
    13    6    7 1   
    14    6   23 1   
    15    6   24 1   
    16    7    8 1   
    17    7   15 1   
    18    7   25 1   
    19    8    9 1   
    20    9   10 1   
    21    9   26 1   
    22    9   27 1   
    23   10   11 1   
    24   10   15 1   
    25   10   28 1   
    26   11   12 1   
    27   11   29 1   
    28   12   13 2   
    29   12   14 1   
    30   14   15 1   
    31   14   30 1   
    32   15   31 1   
@<TRIPOS>SUBSTRUCTURE
     1 BTI         1 TEMP              0 ****  ****    0 ROOT
