@<TRIPOS>MOLECULE
BTI
   31    32     1     0     0
SMALL
bcc


@<TRIPOS>ATOM
      1 C11        -5.5000   -0.4290   -0.4890 c         1 BTI      0.564900
      2 O11        -6.6520   -0.1710   -0.1400 o         1 BTI     -0.524100
      3 C10        -4.3300    0.4410   -0.1440 c3        1 BTI     -0.204400
      4 C9         -3.0580   -0.3650   -0.0030 c3        1 BTI     -0.075400
      5 C8         -1.8830    0.5350    0.3160 c3        1 BTI     -0.081400
      6 C7         -0.6090   -0.2740    0.4740 c3        1 BTI     -0.072400
      7 C2          0.5790    0.6240    0.7270 c3        1 BTI     -0.010600
      8 S1          0.9550    1.5610   -0.7460 ss        1 BTI     -0.291200
      9 C6          2.6690    1.7700   -0.3820 c3        1 BTI     -0.044300
     10 C5          3.1250    0.6460    0.5400 c3        1 BTI      0.058700
     11 N3          3.9060   -0.4190   -0.0800 n         1 BTI     -0.513900
     12 C3          3.1450   -1.6270   -0.0520 c         1 BTI      0.750500
     13 O3          3.4690   -2.6810   -0.6250 o         1 BTI     -0.614500
     14 N2          2.0230   -1.4910    0.8190 n         1 BTI     -0.517900
     15 C4          1.8580   -0.0870    1.1730 c3        1 BTI      0.060700
     16 H11        -5.2650   -1.3310   -1.0990 h4        1 BTI     -0.004800
     17 H102       -4.2140    1.2010   -0.9640 hc        1 BTI      0.075700
     18 H103       -4.5400    1.0050    0.8030 hc        1 BTI      0.075700
     19 H92        -3.1820   -1.1250    0.8130 hc        1 BTI      0.045700
     20 H93        -2.8560   -0.9260   -0.9530 hc        1 BTI      0.045700
     21 H82        -1.7470    1.2880   -0.5070 hc        1 BTI      0.052700
     22 H83        -2.0890    1.1050    1.2600 hc        1 BTI      0.052700
     23 H72        -0.7300   -0.9850    1.3360 hc        1 BTI      0.056700
     24 H73        -0.4460   -0.8850   -0.4540 hc        1 BTI      0.056700
     25 H2          0.3060    1.3570    1.5340 h1        1 BTI      0.083700
     26 H62         3.2280    1.7940   -1.3490 h1        1 BTI      0.083700
     27 H63         2.8340    2.7540    0.1220 h1        1 BTI      0.083700
     28 H5          3.7520    1.0750    1.3730 h1        1 BTI      0.089700
     29 HN3         4.3690   -0.2150   -0.9360 hn        1 BTI      0.313500
     30 HN2         1.2130   -2.0160    0.5810 hn        1 BTI      0.316500
     31 H4          1.9290   -0.0260    2.2980 h1        1 BTI      0.088700
@<TRIPOS>BOND
     1    1    2 2   
     2    1    3 1   
     3    1   16 1   
     4    3    4 1   
     5    3   17 1   
     6    3   18 1   
     7    4    5 1   
     8    4   19 1   
     9    4   20 1   
    10    5    6 1   
    11    5   21 1   
    12    5   22 1   
    13    6    7 1   
    14    6   23 1   
    15    6   24 1   
    16    7    8 1   
    17    7   15 1   
    18    7   25 1   
    19    8    9 1   
    20    9   10 1   
    21    9   26 1   
    22    9   27 1   
    23   10   11 1   
    24   10   15 1   
    25   10   28 1   
    26   11   12 1   
    27   11   29 1   
    28   12   13 2   
    29   12   14 1   
    30   14   15 1   
    31   14   30 1   
    32   15   31 1   
@<TRIPOS>SUBSTRUCTURE
     1 BTI         1 TEMP              0 ****  ****    0 ROOT
