@<TRIPOS>MOLECULE
BTK
   34    33     1     0     0
SMALL
bcc


@<TRIPOS>ATOM
      1 C          -4.9740   -0.5390    0.4070 c         1 BTK      0.887600
      2 N          -3.9990    1.8030    0.2280 n3        1 BTK     -0.891800
      3 O          -5.9370   -0.0090    1.0320 o         1 BTK     -0.844300
      4 CA         -3.8330    0.3970   -0.1170 c3        1 BTK      0.018500
      5 CB         -2.4950   -0.1860    0.3410 c3        1 BTK     -0.064400
      6 CD         -0.0290   -0.2700   -0.0050 c3        1 BTK     -0.101400
      7 CE          1.1500    0.3400   -0.7630 c3        1 BTK      0.081000
      8 CG         -1.3150    0.4410   -0.3700 c3        1 BTK     -0.073400
      9 NZ          2.3880   -0.3770   -0.5840 n         1 BTK     -0.564900
     10 CAA         7.1650   -0.7740    0.6670 c3        1 BTK     -0.093100
     11 OAD         3.6860    1.4830   -0.2260 o         1 BTK     -0.619100
     12 CAF         5.9960    0.1270    0.3640 c3        1 BTK     -0.074400
     13 CAJ         4.7500   -0.6740    0.0560 c3        1 BTK     -0.153400
     14 CAN         3.5720    0.2390   -0.2460 c         1 BTK      0.650100
     15 OXT        -4.8770   -1.7720    0.1560 o         1 BTK     -0.844300
     16 H          -4.9740    2.0240    0.1080 hn        1 BTK      0.330800
     17 H2         -3.8070    1.9150    1.2090 hn        1 BTK      0.330800
     18 HA         -3.8730    0.3410   -1.2440 h1        1 BTK      0.040700
     19 HB2        -2.3780   -0.0590    1.4490 hc        1 BTK      0.046700
     20 HB3        -2.5300   -1.2890    0.1310 hc        1 BTK      0.046700
     21 HD2        -0.1270   -1.3610   -0.2500 hc        1 BTK      0.038200
     22 HD3         0.1440   -0.1910    1.1000 hc        1 BTK      0.038200
     23 HE2         0.9100    0.3450   -1.8660 h1        1 BTK      0.057700
     24 HE3         1.2940    1.4100   -0.4380 h1        1 BTK      0.057700
     25 HG2        -1.4740    0.3840   -1.4790 hc        1 BTK      0.040700
     26 HG3        -1.2370    1.5260   -0.1020 hc        1 BTK      0.040700
     27 HNZ         2.3200   -1.3610   -0.4800 hn        1 BTK      0.300500
     28 HAA         8.0730   -0.1640    0.8910 hc        1 BTK      0.029700
     29 HAAA        6.9480   -1.4210    1.5520 hc        1 BTK      0.029700
     30 HAAB        7.3920   -1.4360   -0.2030 hc        1 BTK      0.029700
     31 HAF         5.7940    0.8050    1.2350 hc        1 BTK      0.057700
     32 HAFA        6.2340    0.7900   -0.5100 hc        1 BTK      0.057700
     33 HAJ         4.9370   -1.3420   -0.8260 hc        1 BTK      0.057200
     34 HAJA        4.4930   -1.3270    0.9310 hc        1 BTK      0.057200
@<TRIPOS>BOND
     1    1    3 1   
     2    1    4 1   
     3    1   15 1   
     4    2    4 1   
     5    2   16 1   
     6    2   17 1   
     7    4    5 1   
     8    4   18 1   
     9    5    8 1   
    10    5   19 1   
    11    5   20 1   
    12    6    7 1   
    13    6    8 1   
    14    6   21 1   
    15    6   22 1   
    16    7    9 1   
    17    7   23 1   
    18    7   24 1   
    19    8   25 1   
    20    8   26 1   
    21    9   14 1   
    22    9   27 1   
    23   10   12 1   
    24   10   28 1   
    25   10   29 1   
    26   10   30 1   
    27   11   14 2   
    28   12   13 1   
    29   12   31 1   
    30   12   32 1   
    31   13   14 1   
    32   13   33 1   
    33   13   34 1   
@<TRIPOS>SUBSTRUCTURE
     1 BTK         1 TEMP              0 ****  ****    0 ROOT
