@<TRIPOS>MOLECULE
BTL
   19    18     1     0     0
SMALL
bcc


@<TRIPOS>ATOM
      1 O1          1.8290    0.8000    0.9270 o         1 BTL     -0.478100
      2 C           1.6910    0.5130   -0.2560 c         1 BTL      0.565900
      3 CA          0.3750    0.0630   -0.8660 c3        1 BTL     -0.027200
      4 N          -0.8140   -0.0290    0.0460 n4        1 BTL     -0.590800
      5 C3         -1.1200    1.3070    0.6410 c3        1 BTL      0.083433
      6 C2         -0.5580   -1.0160    1.1390 c3        1 BTL      0.083433
      7 C1         -1.9910   -0.4860   -0.7570 c3        1 BTL      0.083433
      8 H           2.5130    0.5510   -1.0040 h4        1 BTL      0.071200
      9 HA1         0.5400   -0.9580   -1.3220 hx        1 BTL      0.122700
     10 HA2         0.1180    0.7870   -1.6960 hx        1 BTL      0.122700
     11 H31        -0.2550    1.6410    1.2780 hx        1 BTL      0.107144
     12 H32        -1.2980    2.0490   -0.1810 hx        1 BTL      0.107144
     13 H33        -2.0410    1.2230    1.2780 hx        1 BTL      0.107144
     14 H21        -1.4780   -1.1040    1.7770 hx        1 BTL      0.107144
     15 H22        -0.3140   -2.0140    0.6900 hx        1 BTL      0.107144
     16 H23         0.3020   -0.6600    1.7710 hx        1 BTL      0.107144
     17 H11        -2.1960    0.2530   -1.5760 hx        1 BTL      0.107144
     18 H12        -1.7730   -1.4940   -1.2020 hx        1 BTL      0.107144
     19 H13        -2.8890   -0.5600   -0.0860 hx        1 BTL      0.107144
@<TRIPOS>BOND
     1    1    2 2   
     2    2    3 1   
     3    2    8 1   
     4    3    4 1   
     5    3    9 1   
     6    3   10 1   
     7    4    5 1   
     8    4    6 1   
     9    4    7 1   
    10    5   11 1   
    11    5   12 1   
    12    5   13 1   
    13    6   14 1   
    14    6   15 1   
    15    6   16 1   
    16    7   17 1   
    17    7   18 1   
    18    7   19 1   
@<TRIPOS>SUBSTRUCTURE
     1 BTL         1 TEMP              0 ****  ****    0 ROOT
