@<TRIPOS>MOLECULE
BTL
   19    17     1     0     0
SMALL
bcc


@<TRIPOS>ATOM
      1 O1         -2.4840    0.9650   -1.2690 o         1 BTL     -0.239000
      2 C          -1.2770    1.0970   -1.2490 c1        1 BTL      0.184000
      3 CA         -0.5350    1.1060    0.0750 c2        1 BTL     -0.214000
      4 N           0.2050   -0.1250    0.2230 n4        1 BTL      0.042000
      5 C3          1.2040   -0.2210   -0.8350 c3        1 BTL     -0.192667
      6 C2         -0.7110   -1.2570    0.1340 c3        1 BTL     -0.192667
      7 C1          0.8690   -0.1360    1.5240 c3        1 BTL     -0.192667
      8 H          -0.7770    1.1820   -2.0920 ha        1 BTL      0.164000
      9 HA1        -1.1790    1.1880    0.8090 hx        1 BTL      0.162000
     10 HA2         0.0860    1.8680    0.0990 hx        1 BTL      0.162000
     11 H31         1.8300   -0.9550   -0.6320 hx        1 BTL      0.146444
     12 H32         1.7020    0.6290   -0.8960 hx        1 BTL      0.146444
     13 H33         0.7620   -0.3990   -1.6840 hx        1 BTL      0.146444
     14 H21        -1.4340   -1.1450    0.7960 hx        1 BTL      0.146444
     15 H22        -1.0990   -1.2980   -0.7730 hx        1 BTL      0.146444
     16 H23        -0.2230   -2.0890    0.3210 hx        1 BTL      0.146444
     17 H11         0.1960   -0.0780    2.2320 hx        1 BTL      0.146444
     18 H12         1.4860    0.6400    1.5890 hx        1 BTL      0.146444
     19 H13         1.3810   -0.9740    1.6250 hx        1 BTL      0.146444
@<TRIPOS>BOND
     1    1    2 1   
     2    2    8 1   
     3    3    4 1   
     4    3    9 1   
     5    3   10 1   
     6    4    5 1   
     7    4    6 1   
     8    4    7 1   
     9    5   11 1   
    10    5   12 1   
    11    5   13 1   
    12    6   14 1   
    13    6   15 1   
    14    6   16 1   
    15    7   17 1   
    16    7   18 1   
    17    7   19 1   
@<TRIPOS>SUBSTRUCTURE
     1 BTL         1 TEMP              0 ****  ****    0 ROOT
