@<TRIPOS>MOLECULE
BTL
   19    18     1     0     0
SMALL
bcc


@<TRIPOS>ATOM
      1 O1          1.0940   -0.6970   -0.9210 o         1 BTL     -0.478100
      2 C           1.2250    0.2030   -0.1000 c         1 BTL      0.565900
      3 CA          2.1220    0.1070    1.1210 c3        1 BTL     -0.027200
      4 N           2.8850   -1.1710    1.3190 n4        1 BTL     -0.590800
      5 C3          3.8040   -1.4130    0.1660 c3        1 BTL      0.083433
      6 C2          1.9450   -2.3240    1.4600 c3        1 BTL      0.083433
      7 C1          3.6960   -1.0470    2.5710 c3        1 BTL      0.083433
      8 H           0.7010    1.1830   -0.1650 h4        1 BTL      0.071200
      9 HA1         1.4750    0.2680    2.0340 hx        1 BTL      0.122700
     10 HA2         2.8720    0.9510    1.0620 hx        1 BTL      0.122700
     11 H31         4.3990   -2.3460    0.3600 hx        1 BTL      0.107144
     12 H32         3.1990   -1.5450   -0.7730 hx        1 BTL      0.107144
     13 H33         4.4990   -0.5400    0.0530 hx        1 BTL      0.107144
     14 H21         2.5360   -3.2580    1.6570 hx        1 BTL      0.107144
     15 H22         1.3580   -2.4460    0.5080 hx        1 BTL      0.107144
     16 H23         1.2470   -2.1320    2.3170 hx        1 BTL      0.107144
     17 H11         4.2730   -1.9970    2.7310 hx        1 BTL      0.107144
     18 H12         3.0130   -0.8720    3.4440 hx        1 BTL      0.107144
     19 H13         4.4110   -0.1880    2.4710 hx        1 BTL      0.107144
@<TRIPOS>BOND
     1    1    2 2   
     2    2    3 1   
     3    2    8 1   
     4    3    4 1   
     5    3    9 1   
     6    3   10 1   
     7    4    5 1   
     8    4    6 1   
     9    4    7 1   
    10    5   11 1   
    11    5   12 1   
    12    5   13 1   
    13    6   14 1   
    14    6   15 1   
    15    6   16 1   
    16    7   17 1   
    17    7   18 1   
    18    7   19 1   
@<TRIPOS>SUBSTRUCTURE
     1 BTL         1 TEMP              0 ****  ****    0 ROOT
