@<TRIPOS>MOLECULE
BTL
   19    18     1     0     0
SMALL
bcc


@<TRIPOS>ATOM
      1 O1          1.1400   -0.6960   -0.9560 o         1 BTL     -0.478100
      2 C           1.1800    0.1650   -0.0840 c         1 BTL      0.565900
      3 CA          2.0430    0.0640    1.1610 c3        1 BTL     -0.027200
      4 N           2.8900   -1.1660    1.3180 n4        1 BTL     -0.590800
      5 C3          3.8590   -1.2800    0.1860 c3        1 BTL      0.083433
      6 C2          2.0300   -2.3880    1.3650 c3        1 BTL      0.083433
      7 C1          3.6500   -1.0550    2.6030 c3        1 BTL      0.083433
      8 H           0.5890    1.1070   -0.1160 h4        1 BTL      0.071200
      9 HA1         1.3580    0.1290    2.0580 hx        1 BTL      0.122700
     10 HA2         2.7320    0.9610    1.1730 hx        1 BTL      0.122700
     11 H31         4.5130   -2.1780    0.3520 hx        1 BTL      0.107144
     12 H32         3.2950   -1.4010   -0.7790 hx        1 BTL      0.107144
     13 H33         4.4930   -0.3550    0.1450 hx        1 BTL      0.107144
     14 H21         2.6810   -3.2880    1.5320 hx        1 BTL      0.107144
     15 H22         1.4840   -2.4980    0.3870 hx        1 BTL      0.107144
     16 H23         1.2940   -2.2930    2.2050 hx        1 BTL      0.107144
     17 H11         4.2880   -1.9700    2.7320 hx        1 BTL      0.107144
     18 H12         2.9290   -0.9770    3.4590 hx        1 BTL      0.107144
     19 H13         4.3040   -0.1440    2.5730 hx        1 BTL      0.107144
@<TRIPOS>BOND
     1    1    2 2   
     2    2    3 1   
     3    2    8 1   
     4    3    4 1   
     5    3    9 1   
     6    3   10 1   
     7    4    5 1   
     8    4    6 1   
     9    4    7 1   
    10    5   11 1   
    11    5   12 1   
    12    5   13 1   
    13    6   14 1   
    14    6   15 1   
    15    6   16 1   
    16    7   17 1   
    17    7   18 1   
    18    7   19 1   
@<TRIPOS>SUBSTRUCTURE
     1 BTL         1 TEMP              0 ****  ****    0 ROOT
