@<TRIPOS>MOLECULE
BTL
   19    18     1     0     0
SMALL
bcc


@<TRIPOS>ATOM
      1 O1          1.0600   -0.6850   -0.8930 o         1 BTL     -0.478100
      2 C           1.3100    0.2540   -0.1460 c         1 BTL      0.565900
      3 CA          2.2370    0.1540    1.0520 c3        1 BTL     -0.027200
      4 N           2.8760   -1.1770    1.3240 n4        1 BTL     -0.590800
      5 C3          3.7230   -1.5960    0.1660 c3        1 BTL      0.083433
      6 C2          1.8300   -2.2140    1.5790 c3        1 BTL      0.083433
      7 C1          3.7400   -1.0470    2.5390 c3        1 BTL      0.083433
      8 H           0.8850    1.2750   -0.2700 h4        1 BTL      0.071200
      9 HA1         1.6430    0.4470    1.9690 hx        1 BTL      0.122700
     10 HA2         3.0650    0.9110    0.9080 hx        1 BTL      0.122700
     11 H31         4.2270   -2.5680    0.4130 hx        1 BTL      0.107144
     12 H32         3.0740   -1.7320   -0.7430 hx        1 BTL      0.107144
     13 H33         4.4970   -0.8090   -0.0320 hx        1 BTL      0.107144
     14 H21         2.3320   -3.1870    1.8290 hx        1 BTL      0.107144
     15 H22         1.2000   -2.3450    0.6560 hx        1 BTL      0.107144
     16 H23         1.1860   -1.8910    2.4390 hx        1 BTL      0.107144
     17 H11         4.2240   -2.0370    2.7540 hx        1 BTL      0.107144
     18 H12         3.1100   -0.7410    3.4160 hx        1 BTL      0.107144
     19 H13         4.5330   -0.2750    2.3540 hx        1 BTL      0.107144
@<TRIPOS>BOND
     1    1    2 2   
     2    2    3 1   
     3    2    8 1   
     4    3    4 1   
     5    3    9 1   
     6    3   10 1   
     7    4    5 1   
     8    4    6 1   
     9    4    7 1   
    10    5   11 1   
    11    5   12 1   
    12    5   13 1   
    13    6   14 1   
    14    6   15 1   
    15    6   16 1   
    16    7   17 1   
    17    7   18 1   
    18    7   19 1   
@<TRIPOS>SUBSTRUCTURE
     1 BTL         1 TEMP              0 ****  ****    0 ROOT
