@<TRIPOS>MOLECULE
BTM
   36    36     1     0     0
SMALL
bcc


@<TRIPOS>ATOM
      1 N          -0.0400    0.0270    0.0160 n4        1 BTM     -0.610800
      2 C1          1.4740    0.0950    0.0580 c3        1 BTM      0.178100
      3 C2         -0.6030    0.0220    1.4160 c3        1 BTM      0.112467
      4 C3         -0.3190   -1.2170    2.2380 c3        1 BTM     -0.126100
      5 C4         -0.6000    1.2360   -0.6920 c3        1 BTM      0.112467
      6 C5         -0.3120    1.3250   -2.1760 c3        1 BTM     -0.126100
      7 C6         -0.4140   -1.2370   -0.7130 c3        1 BTM      0.112467
      8 C7         -1.9000   -1.4870   -0.8590 c3        1 BTM     -0.126100
      9 C8          2.0410    1.2910    0.7470 ca        1 BTM     -0.169300
     10 C9          2.3530    1.2340    2.1110 ca        1 BTM     -0.108000
     11 C10         2.9650    2.3200    2.7350 ca        1 BTM     -0.119000
     12 C11         3.2720    3.4670    2.0010 ca        1 BTM     -0.083000
     13 C12         2.9680    3.5260    0.6400 ca        1 BTM     -0.119000
     14 C13         2.3570    2.4420    0.0130 ca        1 BTM     -0.108000
     15 H1          1.8300   -0.8430    0.5740 hx        1 BTM      0.097700
     16 H1A         1.8320    0.0700   -1.0130 hx        1 BTM      0.097700
     17 H2         -1.7200    0.1520    1.3310 hx        1 BTM      0.097700
     18 H2A        -0.1760    0.9270    1.9390 hx        1 BTM      0.097700
     19 H3         -0.7020   -1.0300    3.2740 hc        1 BTM      0.071922
     20 H3A         0.7730   -1.4420    2.3090 hc        1 BTM      0.071922
     21 H3B        -0.8480   -2.1140    1.8330 hc        1 BTM      0.071922
     22 H4         -1.7180    1.2300   -0.5390 hx        1 BTM      0.097700
     23 H4A        -0.1720    2.1430   -0.1710 hx        1 BTM      0.097700
     24 H5          0.7790    1.2720   -2.4040 hc        1 BTM      0.071922
     25 H5A        -0.8420    0.5250   -2.7500 hc        1 BTM      0.071922
     26 H5B        -0.6930    2.3160   -2.5340 hc        1 BTM      0.071922
     27 H6          0.0580   -2.0970   -0.1540 hx        1 BTM      0.097700
     28 H6A         0.0600   -1.1860   -1.7360 hx        1 BTM      0.097700
     29 H7         -2.4050   -1.5880    0.1320 hc        1 BTM      0.071922
     30 H7A        -2.0300   -2.4510   -1.4150 hc        1 BTM      0.071922
     31 H7B        -2.4030   -0.6800   -1.4430 hc        1 BTM      0.071922
     32 H9          2.1310    0.3260    2.6920 ha        1 BTM      0.136000
     33 H10         3.2130    2.2680    3.8070 ha        1 BTM      0.158000
     34 H11         3.7600    4.3230    2.4940 ha        1 BTM      0.160000
     35 H12         3.2200    4.4260    0.0570 ha        1 BTM      0.158000
     36 H13         2.1370    2.4880   -1.0660 ha        1 BTM      0.136000
@<TRIPOS>BOND
     1    1    2 1   
     2    1    3 1   
     3    1    5 1   
     4    1    7 1   
     5    2    9 1   
     6    2   15 1   
     7    2   16 1   
     8    3    4 1   
     9    3   17 1   
    10    3   18 1   
    11    4   19 1   
    12    4   20 1   
    13    4   21 1   
    14    5    6 1   
    15    5   22 1   
    16    5   23 1   
    17    6   24 1   
    18    6   25 1   
    19    6   26 1   
    20    7    8 1   
    21    7   27 1   
    22    7   28 1   
    23    8   29 1   
    24    8   30 1   
    25    8   31 1   
    26    9   10 ar  
    27    9   14 ar  
    28   10   11 ar  
    29   10   32 1   
    30   11   12 ar  
    31   11   33 1   
    32   12   13 ar  
    33   12   34 1   
    34   13   14 ar  
    35   13   35 1   
    36   14   36 1   
@<TRIPOS>SUBSTRUCTURE
     1 BTM         1 TEMP              0 ****  ****    0 ROOT
