@<TRIPOS>MOLECULE
BTM
   36    36     1     0     0
SMALL
bcc


@<TRIPOS>ATOM
      1 N          -0.0410    0.0280    0.0160 n4        1 BTM     -0.610800
      2 C1          1.4740    0.0950    0.0570 c3        1 BTM      0.178100
      3 C2         -0.6030    0.0220    1.4150 c3        1 BTM      0.112467
      4 C3         -0.3200   -1.2180    2.2370 c3        1 BTM     -0.126100
      5 C4         -0.5990    1.2380   -0.6920 c3        1 BTM      0.112467
      6 C5         -0.3120    1.3270   -2.1760 c3        1 BTM     -0.126100
      7 C6         -0.4160   -1.2360   -0.7140 c3        1 BTM      0.112467
      8 C7         -1.9020   -1.4840   -0.8600 c3        1 BTM     -0.126100
      9 C8          2.0420    1.2890    0.7470 ca        1 BTM     -0.169300
     10 C9          2.3540    1.2320    2.1110 ca        1 BTM     -0.108000
     11 C10         2.9670    2.3160    2.7350 ca        1 BTM     -0.119000
     12 C11         3.2750    3.4630    2.0020 ca        1 BTM     -0.083000
     13 C12         2.9710    3.5230    0.6410 ca        1 BTM     -0.119000
     14 C13         2.3580    2.4400    0.0130 ca        1 BTM     -0.108000
     15 H1          1.8290   -0.8450    0.5730 hx        1 BTM      0.097700
     16 H1A         1.8320    0.0690   -1.0130 hx        1 BTM      0.097700
     17 H2         -0.1750    0.9270    1.9400 hx        1 BTM      0.097700
     18 H2A        -1.7210    0.1540    1.3310 hx        1 BTM      0.097700
     19 H3         -0.7030   -1.0300    3.2730 hc        1 BTM      0.071922
     20 H3A         0.7710   -1.4430    2.3080 hc        1 BTM      0.071922
     21 H3B        -0.8500   -2.1140    1.8310 hc        1 BTM      0.071922
     22 H4         -1.7170    1.2320   -0.5380 hx        1 BTM      0.097700
     23 H4A        -0.1710    2.1440   -0.1700 hx        1 BTM      0.097700
     24 H5         -0.8420    0.5280   -2.7490 hc        1 BTM      0.071922
     25 H5A        -0.6920    2.3190   -2.5330 hc        1 BTM      0.071922
     26 H5B         0.7800    1.2730   -2.4040 hc        1 BTM      0.071922
     27 H6          0.0550   -2.0960   -0.1560 hx        1 BTM      0.097700
     28 H6A         0.0580   -1.1840   -1.7370 hx        1 BTM      0.097700
     29 H7         -2.4050   -0.6760   -1.4440 hc        1 BTM      0.071922
     30 H7A        -2.4080   -1.5850    0.1310 hc        1 BTM      0.071922
     31 H7B        -2.0330   -2.4480   -1.4160 hc        1 BTM      0.071922
     32 H9          2.1300    0.3230    2.6920 ha        1 BTM      0.136000
     33 H10         3.2150    2.2640    3.8070 ha        1 BTM      0.158000
     34 H11         3.7640    4.3190    2.4960 ha        1 BTM      0.160000
     35 H12         3.2240    4.4240    0.0590 ha        1 BTM      0.158000
     36 H13         2.1380    2.4870   -1.0650 ha        1 BTM      0.136000
@<TRIPOS>BOND
     1    1    2 1   
     2    1    3 1   
     3    1    5 1   
     4    1    7 1   
     5    2    9 1   
     6    2   15 1   
     7    2   16 1   
     8    3    4 1   
     9    3   17 1   
    10    3   18 1   
    11    4   19 1   
    12    4   20 1   
    13    4   21 1   
    14    5    6 1   
    15    5   22 1   
    16    5   23 1   
    17    6   24 1   
    18    6   25 1   
    19    6   26 1   
    20    7    8 1   
    21    7   27 1   
    22    7   28 1   
    23    8   29 1   
    24    8   30 1   
    25    8   31 1   
    26    9   10 ar  
    27    9   14 ar  
    28   10   11 ar  
    29   10   32 1   
    30   11   12 ar  
    31   11   33 1   
    32   12   13 ar  
    33   12   34 1   
    34   13   14 ar  
    35   13   35 1   
    36   14   36 1   
@<TRIPOS>SUBSTRUCTURE
     1 BTM         1 TEMP              0 ****  ****    0 ROOT
