@<TRIPOS>MOLECULE
BTM
   36    36     1     0     0
SMALL
bcc


@<TRIPOS>ATOM
      1 N          -0.0410    0.0290    0.0160 n4        1 BTM     -0.610800
      2 C1          1.4730    0.0950    0.0560 c3        1 BTM      0.178100
      3 C2         -0.6020    0.0220    1.4160 c3        1 BTM      0.112467
      4 C3         -0.3190   -1.2190    2.2360 c3        1 BTM     -0.126100
      5 C4         -0.6000    1.2390   -0.6900 c3        1 BTM      0.112467
      6 C5         -0.3150    1.3300   -2.1740 c3        1 BTM     -0.126100
      7 C6         -0.4180   -1.2340   -0.7150 c3        1 BTM      0.112467
      8 C7         -1.9040   -1.4820   -0.8590 c3        1 BTM     -0.126100
      9 C8          2.0430    1.2880    0.7460 ca        1 BTM     -0.169300
     10 C9          2.3560    1.2290    2.1100 ca        1 BTM     -0.108000
     11 C10         2.9700    2.3130    2.7350 ca        1 BTM     -0.119000
     12 C11         3.2780    3.4610    2.0020 ca        1 BTM     -0.083000
     13 C12         2.9720    3.5220    0.6420 ca        1 BTM     -0.119000
     14 C13         2.3580    2.4400    0.0130 ca        1 BTM     -0.108000
     15 H1          1.8280   -0.8450    0.5700 hx        1 BTM      0.097700
     16 H1A         1.8300    0.0700   -1.0150 hx        1 BTM      0.097700
     17 H2         -0.1730    0.9260    1.9410 hx        1 BTM      0.097700
     18 H2A        -1.7200    0.1540    1.3330 hx        1 BTM      0.097700
     19 H3         -0.7000   -1.0320    3.2730 hc        1 BTM      0.071922
     20 H3A         0.7720   -1.4450    2.3050 hc        1 BTM      0.071922
     21 H3B        -0.8500   -2.1140    1.8310 hc        1 BTM      0.071922
     22 H4         -1.7180    1.2340   -0.5350 hx        1 BTM      0.097700
     23 H4A        -0.1710    2.1450   -0.1680 hx        1 BTM      0.097700
     24 H5         -0.8450    0.5310   -2.7480 hc        1 BTM      0.071922
     25 H5A        -0.6940    2.3220   -2.5310 hc        1 BTM      0.071922
     26 H5B         0.7770    1.2760   -2.4030 hc        1 BTM      0.071922
     27 H6          0.0530   -2.0960   -0.1580 hx        1 BTM      0.097700
     28 H6A         0.0550   -1.1820   -1.7380 hx        1 BTM      0.097700
     29 H7         -2.4070   -0.6730   -1.4420 hc        1 BTM      0.071922
     30 H7A        -2.4090   -1.5830    0.1320 hc        1 BTM      0.071922
     31 H7B        -2.0360   -2.4460   -1.4160 hc        1 BTM      0.071922
     32 H9          2.1330    0.3190    2.6900 ha        1 BTM      0.136000
     33 H10         3.2200    2.2590    3.8060 ha        1 BTM      0.158000
     34 H11         3.7680    4.3150    2.4970 ha        1 BTM      0.160000
     35 H12         3.2240    4.4230    0.0600 ha        1 BTM      0.158000
     36 H13         2.1370    2.4890   -1.0640 ha        1 BTM      0.136000
@<TRIPOS>BOND
     1    1    2 1   
     2    1    3 1   
     3    1    5 1   
     4    1    7 1   
     5    2    9 1   
     6    2   15 1   
     7    2   16 1   
     8    3    4 1   
     9    3   17 1   
    10    3   18 1   
    11    4   19 1   
    12    4   20 1   
    13    4   21 1   
    14    5    6 1   
    15    5   22 1   
    16    5   23 1   
    17    6   24 1   
    18    6   25 1   
    19    6   26 1   
    20    7    8 1   
    21    7   27 1   
    22    7   28 1   
    23    8   29 1   
    24    8   30 1   
    25    8   31 1   
    26    9   10 ar  
    27    9   14 ar  
    28   10   11 ar  
    29   10   32 1   
    30   11   12 ar  
    31   11   33 1   
    32   12   13 ar  
    33   12   34 1   
    34   13   14 ar  
    35   13   35 1   
    36   14   36 1   
@<TRIPOS>SUBSTRUCTURE
     1 BTM         1 TEMP              0 ****  ****    0 ROOT
