@<TRIPOS>MOLECULE
BTM
   36    36     1     0     0
SMALL
bcc


@<TRIPOS>ATOM
      1 N           1.2870   -0.0000   -0.0080 n4        1 BTM     -0.610800
      2 C1          0.1980   -0.0000   -1.0640 c3        1 BTM      0.178100
      3 C2          1.1600    1.2160    0.8750 c3        1 BTM      0.112467
      4 C3          1.4520    2.5470    0.2140 c3        1 BTM     -0.126100
      5 C4          1.1590   -1.2160    0.8750 c3        1 BTM      0.112467
      6 C5          1.4520   -2.5470    0.2150 c3        1 BTM     -0.126100
      7 C6          2.6110   -0.0000   -0.7270 c3        1 BTM      0.112467
      8 C7          3.8340   -0.0000    0.1660 c3        1 BTM     -0.126100
      9 C8         -1.1990   -0.0000   -0.5410 ca        1 BTM     -0.169300
     10 C9         -1.8750    1.2100   -0.3420 ca        1 BTM     -0.108000
     11 C10        -3.2090    1.2090    0.0610 ca        1 BTM     -0.119000
     12 C11        -3.8770    0.0000    0.2650 ca        1 BTM     -0.083000
     13 C12        -3.2090   -1.2080    0.0610 ca        1 BTM     -0.119000
     14 C13        -1.8750   -1.2100   -0.3420 ca        1 BTM     -0.108000
     15 H1          0.3630    0.9150   -1.7040 hx        1 BTM      0.097700
     16 H1A         0.3630   -0.9160   -1.7040 hx        1 BTM      0.097700
     17 H2          0.1020    1.2180    1.2730 hx        1 BTM      0.097700
     18 H2A         1.8680    1.0790    1.7430 hx        1 BTM      0.097700
     19 H3          0.8270    2.7190   -0.6950 hc        1 BTM      0.071922
     20 H3A         1.2130    3.3520    0.9560 hc        1 BTM      0.071922
     21 H3B         2.5300    2.6440   -0.0640 hc        1 BTM      0.071922
     22 H4          1.8680   -1.0790    1.7430 hx        1 BTM      0.097700
     23 H4A         0.1020   -1.2180    1.2740 hx        1 BTM      0.097700
     24 H5          0.8260   -2.7190   -0.6940 hc        1 BTM      0.071922
     25 H5A         2.5300   -2.6440   -0.0630 hc        1 BTM      0.071922
     26 H5B         1.2130   -3.3520    0.9570 hc        1 BTM      0.071922
     27 H6          2.6310   -0.9130   -1.3900 hx        1 BTM      0.097700
     28 H6A         2.6320    0.9120   -1.3910 hx        1 BTM      0.097700
     29 H7          4.7380   -0.0010   -0.4960 hc        1 BTM      0.071922
     30 H7A         3.8780    0.9090    0.8130 hc        1 BTM      0.071922
     31 H7B         3.8780   -0.9100    0.8130 hc        1 BTM      0.071922
     32 H9         -1.3590    2.1680   -0.5190 ha        1 BTM      0.136000
     33 H10        -3.7380    2.1630    0.2110 ha        1 BTM      0.158000
     34 H11        -4.9340    0.0010    0.5780 ha        1 BTM      0.160000
     35 H12        -3.7380   -2.1630    0.2110 ha        1 BTM      0.158000
     36 H13        -1.3600   -2.1680   -0.5180 ha        1 BTM      0.136000
@<TRIPOS>BOND
     1    1    2 1   
     2    1    3 1   
     3    1    5 1   
     4    1    7 1   
     5    2    9 1   
     6    2   15 1   
     7    2   16 1   
     8    3    4 1   
     9    3   17 1   
    10    3   18 1   
    11    4   19 1   
    12    4   20 1   
    13    4   21 1   
    14    5    6 1   
    15    5   22 1   
    16    5   23 1   
    17    6   24 1   
    18    6   25 1   
    19    6   26 1   
    20    7    8 1   
    21    7   27 1   
    22    7   28 1   
    23    8   29 1   
    24    8   30 1   
    25    8   31 1   
    26    9   10 ar  
    27    9   14 ar  
    28   10   11 ar  
    29   10   32 1   
    30   11   12 ar  
    31   11   33 1   
    32   12   13 ar  
    33   12   34 1   
    34   13   14 ar  
    35   13   35 1   
    36   14   36 1   
@<TRIPOS>SUBSTRUCTURE
     1 BTM         1 TEMP              0 ****  ****    0 ROOT
