@<TRIPOS>MOLECULE
BTM
   36    34     1     0     0
SMALL
bcc


@<TRIPOS>ATOM
      1 N          -0.4830   -0.5960   -0.3440 n4        1 BTM      0.022000
      2 C1          0.9950   -0.5960   -0.3440 c3        1 BTM     -0.066000
      3 C2         -0.9710   -0.5960    1.0390 c3        1 BTM     -0.124333
      4 C3         -0.7580   -1.9900    1.6610 c3        1 BTM     -0.244000
      5 C4         -0.9710    0.6030   -1.0340 c3        1 BTM     -0.124333
      6 C5         -0.7400    0.4520   -2.5510 c3        1 BTM     -0.244000
      7 C6         -0.9720   -1.7940   -1.0360 c3        1 BTM     -0.124333
      8 C7         -2.5150   -1.7890   -1.0460 c3        1 BTM     -0.244000
      9 C8          1.5170    0.6770    0.3890 c2        1 BTM     -0.162000
     10 C9          1.8340    0.6140    1.7430 c1        1 BTM     -0.108000
     11 C10         2.3010    1.7480    2.4030 c1        1 BTM     -0.101000
     12 C11         2.4510    2.9440    1.7100 c1        1 BTM     -0.101000
     13 C12         2.1350    3.0080    0.3560 c1        1 BTM     -0.119000
     14 C13         1.6670    1.8730   -0.3050 c2        1 BTM     -0.108000
     15 H1          1.3200   -0.5970   -1.2640 hx        1 BTM      0.137000
     16 H1A         1.3200   -1.3930    0.1170 hx        1 BTM      0.137000
     17 H2         -0.4810    0.0700    1.5580 hx        1 BTM      0.137000
     18 H2A        -1.9230   -0.3780    1.0480 hx        1 BTM      0.137000
     19 H3         -1.5100   -2.5680    1.4300 hc        1 BTM      0.111222
     20 H3A         0.0690   -2.3770    1.3160 hc        1 BTM      0.111222
     21 H3B        -0.6980   -1.9080    2.6320 hc        1 BTM      0.111222
     22 H4         -0.4890    1.3860   -0.7070 hx        1 BTM      0.137000
     23 H4A        -1.9260    0.7120   -0.8600 hx        1 BTM      0.137000
     24 H5          0.0970   -0.0260   -2.7060 hc        1 BTM      0.111222
     25 H5A        -0.6900    1.3370   -2.9610 hc        1 BTM      0.111222
     26 H5B        -1.4790   -0.0480   -2.9450 hc        1 BTM      0.111222
     27 H6         -0.6410   -1.7970   -1.9540 hx        1 BTM      0.137000
     28 H6A        -0.6530   -2.5910   -0.5720 hx        1 BTM      0.137000
     29 H7         -2.8340   -1.7630   -1.9680 hc        1 BTM      0.111222
     30 H7A        -2.8410   -1.0030   -0.5670 hc        1 BTM      0.111222
     31 H7B        -2.8450   -2.5970   -0.6100 hc        1 BTM      0.111222
     32 H9          1.7280   -0.2250    2.2310 ha        1 BTM      0.136000
     33 H10         2.5230    1.7040    3.3530 ha        1 BTM      0.159000
     34 H11         2.7780    3.7390    2.1720 ha        1 BTM      0.159000
     35 H12         2.2400    3.8470   -0.1310 ha        1 BTM      0.158000
     36 H13         1.4450    1.9180   -1.2540 ha        1 BTM      0.136000
@<TRIPOS>BOND
     1    1    2 1   
     2    1    3 1   
     3    1    5 1   
     4    1    7 1   
     5    2    9 1   
     6    2   15 1   
     7    2   16 1   
     8    3    4 1   
     9    3   17 1   
    10    3   18 1   
    11    4   19 1   
    12    4   20 1   
    13    4   21 1   
    14    5    6 1   
    15    5   22 1   
    16    5   23 1   
    17    6   24 1   
    18    6   25 1   
    19    6   26 1   
    20    7    8 1   
    21    7   27 1   
    22    7   28 1   
    23    8   29 1   
    24    8   30 1   
    25    8   31 1   
    26    9   10 1   
    27    9   14 1   
    28   10   32 1   
    29   11   12 1   
    30   11   33 1   
    31   12   34 1   
    32   13   14 1   
    33   13   35 1   
    34   14   36 1   
@<TRIPOS>SUBSTRUCTURE
     1 BTM         1 TEMP              0 ****  ****    0 ROOT
