@<TRIPOS>MOLECULE
BTN
   31    32     1     0     0
SMALL
bcc


@<TRIPOS>ATOM
      1 C11        -0.0610    0.3760    0.0710 c         1 BTN      0.908600
      2 O11         0.9670    1.1140    0.0540 o         1 BTN     -0.850300
      3 O12        -0.5360   -0.1490    1.1180 o         1 BTN     -0.850300
      4 C10        -0.7980    0.1150   -1.2560 c3        1 BTN     -0.196400
      5 C9          0.1730   -0.1210   -2.3860 c3        1 BTN     -0.067400
      6 C8         -0.5110   -0.0720   -3.7360 c3        1 BTN     -0.080400
      7 C7          0.4860   -0.2790   -4.8600 c3        1 BTN     -0.075400
      8 C2         -0.1690   -0.1540   -6.2150 c3        1 BTN     -0.004600
      9 S1         -1.2110   -1.5710   -6.5340 ss        1 BTN     -0.280200
     10 C6         -1.1310   -1.4350   -8.2900 c3        1 BTN     -0.051300
     11 C5          0.1670   -0.7370   -8.6750 c3        1 BTN      0.048700
     12 N1          1.2360   -1.5960   -9.1790 ns        1 BTN     -0.510900
     13 C3          2.3090   -1.5920   -8.2280 c         1 BTN      0.746500
     14 O3          3.3110   -2.3270   -8.3050 o         1 BTN     -0.626500
     15 N2          2.1300   -0.5550   -7.2700 ns        1 BTN     -0.512900
     16 C4          0.7850   -0.0070   -7.4010 c3        1 BTN      0.060700
     17 H101       -1.4800   -0.7620   -1.1360 hc        1 BTN      0.021200
     18 H102       -1.4290    1.0140   -1.4730 hc        1 BTN      0.021200
     19 H91         0.6690   -1.1170   -2.2530 hc        1 BTN      0.047200
     20 H92         0.9790    0.6610   -2.3330 hc        1 BTN      0.047200
     21 H81        -1.3070   -0.8610   -3.7920 hc        1 BTN      0.036200
     22 H82        -1.0180    0.9210   -3.8610 hc        1 BTN      0.036200
     23 H71         0.9620   -1.2890   -4.7470 hc        1 BTN      0.054700
     24 H72         1.2980    0.4940   -4.7700 hc        1 BTN      0.054700
     25 H2         -0.8310    0.7540   -6.2060 h1        1 BTN      0.082700
     26 H61        -1.9970   -0.8400   -8.6700 h1        1 BTN      0.074200
     27 H62        -1.2190   -2.4610   -8.7230 h1        1 BTN      0.074200
     28 H5         -0.0400    0.0320   -9.4720 h1        1 BTN      0.080700
     29 HN1         0.9690   -2.4980   -9.5050 hn        1 BTN      0.301500
     30 HN2         2.4770   -0.7300   -6.3530 hn        1 BTN      0.326500
     31 H4          0.9060    1.0900   -7.6320 h1        1 BTN      0.083700
@<TRIPOS>BOND
     1    1    2 1   
     2    1    3 1   
     3    1    4 1   
     4    4    5 1   
     5    4   17 1   
     6    4   18 1   
     7    5    6 1   
     8    5   19 1   
     9    5   20 1   
    10    6    7 1   
    11    6   21 1   
    12    6   22 1   
    13    7    8 1   
    14    7   23 1   
    15    7   24 1   
    16    8    9 1   
    17    8   16 1   
    18    8   25 1   
    19    9   10 1   
    20   10   11 1   
    21   10   26 1   
    22   10   27 1   
    23   11   12 1   
    24   11   16 1   
    25   11   28 1   
    26   12   13 1   
    27   12   29 1   
    28   13   14 2   
    29   13   15 1   
    30   15   16 1   
    31   15   30 1   
    32   16   31 1   
@<TRIPOS>SUBSTRUCTURE
     1 BTN         1 TEMP              0 ****  ****    0 ROOT
