@<TRIPOS>MOLECULE
BTN
   31    32     1     0     0
SMALL
bcc


@<TRIPOS>ATOM
      1 C11         0.1530    0.1900    5.2230 c         1 BTN      0.908600
      2 O11         1.0680    1.0640    5.2300 o         1 BTN     -0.850300
      3 O12        -0.1160   -0.5590    6.2050 o         1 BTN     -0.850300
      4 C10        -0.7070    0.0400    3.9540 c3        1 BTN     -0.196400
      5 C9          0.1360    0.1300    2.7070 c3        1 BTN     -0.067400
      6 C8         -0.7140    0.2940    1.4640 c3        1 BTN     -0.080400
      7 C7          0.1520    0.4150    0.2240 c3        1 BTN     -0.075400
      8 C2         -0.6800    0.6580   -1.0130 c3        1 BTN     -0.004600
      9 S1         -1.5690   -0.8250   -1.4660 ss        1 BTN     -0.280200
     10 C6         -1.7280   -0.4020   -3.1700 c3        1 BTN     -0.051300
     11 C5         -0.5860    0.5290   -3.5590 c3        1 BTN      0.048700
     12 N1          0.5100   -0.0770   -4.3130 n         1 BTN     -0.510900
     13 C3          1.6850   -0.0700   -3.4910 c         1 BTN      0.746500
     14 O3          2.7520   -0.6300   -3.7980 o         1 BTN     -0.626500
     15 N2          1.5010    0.7650   -2.3530 n         1 BTN     -0.512900
     16 C4          0.0920    1.1280   -2.2470 c3        1 BTN      0.060700
     17 H101       -1.2530   -0.9350    3.9890 hc        1 BTN      0.021200
     18 H102       -1.4690    0.8610    3.9650 hc        1 BTN      0.021200
     19 H91         0.8370    1.0020    2.8130 hc        1 BTN      0.047200
     20 H92         0.7660   -0.7920    2.6120 hc        1 BTN      0.047200
     21 H81        -1.4050   -0.5830    1.3530 hc        1 BTN      0.036200
     22 H82        -1.3530    1.2100    1.5670 hc        1 BTN      0.036200
     23 H71         0.8650    1.2720    0.3640 hc        1 BTN      0.054700
     24 H72         0.7610   -0.5210    0.1100 hc        1 BTN      0.054700
     25 H2         -1.4430    1.4480   -0.7770 h1        1 BTN      0.082700
     26 H61        -1.7410   -1.3470   -3.7640 h1        1 BTN      0.074200
     27 H62        -2.7020    0.1160   -3.3480 h1        1 BTN      0.074200
     28 H5         -0.9860    1.3770   -4.1830 h1        1 BTN      0.080700
     29 HN1         0.3190   -0.9440   -4.7620 hn        1 BTN      0.301500
     30 HN2         1.9790    0.4990   -1.5220 hn        1 BTN      0.326500
     31 H4          0.0450    2.2530   -2.2940 h1        1 BTN      0.083700
@<TRIPOS>BOND
     1    1    2 1   
     2    1    3 1   
     3    1    4 1   
     4    4    5 1   
     5    4   17 1   
     6    4   18 1   
     7    5    6 1   
     8    5   19 1   
     9    5   20 1   
    10    6    7 1   
    11    6   21 1   
    12    6   22 1   
    13    7    8 1   
    14    7   23 1   
    15    7   24 1   
    16    8    9 1   
    17    8   16 1   
    18    8   25 1   
    19    9   10 1   
    20   10   11 1   
    21   10   26 1   
    22   10   27 1   
    23   11   12 1   
    24   11   16 1   
    25   11   28 1   
    26   12   13 1   
    27   12   29 1   
    28   13   14 2   
    29   13   15 1   
    30   15   16 1   
    31   15   30 1   
    32   16   31 1   
@<TRIPOS>SUBSTRUCTURE
     1 BTN         1 TEMP              0 ****  ****    0 ROOT
