@<TRIPOS>MOLECULE
BTO
   30    31     1     0     0
SMALL
bcc


@<TRIPOS>ATOM
      1 C1          0.3010    0.8310   -0.2520 ca        1 BTO     -0.152000
      2 C2          1.1400   -0.2330   -0.5670 ca        1 BTO     -0.070000
      3 C3          1.6440   -1.0310    0.4750 ca        1 BTO     -0.188200
      4 C4          1.3190   -0.7700    1.8150 ca        1 BTO     -0.032000
      5 C5          0.4700    0.3060    2.1090 ca        1 BTO     -0.105500
      6 C6         -0.0360    1.1040    1.0740 ca        1 BTO     -0.063000
      7 N           2.5350   -2.1720    0.1440 no        1 BTO      0.314200
      8 O           2.8320   -2.3640   -1.0070 o         1 BTO     -0.216000
      9 O1          2.9370   -2.8820    1.0260 o         1 BTO     -0.216000
     10 C7          0.1120    0.5950    3.4950 cc        1 BTO      0.549500
     11 N1          0.8740    0.1570    4.6140 nc        1 BTO     -0.724000
     12 C8          0.2130    0.6410    5.6690 cd        1 BTO      0.567700
     13 C9          0.4790    0.5900    7.1200 c3        1 BTO     -0.159700
     14 C10        -0.7770    0.6050    7.9710 c3        1 BTO     -0.044400
     15 C11        -1.2370    2.0080    8.2960 c3        1 BTO     -0.207400
     16 C12        -0.2470    2.7410    9.2200 c         1 BTO      0.907600
     17 O13         0.9120    3.0020    8.7720 o         1 BTO     -0.845300
     18 O14        -0.6380    3.0590   10.3760 o         1 BTO     -0.845300
     19 O15        -0.9380    1.3570    5.2090 os        1 BTO     -0.119100
     20 N2         -0.9740    1.3120    3.9020 nd        1 BTO     -0.382300
     21 H111       -2.2340    1.9600    8.8020 hc        1 BTO      0.033700
     22 H112       -1.3480    2.5980    7.3510 hc        1 BTO      0.033700
     23 H101       -0.5510    0.0660    8.9300 hc        1 BTO      0.028700
     24 H102       -1.5970    0.0430    7.4520 hc        1 BTO      0.028700
     25 H91         1.1070    1.5020    7.4010 hc        1 BTO      0.119700
     26 H92         1.0860   -0.3300    7.3330 hc        1 BTO      0.119700
     27 H6         -0.7000    1.9540    1.3030 ha        1 BTO      0.164000
     28 H1         -0.0990    1.4640   -1.0590 ha        1 BTO      0.144000
     29 H2          1.4070   -0.4490   -1.6140 ha        1 BTO      0.164000
     30 H4          1.7300   -1.4020    2.6240 ha        1 BTO      0.194000
@<TRIPOS>BOND
     1    1    2 ar  
     2    1    6 ar  
     3    1   28 1   
     4    2    3 ar  
     5    2   29 1   
     6    3    4 ar  
     7    3    7 1   
     8    4    5 ar  
     9    4   30 1   
    10    5    6 ar  
    11    5   10 1   
    12    6   27 1   
    13    7    8 1   
    14    7    9 1   
    15   10   11 1   
    16   10   20 2   
    17   11   12 2   
    18   12   13 1   
    19   12   19 1   
    20   13   14 1   
    21   13   25 1   
    22   13   26 1   
    23   14   15 1   
    24   14   23 1   
    25   14   24 1   
    26   15   16 1   
    27   15   21 1   
    28   15   22 1   
    29   16   17 1   
    30   16   18 1   
    31   19   20 1   
@<TRIPOS>SUBSTRUCTURE
     1 BTO         1 TEMP              0 ****  ****    0 ROOT
