@<TRIPOS>MOLECULE
BTO
   30    26     1     0     0
SMALL
bcc


@<TRIPOS>ATOM
      1 C1          2.5680    1.7420   -3.5600 c1        1 BTO     -0.105500
      2 C2          2.9170    0.5260   -4.1550 c1        1 BTO     -0.066000
      3 C3          2.6020   -0.7080   -3.5000 c1        1 BTO     -0.142000
      4 C4          1.9370   -0.6940   -2.2510 c1        1 BTO     -0.030000
      5 C5          1.5930    0.5130   -1.6660 c1        1 BTO     -0.005000
      6 C6          1.9110    1.7540   -2.3270 c1        1 BTO     -0.105500
      7 N           3.0330   -1.9560   -4.0710 no        1 BTO      0.569000
      8 O           3.5240   -1.9860   -5.3170 o         1 BTO     -0.363500
      9 O1          2.8820   -3.0100   -3.4380 o         1 BTO     -0.363500
     10 C7          0.8770    0.5260   -0.4560 c1        1 BTO     -0.078000
     11 N1         -0.4780    0.4310   -0.3190 n2        1 BTO     -0.172000
     12 C8         -0.7650    0.5110    0.9970 c1        1 BTO      0.062000
     13 C9         -2.1770    0.5000    1.6300 c2        1 BTO     -0.109000
     14 C10        -2.0760    0.0220    3.1100 c3        1 BTO     -0.144000
     15 C11        -3.4440   -0.3830    3.6060 c3        1 BTO     -0.232000
     16 C12        -3.3010   -1.1020    4.9360 c2        1 BTO      0.332000
     17 O13        -2.7250   -2.2380    4.9830 o         1 BTO     -0.577500
     18 O14        -3.6210   -0.5020    6.0270 o         1 BTO     -0.577500
     19 O15         0.3940    0.6530    1.6680 os        1 BTO     -0.078000
     20 N2          1.4060    0.6620    0.7660 n2        1 BTO     -0.038000
     21 H111       -3.9570    0.3530    3.7130 hc        1 BTO      0.063500
     22 H112       -3.8640   -0.9800    2.9550 hc        1 BTO      0.063500
     23 H101       -1.7470    0.7210    3.6400 hc        1 BTO      0.102500
     24 H102       -1.4540   -0.7610    3.1690 hc        1 BTO      0.102500
     25 H91        -2.5410    1.3840    1.6060 ha        1 BTO      0.112500
     26 H92        -2.8080   -0.1570    1.0900 ha        1 BTO      0.112500
     27 H6          1.5840    2.5260   -2.0050 ha        1 BTO      0.154500
     28 H1          2.7940    2.6320   -4.0300 ha        1 BTO      0.154500
     29 H2          3.3200    0.5190   -4.9170 ha        1 BTO      0.166000
     30 H4          1.6160   -1.4970   -1.8840 ha        1 BTO      0.193000
@<TRIPOS>BOND
     1    1    6 1   
     2    1   28 1   
     3    2    3 1   
     4    2   29 1   
     5    3    7 1   
     6    4    5 1   
     7    4   30 1   
     8    6   27 1   
     9    7    8 1   
    10    7    9 1   
    11   10   11 1   
    12   10   20 1   
    13   11   12 1   
    14   12   19 1   
    15   13   14 1   
    16   13   25 1   
    17   13   26 1   
    18   14   15 1   
    19   14   23 1   
    20   14   24 1   
    21   15   16 1   
    22   15   21 1   
    23   15   22 1   
    24   16   17 1   
    25   16   18 1   
    26   19   20 1   
@<TRIPOS>SUBSTRUCTURE
     1 BTO         1 TEMP              0 ****  ****    0 ROOT
