@<TRIPOS>MOLECULE
BTO
   30    31     1     0     0
SMALL
bcc


@<TRIPOS>ATOM
      1 C1         -5.9180   -0.8980    5.3230 ca        1 BTO     -0.152000
      2 C2         -5.5610   -1.7720    6.3440 ca        1 BTO     -0.070000
      3 C3         -4.3370   -2.4580    6.2530 ca        1 BTO     -0.188200
      4 C4         -3.4810   -2.2790    5.1550 ca        1 BTO     -0.032000
      5 C5         -3.8600   -1.3910    4.1390 ca        1 BTO     -0.105500
      6 C6         -5.0790   -0.7040    4.2260 ca        1 BTO     -0.063000
      7 N          -3.9470   -3.3880    7.3430 no        1 BTO      0.314200
      8 O          -4.7070   -3.5580    8.2630 o         1 BTO     -0.216000
      9 O1         -2.8850   -3.9470    7.2910 o         1 BTO     -0.216000
     10 C7         -2.9840   -1.1810    2.9890 cc        1 BTO      0.549500
     11 N1         -1.9800   -2.1040    2.5850 nc        1 BTO     -0.724000
     12 C8         -1.4340   -1.5410    1.5040 cd        1 BTO      0.567700
     13 C9         -0.3720   -1.9830    0.5790 c3        1 BTO     -0.159700
     14 C10         0.4200   -0.8420   -0.0320 c3        1 BTO     -0.044400
     15 C11        -0.2090   -0.3180   -1.3030 c3        1 BTO     -0.207400
     16 C12        -0.1590   -1.3530   -2.4420 c         1 BTO      0.907600
     17 O13        -0.8230   -2.4260   -2.3080 o         1 BTO     -0.845300
     18 O14         0.5340   -1.0810   -3.4600 o         1 BTO     -0.845300
     19 O15        -2.0840   -0.2900    1.2520 os        1 BTO     -0.119100
     20 N2         -3.0090   -0.1010    2.1580 nd        1 BTO     -0.382300
     21 H111       -1.2780   -0.0490   -1.1120 hc        1 BTO      0.033700
     22 H112        0.3340    0.6040   -1.6290 hc        1 BTO      0.033700
     23 H101        0.5280   -0.0100    0.7140 hc        1 BTO      0.028700
     24 H102        1.4490   -1.2230   -0.2670 hc        1 BTO      0.028700
     25 H91        -0.8610   -2.5680   -0.2720 hc        1 BTO      0.119700
     26 H92         0.3090   -2.6810    1.1340 hc        1 BTO      0.119700
     27 H6         -5.3810   -0.0090    3.4250 ha        1 BTO      0.164000
     28 H1         -6.8740   -0.3560    5.3820 ha        1 BTO      0.144000
     29 H2         -6.2230   -1.9270    7.2110 ha        1 BTO      0.164000
     30 H4         -2.5260   -2.8320    5.0940 ha        1 BTO      0.194000
@<TRIPOS>BOND
     1    1    2 ar  
     2    1    6 ar  
     3    1   28 1   
     4    2    3 ar  
     5    2   29 1   
     6    3    4 ar  
     7    3    7 1   
     8    4    5 ar  
     9    4   30 1   
    10    5    6 ar  
    11    5   10 1   
    12    6   27 1   
    13    7    8 1   
    14    7    9 1   
    15   10   11 1   
    16   10   20 2   
    17   11   12 2   
    18   12   13 1   
    19   12   19 1   
    20   13   14 1   
    21   13   25 1   
    22   13   26 1   
    23   14   15 1   
    24   14   23 1   
    25   14   24 1   
    26   15   16 1   
    27   15   21 1   
    28   15   22 1   
    29   16   17 1   
    30   16   18 1   
    31   19   20 1   
@<TRIPOS>SUBSTRUCTURE
     1 BTO         1 TEMP              0 ****  ****    0 ROOT
