@<TRIPOS>MOLECULE
BTO
   30    31     1     0     0
SMALL
bcc


@<TRIPOS>ATOM
      1 C1          0.2590    0.6970   -0.2580 ca        1 BTO     -0.152000
      2 C2          1.1720   -0.3110   -0.5480 ca        1 BTO     -0.070000
      3 C3          1.7390   -1.0400    0.5130 ca        1 BTO     -0.188200
      4 C4          1.4020   -0.7640    1.8470 ca        1 BTO     -0.032000
      5 C5          0.4760    0.2540    2.1160 ca        1 BTO     -0.105500
      6 C6         -0.0910    0.9830    1.0620 ca        1 BTO     -0.063000
      7 N           2.7100   -2.1210    0.2090 no        1 BTO      0.314200
      8 O           3.0150   -2.3240   -0.9380 o         1 BTO     -0.216000
      9 O1          3.1680   -2.7730    1.1090 o         1 BTO     -0.216000
     10 C7          0.1040    0.5560    3.4950 cc        1 BTO      0.550500
     11 N1          0.9010    0.2060    4.6210 nc        1 BTO     -0.724000
     12 C8          0.2110    0.6720    5.6670 cd        1 BTO      0.567700
     13 C9          0.4860    0.6820    7.1160 c3        1 BTO     -0.159700
     14 C10        -0.7640    0.6330    7.9750 c3        1 BTO     -0.044400
     15 C11        -1.3200    2.0100    8.2620 c3        1 BTO     -0.207400
     16 C12        -0.3800    2.8380    9.1570 c         1 BTO      0.907600
     17 O13         0.7550    3.1650    8.6950 o         1 BTO     -0.845300
     18 O14        -0.7880    3.1620   10.3060 o         1 BTO     -0.845300
     19 O15        -0.9920    1.2890    5.1940 os        1 BTO     -0.119100
     20 N2         -1.0290    1.2040    3.8890 nd        1 BTO     -0.382300
     21 H111       -2.3090    1.9070    8.7750 hc        1 BTO      0.033700
     22 H112       -1.4760    2.5620    7.3010 hc        1 BTO      0.033700
     23 H101       -0.4960    0.1410    8.9480 hc        1 BTO      0.028700
     24 H102       -1.5450    0.0000    7.4780 hc        1 BTO      0.028700
     25 H91         1.0500    1.6430    7.3670 hc        1 BTO      0.119700
     26 H92         1.1580   -0.1860    7.3520 hc        1 BTO      0.119700
     27 H6         -0.8150    1.7870    1.2710 ha        1 BTO      0.164000
     28 H1         -0.1900    1.2750   -1.0800 ha        1 BTO      0.144000
     29 H2          1.4510   -0.5380   -1.5900 ha        1 BTO      0.164000
     30 H4          1.8620   -1.3410    2.6710 ha        1 BTO      0.194000
@<TRIPOS>BOND
     1    1    2 ar  
     2    1    6 ar  
     3    1   28 1   
     4    2    3 ar  
     5    2   29 1   
     6    3    4 ar  
     7    3    7 1   
     8    4    5 ar  
     9    4   30 1   
    10    5    6 ar  
    11    5   10 1   
    12    6   27 1   
    13    7    8 1   
    14    7    9 1   
    15   10   11 1   
    16   10   20 2   
    17   11   12 2   
    18   12   13 1   
    19   12   19 1   
    20   13   14 1   
    21   13   25 1   
    22   13   26 1   
    23   14   15 1   
    24   14   23 1   
    25   14   24 1   
    26   15   16 1   
    27   15   21 1   
    28   15   22 1   
    29   16   17 1   
    30   16   18 1   
    31   19   20 1   
@<TRIPOS>SUBSTRUCTURE
     1 BTO         1 TEMP              0 ****  ****    0 ROOT
