@<TRIPOS>MOLECULE
BTP
   24    24     1     0     0
SMALL
bcc


@<TRIPOS>ATOM
      1 C1          2.0150    0.3570    1.1010 c         1 BTP      0.916600
      2 O1          2.4110    1.2760    0.3310 o         1 BTP     -0.835800
      3 O2          2.7730   -0.3060    1.8620 o         1 BTP     -0.835800
      4 C2          0.4970   -0.0100    1.1250 c3        1 BTP     -0.182700
      5 C3         -0.3470    0.9310    0.2770 c3        1 BTP     -0.032100
      6 C1'        -0.5290    0.4470   -1.1200 ca        1 BTP     -0.047300
      7 C2'        -1.7860    0.0440   -1.5850 ca        1 BTP     -0.129500
      8 C3'        -1.9470   -0.3810   -2.9040 ca        1 BTP     -0.148000
      9 C4'        -0.8550   -0.4080   -3.7690 ca        1 BTP     -0.158000
     10 C5'         0.4030   -0.0110   -3.3100 ca        1 BTP     -0.148000
     11 C6'         0.5680    0.4150   -1.9950 ca        1 BTP     -0.129500
     12 C'          0.0510   -0.0020    2.5650 c3        1 BTP      0.065700
     13 S'         -1.5600   -0.7710    2.7280 sh        1 BTP     -0.467900
     14 H2          0.4230   -1.0560    0.7210 hc        1 BTP      0.061700
     15 H31        -1.3540    1.0710    0.7570 hc        1 BTP      0.052200
     16 H32         0.1680    1.9320    0.2440 hc        1 BTP      0.052200
     17 H2'        -2.6500    0.0570   -0.9050 ha        1 BTP      0.160000
     18 H3'        -2.9370   -0.6980   -3.2590 ha        1 BTP      0.111500
     19 H4'        -0.9820   -0.7440   -4.8070 ha        1 BTP      0.106000
     20 H5'         1.2670   -0.0370   -3.9880 ha        1 BTP      0.111500
     21 H6'         1.5580    0.7280   -1.6040 ha        1 BTP      0.160000
     22 H'1         0.8000   -0.5650    3.1760 h1        1 BTP      0.067200
     23 H'2        -0.0180    1.0420    2.9490 h1        1 BTP      0.067200
     24 HS'        -1.5390   -1.0060    4.0260 hs        1 BTP      0.180800
@<TRIPOS>BOND
     1    1    2 1   
     2    1    3 1   
     3    1    4 1   
     4    4    5 1   
     5    4   12 1   
     6    4   14 1   
     7    5    6 1   
     8    5   15 1   
     9    5   16 1   
    10    6    7 ar  
    11    6   11 ar  
    12    7    8 ar  
    13    7   17 1   
    14    8    9 ar  
    15    8   18 1   
    16    9   10 ar  
    17    9   19 1   
    18   10   11 ar  
    19   10   20 1   
    20   11   21 1   
    21   12   13 1   
    22   12   22 1   
    23   12   23 1   
    24   13   24 1   
@<TRIPOS>SUBSTRUCTURE
     1 BTP         1 TEMP              0 ****  ****    0 ROOT
