@<TRIPOS>MOLECULE
BTP
   24    24     1     0     0
SMALL
bcc


@<TRIPOS>ATOM
      1 C1         -0.1960    0.7350    0.1510 c         1 BTP      0.916600
      2 O1         -0.7000    0.9890    1.2810 o         1 BTP     -0.835800
      3 O2         -0.7810    0.9420   -0.9490 o         1 BTP     -0.835800
      4 C2          1.2370    0.1180    0.0820 c3        1 BTP     -0.182700
      5 C3          1.9050    0.0310    1.4470 c3        1 BTP     -0.032100
      6 C1'         1.6680   -1.2720    2.1270 ca        1 BTP     -0.047300
      7 C2'         2.7170   -2.1730    2.3440 ca        1 BTP     -0.129500
      8 C3'         2.4860   -3.3780    3.0070 ca        1 BTP     -0.148000
      9 C4'         1.2060   -3.6960    3.4570 ca        1 BTP     -0.158000
     10 C5'         0.1540   -2.8030    3.2390 ca        1 BTP     -0.148000
     11 C6'         0.3800   -1.5980    2.5790 ca        1 BTP     -0.129500
     12 C'          2.0460    0.9570   -0.8740 c3        1 BTP      0.065700
     13 S'          3.5710    0.1200   -1.3090 sh        1 BTP     -0.467900
     14 H2          1.1120   -0.9130   -0.3460 hc        1 BTP      0.061700
     15 H31         1.4880    0.8530    2.0950 hc        1 BTP      0.052200
     16 H32         3.0110    0.1990    1.3370 hc        1 BTP      0.052200
     17 H2'         3.7270   -1.9310    1.9840 ha        1 BTP      0.160000
     18 H3'         3.3160   -4.0800    3.1710 ha        1 BTP      0.111500
     19 H4'         1.0240   -4.6450    3.9780 ha        1 BTP      0.106000
     20 H5'        -0.8580   -3.0530    3.5880 ha        1 BTP      0.111500
     21 H6'        -0.4400   -0.8760    2.3880 ha        1 BTP      0.160000
     22 H'1         2.3040    1.9400   -0.4150 h1        1 BTP      0.067200
     23 H'2         1.4400    1.1360   -1.7970 h1        1 BTP      0.067200
     24 HS'         3.8730    0.8060   -2.3940 hs        1 BTP      0.180800
@<TRIPOS>BOND
     1    1    2 1   
     2    1    3 1   
     3    1    4 1   
     4    4    5 1   
     5    4   12 1   
     6    4   14 1   
     7    5    6 1   
     8    5   15 1   
     9    5   16 1   
    10    6    7 ar  
    11    6   11 ar  
    12    7    8 ar  
    13    7   17 1   
    14    8    9 ar  
    15    8   18 1   
    16    9   10 ar  
    17    9   19 1   
    18   10   11 ar  
    19   10   20 1   
    20   11   21 1   
    21   12   13 1   
    22   12   22 1   
    23   12   23 1   
    24   13   24 1   
@<TRIPOS>SUBSTRUCTURE
     1 BTP         1 TEMP              0 ****  ****    0 ROOT
