@<TRIPOS>MOLECULE
BTP
   24    24     1     0     0
SMALL
bcc


@<TRIPOS>ATOM
      1 C1         -0.1530    0.7740    0.1410 c         1 BTP      0.916600
      2 O1         -0.7190    0.9680    1.2530 o         1 BTP     -0.835800
      3 O2         -0.6800    1.0290   -0.9770 o         1 BTP     -0.835800
      4 C2          1.2880    0.1710    0.1200 c3        1 BTP     -0.182700
      5 C3          1.8840    0.0250    1.5130 c3        1 BTP     -0.032100
      6 C1'         1.6260   -1.3120    2.1170 ca        1 BTP     -0.047300
      7 C2'         2.6710   -2.2120    2.3480 ca        1 BTP     -0.129500
      8 C3'         2.4190   -3.4500    2.9390 ca        1 BTP     -0.148000
      9 C4'         1.1200   -3.7990    3.3040 ca        1 BTP     -0.158000
     10 C5'         0.0720   -2.9060    3.0730 ca        1 BTP     -0.148000
     11 C6'         0.3190   -1.6700    2.4830 ca        1 BTP     -0.129500
     12 C'          2.1380    1.0600   -0.7520 c3        1 BTP      0.065700
     13 S'          3.6920    0.2560   -1.1440 sh        1 BTP     -0.467900
     14 H2          1.1960   -0.8400   -0.3620 hc        1 BTP      0.061700
     15 H31         2.9920    0.2070    1.4700 hc        1 BTP      0.052200
     16 H32         1.4240    0.8110    2.1750 hc        1 BTP      0.052200
     17 H2'         3.6970   -1.9440    2.0550 ha        1 BTP      0.160000
     18 H3'         3.2470   -4.1510    3.1150 ha        1 BTP      0.111500
     19 H4'         0.9220   -4.7740    3.7690 ha        1 BTP      0.106000
     20 H5'        -0.9540   -3.1810    3.3550 ha        1 BTP      0.111500
     21 H6'        -0.4970   -0.9470    2.2820 ha        1 BTP      0.160000
     22 H'1         2.3620    2.0220   -0.2340 h1        1 BTP      0.067200
     23 H'2         1.5800    1.2780   -1.6960 h1        1 BTP      0.067200
     24 HS'         4.0440    0.9950   -2.1780 hs        1 BTP      0.180800
@<TRIPOS>BOND
     1    1    2 1   
     2    1    3 1   
     3    1    4 1   
     4    4    5 1   
     5    4   12 1   
     6    4   14 1   
     7    5    6 1   
     8    5   15 1   
     9    5   16 1   
    10    6    7 ar  
    11    6   11 ar  
    12    7    8 ar  
    13    7   17 1   
    14    8    9 ar  
    15    8   18 1   
    16    9   10 ar  
    17    9   19 1   
    18   10   11 ar  
    19   10   20 1   
    20   11   21 1   
    21   12   13 1   
    22   12   22 1   
    23   12   23 1   
    24   13   24 1   
@<TRIPOS>SUBSTRUCTURE
     1 BTP         1 TEMP              0 ****  ****    0 ROOT
