@<TRIPOS>MOLECULE
BTP
   24    21     1     0     0
SMALL
bcc


@<TRIPOS>ATOM
      1 C1         -1.4440    1.1550   -1.1850 c1        1 BTP      0.328000
      2 O1         -1.9130    2.2250   -0.7160 o         1 BTP     -0.567000
      3 O2         -2.2170    0.2880   -1.6710 os        1 BTP     -0.577000
      4 C2          0.0490    0.9100   -1.1620 c3        1 BTP     -0.185000
      5 C3          0.5380    0.9090    0.2700 c3        1 BTP     -0.113000
      6 C1'         0.2310   -0.4280    0.9070 c2        1 BTP     -0.042000
      7 C2'         1.0370   -1.5230    0.6400 c2        1 BTP     -0.146000
      8 C3'         0.7980   -2.7310    1.2750 c1        1 BTP     -0.149000
      9 C4'        -0.2470   -2.8440    2.1780 c1        1 BTP     -0.147500
     10 C5'        -1.0530   -1.7490    2.4460 c1        1 BTP     -0.147500
     11 C6'        -0.8140   -0.5410    1.8110 c1        1 BTP     -0.111000
     12 C'          0.7520    2.0030   -1.9340 c3        1 BTP     -0.185000
     13 S'          0.0400    2.1360   -3.5520 sh        1 BTP     -0.197000
     14 H2          0.2430    0.0450   -1.5720 hc        1 BTP      0.098000
     15 H31         1.5030    1.0640    0.2850 hc        1 BTP      0.086500
     16 H32         0.0860    1.6190    0.7690 hc        1 BTP      0.086500
     17 H2'         1.7740   -1.4430    0.0040 ha        1 BTP      0.117000
     18 H3'         1.3660   -3.5020    1.0870 ha        1 BTP      0.108000
     19 H4'        -0.4030   -3.6900    2.6400 ha        1 BTP      0.113500
     20 H5'        -1.7900   -1.8290    3.0820 ha        1 BTP      0.113500
     21 H6'        -1.3950    0.2240    1.9830 ha        1 BTP      0.193000
     22 H'1         1.7030    1.7870   -2.0130 h1        1 BTP      0.088500
     23 H'2         0.6490    2.8540   -1.4620 h1        1 BTP      0.088500
     24 HS'         0.5080    3.0600   -4.1120 hs        1 BTP      0.148000
@<TRIPOS>BOND
     1    1    2 1   
     2    1    4 1   
     3    4    5 1   
     4    4   12 1   
     5    4   14 1   
     6    5    6 1   
     7    5   15 1   
     8    5   16 1   
     9    6    7 1   
    10    6   11 1   
    11    7    8 1   
    12    7   17 1   
    13    8   18 1   
    14    9   10 1   
    15    9   19 1   
    16   10   20 1   
    17   11   21 1   
    18   12   13 1   
    19   12   22 1   
    20   12   23 1   
    21   13   24 1   
@<TRIPOS>SUBSTRUCTURE
     1 BTP         1 TEMP              0 ****  ****    0 ROOT
