@<TRIPOS>MOLECULE
BTQ
   31    32     1     0     0
SMALL
bcc


@<TRIPOS>ATOM
      1 C11         0.0040   -0.1970    0.0020 c         1 BTQ      0.908600
      2 O11         0.9800   -1.0030    0.0190 o         1 BTQ     -0.850800
      3 O12        -0.4010    0.4420    1.0140 o         1 BTQ     -0.850800
      4 C10        -0.7560    0.0060   -1.3220 c3        1 BTQ     -0.196400
      5 C9          0.1970    0.1070   -2.4880 c3        1 BTQ     -0.066400
      6 C8         -0.5270    0.0480   -3.8170 c3        1 BTQ     -0.082400
      7 C7          0.4510    0.1200   -4.9710 c3        1 BTQ     -0.070400
      8 C2         -0.2490    0.0390   -6.3100 c3        1 BTQ     -0.012600
      9 S1         -1.2300    1.5060   -6.5800 ss        1 BTQ     -0.260200
     10 C6         -1.0520    1.5370   -8.3330 c3        1 BTQ     -0.052300
     11 C5          0.2390    0.8190   -8.7000 c3        1 BTQ      0.051700
     12 N1          0.1760   -0.1060   -9.8300 n         1 BTQ     -0.513900
     13 C3          0.4410   -1.4290   -9.3520 c         1 BTQ      0.745500
     14 O3          0.3300   -2.4590  -10.0430 o         1 BTQ     -0.634500
     15 N2          0.9560   -1.3890   -8.0270 n         1 BTQ     -0.518900
     16 C4          0.7440   -0.0560   -7.4710 c3        1 BTQ      0.057700
     17 H101       -1.4390   -0.8710   -1.4590 hc        1 BTQ      0.020700
     18 H102       -1.3870    0.9260   -1.2510 hc        1 BTQ      0.020700
     19 H91         0.9400   -0.7330   -2.4150 hc        1 BTQ      0.047200
     20 H92         0.7740    1.0660   -2.4180 hc        1 BTQ      0.047200
     21 H81        -1.1160   -0.9050   -3.8800 hc        1 BTQ      0.035200
     22 H82        -1.2580    0.8970   -3.8920 hc        1 BTQ      0.035200
     23 H71         1.1820   -0.7300   -4.8930 hc        1 BTQ      0.054700
     24 H72         1.0410    1.0730   -4.9050 hc        1 BTQ      0.054700
     25 H2         -0.9460   -0.8400   -6.3000 h1        1 BTQ      0.077700
     26 H61        -1.9460    1.0730   -8.8170 h1        1 BTQ      0.072700
     27 H62        -1.0150    2.6050   -8.6590 h1        1 BTQ      0.072700
     28 H5          1.0330    1.5810   -8.9440 h1        1 BTQ      0.087700
     29 HN1        -0.6020   -0.0220  -10.4440 hn        1 BTQ      0.302500
     30 HN2         0.7750   -2.1740   -7.4440 hn        1 BTQ      0.321500
     31 H4          1.7480    0.3330   -7.1380 h1        1 BTQ      0.096700
@<TRIPOS>BOND
     1    1    2 1   
     2    1    3 1   
     3    1    4 1   
     4    4    5 1   
     5    4   17 1   
     6    4   18 1   
     7    5    6 1   
     8    5   19 1   
     9    5   20 1   
    10    6    7 1   
    11    6   21 1   
    12    6   22 1   
    13    7    8 1   
    14    7   23 1   
    15    7   24 1   
    16    8    9 1   
    17    8   16 1   
    18    8   25 1   
    19    9   10 1   
    20   10   11 1   
    21   10   26 1   
    22   10   27 1   
    23   11   12 1   
    24   11   16 1   
    25   11   28 1   
    26   12   13 1   
    27   12   29 1   
    28   13   14 2   
    29   13   15 1   
    30   15   16 1   
    31   15   30 1   
    32   16   31 1   
@<TRIPOS>SUBSTRUCTURE
     1 BTQ         1 TEMP              0 ****  ****    0 ROOT
