@<TRIPOS>MOLECULE
BTQ
   31    32     1     0     0
SMALL
bcc


@<TRIPOS>ATOM
      1 C11         0.0070   -0.2410   -0.0000 c         1 BTQ      0.908600
      2 O11         0.9920   -1.0350    0.0100 o         1 BTQ     -0.850800
      3 O12        -0.4060    0.3850    1.0170 o         1 BTQ     -0.850800
      4 C10        -0.7560   -0.0370   -1.3230 c3        1 BTQ     -0.196400
      5 C9          0.1960    0.0860   -2.4870 c3        1 BTQ     -0.066400
      6 C8         -0.5270    0.0280   -3.8170 c3        1 BTQ     -0.082400
      7 C7          0.4500    0.1240   -4.9710 c3        1 BTQ     -0.070400
      8 C2         -0.2480    0.0440   -6.3100 c3        1 BTQ     -0.012600
      9 S1         -1.2510    1.4980   -6.5680 ss        1 BTQ     -0.260200
     10 C6         -1.0740    1.5460   -8.3210 c3        1 BTQ     -0.052300
     11 C5          0.2280    0.8500   -8.6930 c3        1 BTQ      0.051700
     12 N1          0.1780   -0.0670   -9.8310 ns        1 BTQ     -0.513900
     13 C3          0.4640   -1.3900   -9.3640 c         1 BTQ      0.745500
     14 O3          0.3680   -2.4150  -10.0630 o         1 BTQ     -0.634500
     15 N2          0.9770   -1.3530   -8.0380 ns        1 BTQ     -0.518900
     16 C4          0.7450   -0.0280   -7.4710 c3        1 BTQ      0.057700
     17 H101       -1.4270   -0.9210   -1.4670 hc        1 BTQ      0.020700
     18 H102       -1.3990    0.8740   -1.2440 hc        1 BTQ      0.020700
     19 H91         0.9500   -0.7440   -2.4210 hc        1 BTQ      0.047200
     20 H92         0.7600    1.0520   -2.4090 hc        1 BTQ      0.047200
     21 H81        -1.2700    0.8670   -3.8850 hc        1 BTQ      0.035200
     22 H82        -1.1030   -0.9320   -3.8890 hc        1 BTQ      0.035200
     23 H71         1.0260    1.0840   -4.8970 hc        1 BTQ      0.054200
     24 H72         1.1930   -0.7170   -4.8990 hc        1 BTQ      0.054200
     25 H2         -0.9320   -0.8460   -6.3070 h1        1 BTQ      0.077700
     26 H61        -1.0520    2.6170   -8.6380 h1        1 BTQ      0.072200
     27 H62        -1.9610    1.0720   -8.8090 h1        1 BTQ      0.072200
     28 H5          1.0100    1.6260   -8.9310 h1        1 BTQ      0.087700
     29 HN1        -0.6010    0.0110  -10.4440 hn        1 BTQ      0.302500
     30 HN2         0.8080   -2.1450   -7.4620 hn        1 BTQ      0.321500
     31 H4          1.7440    0.3740   -7.1350 h1        1 BTQ      0.096700
@<TRIPOS>BOND
     1    1    2 1   
     2    1    3 1   
     3    1    4 1   
     4    4    5 1   
     5    4   17 1   
     6    4   18 1   
     7    5    6 1   
     8    5   19 1   
     9    5   20 1   
    10    6    7 1   
    11    6   21 1   
    12    6   22 1   
    13    7    8 1   
    14    7   23 1   
    15    7   24 1   
    16    8    9 1   
    17    8   16 1   
    18    8   25 1   
    19    9   10 1   
    20   10   11 1   
    21   10   26 1   
    22   10   27 1   
    23   11   12 1   
    24   11   16 1   
    25   11   28 1   
    26   12   13 1   
    27   12   29 1   
    28   13   14 2   
    29   13   15 1   
    30   15   16 1   
    31   15   30 1   
    32   16   31 1   
@<TRIPOS>SUBSTRUCTURE
     1 BTQ         1 TEMP              0 ****  ****    0 ROOT
