@<TRIPOS>MOLECULE
BTQ
   31    32     1     0     0
SMALL
bcc


@<TRIPOS>ATOM
      1 C11         5.3710    0.4700   -0.1080 c         1 BTQ      0.908600
      2 O11         5.3470    1.6450    0.3610 o         1 BTQ     -0.850800
      3 O12         6.4120   -0.2430   -0.1740 o         1 BTQ     -0.850800
      4 C10         4.0610   -0.1270   -0.6570 c3        1 BTQ     -0.196400
      5 C9          2.8960    0.1940    0.2470 c3        1 BTQ     -0.066400
      6 C8          1.5690   -0.1560   -0.3960 c3        1 BTQ     -0.082400
      7 C7          0.4140    0.2020    0.5170 c3        1 BTQ     -0.070400
      8 C2         -0.9230   -0.1180   -0.1150 c3        1 BTQ     -0.012600
      9 S1         -1.1230   -1.8850   -0.2690 ss        1 BTQ     -0.260200
     10 C6         -2.8740   -1.8990   -0.0700 c3        1 BTQ     -0.052300
     11 C5         -3.2790   -0.6660    0.7250 c3        1 BTQ      0.051700
     12 N1         -4.4480    0.0680    0.2450 n         1 BTQ     -0.513900
     13 C3         -4.0300    1.3750   -0.1630 c         1 BTQ      0.745500
     14 O3         -4.7660    2.1960   -0.7430 o         1 BTQ     -0.634500
     15 N2         -2.7080    1.6410    0.2860 n         1 BTQ     -0.518900
     16 C4         -2.0930    0.3940    0.7290 c3        1 BTQ      0.057700
     17 H101        3.8900    0.3090   -1.6740 hc        1 BTQ      0.020700
     18 H102        4.1760   -1.2330   -0.7710 hc        1 BTQ      0.020700
     19 H91         3.0050   -0.3680    1.2110 hc        1 BTQ      0.047200
     20 H92         2.9270    1.2890    0.4950 hc        1 BTQ      0.047200
     21 H81         1.4670    0.3940   -1.3680 hc        1 BTQ      0.035200
     22 H82         1.5350   -1.2540   -0.6290 hc        1 BTQ      0.035200
     23 H71         0.5180   -0.3480    1.4890 hc        1 BTQ      0.054700
     24 H72         0.4500    1.3000    0.7490 hc        1 BTQ      0.054700
     25 H2         -0.9480    0.3200   -1.1480 h1        1 BTQ      0.077700
     26 H61        -3.3730   -1.9400   -1.0690 h1        1 BTQ      0.072200
     27 H62        -3.1530   -2.8310    0.4800 h1        1 BTQ      0.072200
     28 H5         -3.4940   -0.9640    1.7910 h1        1 BTQ      0.087700
     29 HN1        -5.0540   -0.4040   -0.3870 hn        1 BTQ      0.302500
     30 HN2        -2.1590    2.2670   -0.2580 hn        1 BTQ      0.321500
     31 H4         -1.7480    0.5470    1.7920 h1        1 BTQ      0.096700
@<TRIPOS>BOND
     1    1    2 1   
     2    1    3 1   
     3    1    4 1   
     4    4    5 1   
     5    4   17 1   
     6    4   18 1   
     7    5    6 1   
     8    5   19 1   
     9    5   20 1   
    10    6    7 1   
    11    6   21 1   
    12    6   22 1   
    13    7    8 1   
    14    7   23 1   
    15    7   24 1   
    16    8    9 1   
    17    8   16 1   
    18    8   25 1   
    19    9   10 1   
    20   10   11 1   
    21   10   26 1   
    22   10   27 1   
    23   11   12 1   
    24   11   16 1   
    25   11   28 1   
    26   12   13 1   
    27   12   29 1   
    28   13   14 2   
    29   13   15 1   
    30   15   16 1   
    31   15   30 1   
    32   16   31 1   
@<TRIPOS>SUBSTRUCTURE
     1 BTQ         1 TEMP              0 ****  ****    0 ROOT
