@<TRIPOS>MOLECULE
BTQ
   31    32     1     0     0
SMALL
bcc


@<TRIPOS>ATOM
      1 C11         0.0020   -0.2120    0.0010 c         1 BTQ      0.908600
      2 O11         0.9940   -0.9970    0.0160 o         1 BTQ     -0.850800
      3 O12        -0.4190    0.4140    1.0160 o         1 BTQ     -0.850800
      4 C10        -0.7600   -0.0180   -1.3230 c3        1 BTQ     -0.196400
      5 C9          0.1920    0.1040   -2.4870 c3        1 BTQ     -0.066400
      6 C8         -0.5290    0.0370   -3.8170 c3        1 BTQ     -0.082400
      7 C7          0.4490    0.1290   -4.9710 c3        1 BTQ     -0.070400
      8 C2         -0.2480    0.0400   -6.3100 c3        1 BTQ     -0.012600
      9 S1         -1.2500    1.4920   -6.5790 ss        1 BTQ     -0.260200
     10 C6         -1.0710    1.5300   -8.3320 c3        1 BTQ     -0.052300
     11 C5          0.2310    0.8320   -8.6980 c3        1 BTQ      0.051700
     12 N1          0.1840   -0.0920   -9.8300 n         1 BTQ     -0.513900
     13 C3          0.4690   -1.4120   -9.3540 c         1 BTQ      0.745500
     14 O3          0.3740   -2.4420  -10.0470 o         1 BTQ     -0.634500
     15 N2          0.9810   -1.3670   -8.0280 n         1 BTQ     -0.518900
     16 C4          0.7480   -0.0380   -7.4700 c3        1 BTQ      0.057700
     17 H101       -1.4090    0.8900   -1.2500 hc        1 BTQ      0.020700
     18 H102       -1.4270   -0.9060   -1.4640 hc        1 BTQ      0.020700
     19 H91         0.7510    1.0740   -2.4130 hc        1 BTQ      0.047200
     20 H92         0.9500   -0.7220   -2.4170 hc        1 BTQ      0.047200
     21 H81        -1.2740    0.8740   -3.8920 hc        1 BTQ      0.035200
     22 H82        -1.1020   -0.9250   -3.8840 hc        1 BTQ      0.035200
     23 H71         1.0220    1.0910   -4.9010 hc        1 BTQ      0.054700
     24 H72         1.1940   -0.7090   -4.8940 hc        1 BTQ      0.054700
     25 H2         -0.9310   -0.8500   -6.3030 h1        1 BTQ      0.077700
     26 H61        -1.9570    1.0530   -8.8180 h1        1 BTQ      0.072700
     27 H62        -1.0490    2.5990   -8.6550 h1        1 BTQ      0.072700
     28 H5          1.0140    1.6060   -8.9390 h1        1 BTQ      0.087700
     29 HN1        -0.5950   -0.0190  -10.4440 hn        1 BTQ      0.302500
     30 HN2         0.8120   -2.1550   -7.4470 hn        1 BTQ      0.321500
     31 H4          1.7450    0.3660   -7.1350 h1        1 BTQ      0.096700
@<TRIPOS>BOND
     1    1    2 1   
     2    1    3 1   
     3    1    4 1   
     4    4    5 1   
     5    4   17 1   
     6    4   18 1   
     7    5    6 1   
     8    5   19 1   
     9    5   20 1   
    10    6    7 1   
    11    6   21 1   
    12    6   22 1   
    13    7    8 1   
    14    7   23 1   
    15    7   24 1   
    16    8    9 1   
    17    8   16 1   
    18    8   25 1   
    19    9   10 1   
    20   10   11 1   
    21   10   26 1   
    22   10   27 1   
    23   11   12 1   
    24   11   16 1   
    25   11   28 1   
    26   12   13 1   
    27   12   29 1   
    28   13   14 2   
    29   13   15 1   
    30   15   16 1   
    31   15   30 1   
    32   16   31 1   
@<TRIPOS>SUBSTRUCTURE
     1 BTQ         1 TEMP              0 ****  ****    0 ROOT
