@<TRIPOS>MOLECULE
BTQ
   31    31     1     0     0
SMALL
bcc


@<TRIPOS>ATOM
      1 C11         2.3920    2.7680    3.8380 c1        1 BTQ      0.328000
      2 O11         3.6510    2.7680    3.8380 o         1 BTQ     -0.582000
      3 O12         1.7620    2.7680    4.9280 os        1 BTQ     -0.589000
      4 C10         1.6350    2.7700    2.5280 c3        1 BTQ     -0.224000
      5 C9          1.2810    1.3500    2.1470 c3        1 BTQ     -0.144000
      6 C8          0.6440    1.3390    0.7750 c3        1 BTQ     -0.162000
      7 C7          0.1730   -0.0610    0.4480 c3        1 BTQ     -0.150000
      8 C2         -0.4530   -0.0840   -1.0360 c3        1 BTQ     -0.228000
      9 S1          0.6640   -0.7440   -2.1270 ss        1 BTQ      0.076000
     10 C6          0.5320   -2.1710   -2.0000 c3        1 BTQ     -0.305000
     11 C5         -1.0200   -2.3820   -1.4950 c3        1 BTQ     -0.025000
     12 N1         -1.7690   -2.8300   -2.4740 n         1 BTQ     -0.320000
     13 C3         -2.6840   -1.6650   -2.9410 c2        1 BTQ      0.337000
     14 O3         -3.5110   -1.7180   -3.8290 o         1 BTQ     -0.358000
     15 N2         -2.4580   -0.5180   -2.0270 n         1 BTQ     -0.325000
     16 C4         -1.5730   -0.9240   -1.0710 c3        1 BTQ     -0.019000
     17 H101        2.1930    3.1640    1.8300 hc        1 BTQ      0.060000
     18 H102        0.8180    3.2950    2.6250 hc        1 BTQ      0.060000
     19 H91         2.0900    0.8050    2.1340 hc        1 BTQ      0.085000
     20 H92         0.6530    0.9850    2.8000 hc        1 BTQ      0.085000
     21 H81        -0.1180    1.9500    0.7650 hc        1 BTQ      0.075500
     22 H82         1.2990    1.6260    0.1100 hc        1 BTQ      0.075500
     23 H71        -0.5080   -0.3340    1.0920 hc        1 BTQ      0.088500
     24 H72         0.9280   -0.6770    0.4920 hc        1 BTQ      0.088500
     25 H2         -0.7000    0.8190   -1.3130 h1        1 BTQ      0.129000
     26 H61         0.5930   -2.5440   -2.9000 h1        1 BTQ      0.118000
     27 H62         1.1120   -2.4480   -1.2650 h1        1 BTQ      0.118000
     28 H5         -1.0510   -2.9920   -0.7350 h1        1 BTQ      0.126000
     29 HN1        -1.7040   -3.6510   -2.8660 hn        1 BTQ      0.217000
     30 HN2        -2.8670    0.2960   -2.0720 hn        1 BTQ      0.229000
     31 H4         -2.0030   -0.9600   -0.1960 h1        1 BTQ      0.135000
@<TRIPOS>BOND
     1    1    2 1   
     2    1    4 1   
     3    4    5 1   
     4    4   17 1   
     5    4   18 1   
     6    5    6 1   
     7    5   19 1   
     8    5   20 1   
     9    6    7 1   
    10    6   21 1   
    11    6   22 1   
    12    7    8 1   
    13    7   23 1   
    14    7   24 1   
    15    8    9 1   
    16    8   16 1   
    17    8   25 1   
    18    9   10 1   
    19   10   11 1   
    20   10   26 1   
    21   10   27 1   
    22   11   12 1   
    23   11   16 1   
    24   11   28 1   
    25   12   13 1   
    26   12   29 1   
    27   13   14 1   
    28   13   15 1   
    29   15   16 1   
    30   15   30 1   
    31   16   31 1   
@<TRIPOS>SUBSTRUCTURE
     1 BTQ         1 TEMP              0 ****  ****    0 ROOT
