@<TRIPOS>MOLECULE
BTR
   26    27     1     0     0
SMALL
bcc


@<TRIPOS>ATOM
      1 N           1.6370   -0.0820    4.2980 n3        1 BTR     -0.901800
      2 CA          0.3360    0.4620    3.9260 c3        1 BTR      0.016500
      3 C          -0.7510    0.3580    5.0510 c         1 BTR      0.889600
      4 O          -0.3820   -0.0410    6.1920 o         1 BTR     -0.839800
      5 OXT        -1.9290    0.7010    4.7570 o         1 BTR     -0.839800
      6 CB         -0.2450   -0.1520    2.6500 c3        1 BTR     -0.012200
      7 CG          0.5340    0.1050    1.4320 cc        1 BTR     -0.095400
      8 CD1         1.7620    0.7520    1.3140 cd        1 BTR     -0.094100
      9 NE1         2.1540    0.8190   -0.0330 na        1 BTR     -0.205400
     10 CE2         1.1940    0.1580   -0.8000 ca        1 BTR     -0.057200
     11 CD2         0.1400   -0.2870    0.0900 ca        1 BTR     -0.079800
     12 CE3        -0.9660   -0.9450   -0.4430 ca        1 BTR     -0.075000
     13 CZ3        -1.0280   -1.1720   -1.8120 ca        1 BTR     -0.152000
     14 CH2         0.0050   -0.7430   -2.6640 ca        1 BTR     -0.012900
     15 BR2        -0.1300   -1.0840   -4.5100 br        1 BTR     -0.137100
     16 CZ2         1.1240   -0.0740   -2.1800 ca        1 BTR     -0.131000
     17 H           1.7830    0.1400    5.2710 hn        1 BTR      0.334300
     18 H2          1.5950   -1.0850    4.2420 hn        1 BTR      0.334300
     19 HA          0.4960    1.5650    3.7460 h1        1 BTR      0.041700
     20 HB2        -0.3610   -1.2630    2.7830 hc        1 BTR      0.064200
     21 HB3        -1.2830    0.2740    2.5300 hc        1 BTR      0.064200
     22 HD1         2.3880    1.1840    2.0990 h4        1 BTR      0.191000
     23 HE1         3.0450    1.0850   -0.3540 hn        1 BTR      0.284700
     24 HE3        -1.7780   -1.2760    0.2220 ha        1 BTR      0.147000
     25 HZ3        -1.9010   -1.6930   -2.2330 ha        1 BTR      0.133000
     26 HZ2         1.9260    0.2650   -2.8490 ha        1 BTR      0.133000
@<TRIPOS>BOND
     1    1    2 1   
     2    1   17 1   
     3    1   18 1   
     4    2    3 1   
     5    2    6 1   
     6    2   19 1   
     7    3    4 1   
     8    3    5 1   
     9    6    7 1   
    10    6   20 1   
    11    6   21 1   
    12    7    8 2   
    13    7   11 1   
    14    8    9 1   
    15    8   22 1   
    16    9   10 1   
    17    9   23 1   
    18   10   11 ar  
    19   10   16 ar  
    20   11   12 ar  
    21   12   13 ar  
    22   12   24 1   
    23   13   14 ar  
    24   13   25 1   
    25   14   15 1   
    26   14   16 ar  
    27   16   26 1   
@<TRIPOS>SUBSTRUCTURE
     1 BTR         1 TEMP              0 ****  ****    0 ROOT
