@<TRIPOS>MOLECULE
BTS
   27    28     1     0     0
SMALL
bcc


@<TRIPOS>ATOM
      1 C5         -0.2820    0.0110    0.1990 ca        1 BTS     -0.134000
      2 C4          1.0760    0.0130   -0.0780 ca        1 BTS     -0.088000
      3 C6         -0.7560   -0.0020    1.5200 ca        1 BTS     -0.141000
      4 N3          3.3860    0.0020    0.8810 nc        1 BTS     -0.563100
      5 C2          3.9430   -0.0100    2.0870 cd        1 BTS      0.365100
      6 S1          2.8050   -0.0230    3.4170 ss        1 BTS     -0.048100
      7 C7A         1.5000   -0.0120    2.3440 ca        1 BTS     -0.099100
      8 C3A         1.9900    0.0020    0.9940 ca        1 BTS      0.111400
      9 C7          0.1270   -0.0140    2.5900 ca        1 BTS     -0.088000
     10 S2          5.5640   -0.0150    2.4690 ss        1 BTS     -0.102300
     11 C1          6.4540    0.0010    0.9340 c3        1 BTS     -0.010300
     12 C8          7.9150   -0.0050    1.3130 c3        1 BTS     -0.039400
     13 C9          8.7920    0.0100    0.0950 c3        1 BTS     -0.282600
     14 S3         10.5320    0.0020    0.5170 s6        1 BTS      1.428800
     15 O2         10.7190   -1.1940    1.2470 o         1 BTS     -0.749533
     16 O3         10.7220    1.1770    1.2820 o         1 BTS     -0.749533
     17 O4         11.1790    0.0200   -0.7390 o         1 BTS     -0.749533
     18 H5         -1.0050    0.0190   -0.6300 ha        1 BTS      0.126000
     19 H4          1.4460    0.0230   -1.1130 ha        1 BTS      0.148000
     20 H6         -1.8390   -0.0040    1.7050 ha        1 BTS      0.125000
     21 H7         -0.2490   -0.0240    3.6240 ha        1 BTS      0.131000
     22 H11         6.1980    0.9100    0.3410 h1        1 BTS      0.074700
     23 H12         6.1950   -0.8940    0.3210 h1        1 BTS      0.074700
     24 H81         8.1520    0.8940    1.9460 hc        1 BTS      0.064700
     25 H82         8.1500   -0.9220    1.9220 hc        1 BTS      0.064700
     26 H91         8.5810    0.9160   -0.5200 h1        1 BTS      0.065700
     27 H92         8.5790   -0.8780   -0.5440 h1        1 BTS      0.065700
@<TRIPOS>BOND
     1    1    2 ar  
     2    1    3 ar  
     3    1   18 1   
     4    2    8 ar  
     5    2   19 1   
     6    3    9 ar  
     7    3   20 1   
     8    4    5 2   
     9    4    8 1   
    10    5    6 1   
    11    5   10 1   
    12    6    7 1   
    13    7    8 ar  
    14    7    9 ar  
    15    9   21 1   
    16   10   11 1   
    17   11   12 1   
    18   11   22 1   
    19   11   23 1   
    20   12   13 1   
    21   12   24 1   
    22   12   25 1   
    23   13   14 1   
    24   13   26 1   
    25   13   27 1   
    26   14   15 1   
    27   14   16 1   
    28   14   17 1   
@<TRIPOS>SUBSTRUCTURE
     1 BTS         1 TEMP              0 ****  ****    0 ROOT
