@<TRIPOS>MOLECULE
BTS
   27    23     1     0     0
SMALL
bcc


@<TRIPOS>ATOM
      1 C5         -4.4220    0.5810   -3.4490 c1        1 BTS     -0.137500
      2 C4         -3.0570    0.8510   -3.5870 c1        1 BTS     -0.090000
      3 C6         -4.9320    0.1390   -2.2110 c1        1 BTS     -0.137500
      4 N3         -0.6410    0.8990   -2.3550 n2        1 BTS     -0.120000
      5 C2         -0.2700    0.5740   -1.0190 c1        1 BTS     -0.382000
      6 S1         -1.5420    0.1460   -0.2660 ss        1 BTS      0.395000
      7 C7A        -2.7190    0.2370   -1.2560 c1        1 BTS     -0.328000
      8 C3A        -2.2030    0.6840   -2.5070 c1        1 BTS     -0.032000
      9 C7         -4.0750   -0.0300   -1.1210 c1        1 BTS     -0.085000
     10 S2          1.3070    1.0710   -0.3790 s         1 BTS      0.349000
     11 C1          2.1600   -0.3470    0.2580 c3        1 BTS     -0.311000
     12 C8          2.9980    0.0620    1.4500 c3        1 BTS     -0.110000
     13 C9          2.9690   -1.0390    2.4870 c3        1 BTS     -0.823000
     14 S3          3.8860   -0.5280    3.9160 s4        1 BTS      2.075800
     15 O2          3.6990    0.9460    4.1890 o         1 BTS     -0.679900
     16 O3          3.3180   -1.1340    5.1770 o         1 BTS     -0.679900
     17 O4          5.3460   -0.8740    3.7510 os        1 BTS     -1.072000
     18 H5         -5.0230    0.7020   -4.2090 ha        1 BTS      0.125000
     19 H4         -2.7040    1.1570   -4.4450 ha        1 BTS      0.146000
     20 H6         -5.8850   -0.0490   -2.1160 ha        1 BTS      0.125000
     21 H7         -4.4290   -0.3360   -0.2640 ha        1 BTS      0.133000
     22 H11         2.7410   -0.7180   -0.4370 h1        1 BTS      0.108000
     23 H12         1.5090   -1.0230    0.5340 h1        1 BTS      0.108000
     24 H81         2.6360    0.8840    1.8360 hc        1 BTS      0.106000
     25 H82         3.9200    0.2150    1.1630 hc        1 BTS      0.106000
     26 H91         2.0420   -1.2220    2.7430 h1        1 BTS      0.103000
     27 H92         3.3700   -1.8490    2.1150 h1        1 BTS      0.103000
@<TRIPOS>BOND
     1    1    3 1   
     2    1   18 1   
     3    2    8 1   
     4    2   19 1   
     5    3   20 1   
     6    4    5 1   
     7    4    8 1   
     8    5    6 1   
     9    6    7 1   
    10    7    9 1   
    11    9   21 1   
    12   10   11 1   
    13   11   12 1   
    14   11   22 1   
    15   11   23 1   
    16   12   13 1   
    17   12   24 1   
    18   12   25 1   
    19   13   14 1   
    20   13   26 1   
    21   13   27 1   
    22   14   15 1   
    23   14   16 1   
@<TRIPOS>SUBSTRUCTURE
     1 BTS         1 TEMP              0 ****  ****    0 ROOT
