@<TRIPOS>MOLECULE
BTS
   27    28     1     0     0
SMALL
bcc


@<TRIPOS>ATOM
      1 C5          2.1760    0.0000   -5.5000 ca        1 BTS     -0.134000
      2 C4          2.2090    0.0000   -4.1150 ca        1 BTS     -0.088000
      3 C6          0.9580    0.0000   -6.1980 ca        1 BTS     -0.141000
      4 N3          0.8590    0.0000   -2.0080 nc        1 BTS     -0.563100
      5 C2         -0.4260    0.0000   -1.6720 cd        1 BTS      0.365100
      6 S1         -1.5350    0.0000   -3.0270 ss        1 BTS     -0.048100
      7 C7A        -0.2500    0.0000   -4.1230 ca        1 BTS     -0.099100
      8 C3A         0.9930    0.0000   -3.4020 ca        1 BTS      0.111400
      9 C7         -0.2510    0.0000   -5.5170 ca        1 BTS     -0.088000
     10 S2         -1.0870    0.0000   -0.1440 ss        1 BTS     -0.102300
     11 C1          0.2680    0.0000    1.0020 c3        1 BTS     -0.010300
     12 C8         -0.3620   -0.0000    2.3740 c3        1 BTS     -0.039400
     13 C9          0.6830   -0.0000    3.4510 c3        1 BTS     -0.282600
     14 S3         -0.0390   -0.0000    5.0900 s6        1 BTS      1.428800
     15 O2         -0.8070   -1.1860    5.1440 o         1 BTS     -0.749533
     16 O3         -0.8080    1.1850    5.1440 o         1 BTS     -0.749533
     17 O4          1.0850   -0.0000    5.9480 o         1 BTS     -0.749533
     18 H5          3.1190    0.0000   -6.0660 ha        1 BTS      0.126000
     19 H4          3.1640    0.0000   -3.5680 ha        1 BTS      0.148000
     20 H6          0.9660    0.0000   -7.2980 ha        1 BTS      0.125000
     21 H7         -1.2020    0.0000   -6.0690 ha        1 BTS      0.131000
     22 H11         0.9070    0.9020    0.8550 h1        1 BTS      0.074700
     23 H12         0.9070   -0.9020    0.8550 h1        1 BTS      0.074700
     24 H81        -1.0150   -0.9080    2.4970 hc        1 BTS      0.064700
     25 H82        -1.0150    0.9080    2.4970 hc        1 BTS      0.064700
     26 H91         1.3380    0.8970    3.3530 h1        1 BTS      0.065700
     27 H92         1.3380   -0.8980    3.3530 h1        1 BTS      0.065700
@<TRIPOS>BOND
     1    1    2 ar  
     2    1    3 ar  
     3    1   18 1   
     4    2    8 ar  
     5    2   19 1   
     6    3    9 ar  
     7    3   20 1   
     8    4    5 2   
     9    4    8 1   
    10    5    6 1   
    11    5   10 1   
    12    6    7 1   
    13    7    8 ar  
    14    7    9 ar  
    15    9   21 1   
    16   10   11 1   
    17   11   12 1   
    18   11   22 1   
    19   11   23 1   
    20   12   13 1   
    21   12   24 1   
    22   12   25 1   
    23   13   14 1   
    24   13   26 1   
    25   13   27 1   
    26   14   15 1   
    27   14   16 1   
    28   14   17 1   
@<TRIPOS>SUBSTRUCTURE
     1 BTS         1 TEMP              0 ****  ****    0 ROOT
