@<TRIPOS>MOLECULE
BTS
   27    28     1     0     0
SMALL
bcc


@<TRIPOS>ATOM
      1 C5         -0.2810    0.0000    0.1940 ca        1 BTS     -0.134000
      2 C4          1.0770    0.0010   -0.0810 ca        1 BTS     -0.088000
      3 C6         -0.7560    0.0000    1.5150 ca        1 BTS     -0.141000
      4 N3          3.3860    0.0000    0.8800 nc        1 BTS     -0.563100
      5 C2          3.9420    0.0000    2.0860 cd        1 BTS      0.365100
      6 S1          2.8030   -0.0000    3.4160 ss        1 BTS     -0.048100
      7 C7A         1.4980    0.0000    2.3410 ca        1 BTS     -0.099100
      8 C3A         1.9910    0.0000    0.9920 ca        1 BTS      0.111400
      9 C7          0.1260    0.0000    2.5860 ca        1 BTS     -0.088000
     10 S2          5.5620    0.0000    2.4700 ss        1 BTS     -0.102300
     11 C1          6.4540    0.0000    0.9360 c3        1 BTS     -0.010300
     12 C8          7.9150    0.0000    1.3160 c3        1 BTS     -0.039400
     13 C9          8.7930    0.0000    0.0990 c3        1 BTS     -0.282600
     14 S3         10.5320    0.0000    0.5220 s6        1 BTS      1.428800
     15 O2         10.7200   -1.1860    1.2700 o         1 BTS     -0.749533
     16 O3         10.7200    1.1860    1.2700 o         1 BTS     -0.749533
     17 O4         11.1810   -0.0000   -0.7340 o         1 BTS     -0.749533
     18 H5         -1.0040    0.0010   -0.6360 ha        1 BTS      0.126000
     19 H4          1.4480    0.0010   -1.1170 ha        1 BTS      0.148000
     20 H6         -1.8400    0.0000    1.6990 ha        1 BTS      0.125000
     21 H7         -0.2510   -0.0000    3.6190 ha        1 BTS      0.131000
     22 H11         6.1970    0.9030    0.3320 h1        1 BTS      0.074700
     23 H12         6.1970   -0.9020    0.3320 h1        1 BTS      0.074700
     24 H81         8.1500    0.9080    1.9370 hc        1 BTS      0.064700
     25 H82         8.1500   -0.9080    1.9370 hc        1 BTS      0.064700
     26 H91         8.5810    0.8970   -0.5290 h1        1 BTS      0.065700
     27 H92         8.5810   -0.8970   -0.5290 h1        1 BTS      0.065700
@<TRIPOS>BOND
     1    1    2 ar  
     2    1    3 ar  
     3    1   18 1   
     4    2    8 ar  
     5    2   19 1   
     6    3    9 ar  
     7    3   20 1   
     8    4    5 2   
     9    4    8 1   
    10    5    6 1   
    11    5   10 1   
    12    6    7 1   
    13    7    8 ar  
    14    7    9 ar  
    15    9   21 1   
    16   10   11 1   
    17   11   12 1   
    18   11   22 1   
    19   11   23 1   
    20   12   13 1   
    21   12   24 1   
    22   12   25 1   
    23   13   14 1   
    24   13   26 1   
    25   13   27 1   
    26   14   15 1   
    27   14   16 1   
    28   14   17 1   
@<TRIPOS>SUBSTRUCTURE
     1 BTS         1 TEMP              0 ****  ****    0 ROOT
