@<TRIPOS>MOLECULE
BTT
   16    16     1     0     0
SMALL
bcc


@<TRIPOS>ATOM
      1 C1          0.5430   -0.0570    1.1990 ca        1 BTT      0.077600
      2 C2         -0.8680   -0.0180    1.2050 ca        1 BTT      0.077600
      3 C3         -1.5810   -0.0590    0.0020 ca        1 BTT     -0.174500
      4 C4         -0.8750   -0.1390   -1.2040 ca        1 BTT      0.077600
      5 C5          0.5350   -0.1780   -1.2030 ca        1 BTT      0.077600
      6 C6          1.2500   -0.1370   -0.0030 ca        1 BTT     -0.174500
      7 O1          1.1580   -0.0120    2.4350 oh        1 BTT     -0.502100
      8 O2         -1.6030    0.0610    2.3640 oh        1 BTT     -0.502100
      9 O4         -1.6180   -0.1770   -2.3600 oh        1 BTT     -0.502100
     10 O5          1.1420   -0.2580   -2.4410 oh        1 BTT     -0.502100
     11 H3         -2.6800   -0.0280    0.0040 ha        1 BTT      0.157000
     12 H6          2.3480   -0.1680   -0.0050 ha        1 BTT      0.157000
     13 HO1         2.1140   -0.0450    2.2910 ho        1 BTT      0.433000
     14 HO2        -0.9840    0.0820    3.1100 ho        1 BTT      0.433000
     15 HO4        -1.0040   -0.2320   -3.1090 ho        1 BTT      0.433000
     16 HO5         2.0990   -0.2770   -2.3010 ho        1 BTT      0.433000
@<TRIPOS>BOND
     1    1    2 ar  
     2    1    6 ar  
     3    1    7 1   
     4    2    3 ar  
     5    2    8 1   
     6    3    4 ar  
     7    3   11 1   
     8    4    5 ar  
     9    4    9 1   
    10    5    6 ar  
    11    5   10 1   
    12    6   12 1   
    13    7   13 1   
    14    8   14 1   
    15    9   15 1   
    16   10   16 1   
@<TRIPOS>SUBSTRUCTURE
     1 BTT         1 TEMP              0 ****  ****    0 ROOT
