@<TRIPOS>MOLECULE
BTT
   16    13     1     0     0
SMALL
bcc


@<TRIPOS>ATOM
      1 C1         -0.6930   -0.0000   -1.2000 c1        1 BTT      0.062100
      2 C2          0.6930   -0.0000   -1.2000 c1        1 BTT      0.062100
      3 C3          1.3860   -0.0000    0.0000 c1        1 BTT     -0.118500
      4 C4          0.6930   -0.0000    1.2000 c1        1 BTT      0.062100
      5 C5         -0.6930   -0.0000    1.2000 c1        1 BTT      0.062100
      6 C6         -1.3860   -0.0000   -0.0000 c1        1 BTT     -0.118500
      7 O1         -1.3960    0.0240   -2.4190 oh        1 BTT     -0.488100
      8 O2          1.3960   -0.0240   -2.4180 oh        1 BTT     -0.488100
      9 O4          1.3960   -0.0240    2.4180 oh        1 BTT     -0.488100
     10 O5         -1.3960    0.0240    2.4180 oh        1 BTT     -0.488100
     11 H3          2.3620   -0.0000    0.0000 ha        1 BTT      0.100500
     12 H6         -2.3620   -0.0000   -0.0000 ha        1 BTT      0.100500
     13 HO1        -1.7740   -0.7670   -2.5580 ho        1 BTT      0.435500
     14 HO2         1.7740    0.7670   -2.5580 ho        1 BTT      0.435500
     15 HO4         1.7740    0.7670    2.5580 ho        1 BTT      0.435500
     16 HO5        -1.7740   -0.7670    2.5580 ho        1 BTT      0.435500
@<TRIPOS>BOND
     1    1    6 3   
     2    1    7 1   
     3    2    3 3   
     4    2    8 1   
     5    3   11 1   
     6    4    5 3   
     7    4    9 1   
     8    5   10 1   
     9    6   12 1   
    10    7   13 1   
    11    8   14 1   
    12    9   15 1   
    13   10   16 1   
@<TRIPOS>SUBSTRUCTURE
     1 BTT         1 TEMP              0 ****  ****    0 ROOT
