@<TRIPOS>MOLECULE
BTT
   16    16     1     0     0
SMALL
bcc


@<TRIPOS>ATOM
      1 C1          0.1230    0.0410    0.0200 ca        1 BTT      0.091850
      2 C2          1.5300   -0.0040    0.0770 ca        1 BTT      0.091850
      3 C3          2.1830    0.0540    1.3150 ca        1 BTT     -0.207500
      4 C4          1.4290    0.1570    2.4860 ca        1 BTT      0.091850
      5 C5          0.0150    0.2020    2.4250 ca        1 BTT      0.091850
      6 C6         -0.6350    0.1440    1.1900 ca        1 BTT     -0.207500
      7 O1         -0.4390   -0.0220   -1.2400 oh        1 BTT     -0.487600
      8 O2          2.3210   -0.1050   -1.0430 oh        1 BTT     -0.487600
      9 O4          2.0000    0.2190    3.7350 oh        1 BTT     -0.487600
     10 O5         -0.6580    0.3040    3.6200 oh        1 BTT     -0.487600
     11 H3          3.2810    0.0180    1.3480 ha        1 BTT      0.149500
     12 H6         -1.7320    0.1790    1.1390 ha        1 BTT      0.149500
     13 HO1        -1.4000    0.0190   -1.1380 ho        1 BTT      0.424750
     14 HO2         1.7380   -0.1350   -1.8170 ho        1 BTT      0.424750
     15 HO4         2.9620    0.1780    3.6190 ho        1 BTT      0.424750
     16 HO5        -1.6060    0.3230    3.4210 ho        1 BTT      0.424750
@<TRIPOS>BOND
     1    1    2 ar  
     2    1    6 ar  
     3    1    7 1   
     4    2    3 ar  
     5    2    8 1   
     6    3    4 ar  
     7    3   11 1   
     8    4    5 ar  
     9    4    9 1   
    10    5    6 ar  
    11    5   10 1   
    12    6   12 1   
    13    7   13 1   
    14    8   14 1   
    15    9   15 1   
    16   10   16 1   
@<TRIPOS>SUBSTRUCTURE
     1 BTT         1 TEMP              0 ****  ****    0 ROOT
