@<TRIPOS>MOLECULE
BTT
   16    16     1     0     0
SMALL
bcc


@<TRIPOS>ATOM
      1 C1          0.1280    0.0370    0.0180 ca        1 BTT      0.091850
      2 C2          1.5330   -0.0450    0.0840 ca        1 BTT      0.091850
      3 C3          2.1800    0.0160    1.3250 ca        1 BTT     -0.207500
      4 C4          1.4230    0.1590    2.4900 ca        1 BTT      0.091850
      5 C5          0.0110    0.2410    2.4190 ca        1 BTT      0.091850
      6 C6         -0.6330    0.1800    1.1810 ca        1 BTT     -0.207500
      7 O1         -0.4270   -0.0310   -1.2450 oh        1 BTT     -0.487600
      8 O2          2.3280   -0.1850   -1.0290 oh        1 BTT     -0.487600
      9 O4          1.9880    0.2260    3.7410 oh        1 BTT     -0.487600
     10 O5         -0.6660    0.3800    3.6080 oh        1 BTT     -0.487600
     11 H3          3.2770   -0.0490    1.3650 ha        1 BTT      0.149500
     12 H6         -1.7290    0.2430    1.1230 ha        1 BTT      0.149500
     13 HO1        -1.3880    0.0360   -1.1490 ho        1 BTT      0.424750
     14 HO2         1.7480   -0.2130   -1.8070 ho        1 BTT      0.424750
     15 HO4         2.9490    0.1570    3.6310 ho        1 BTT      0.424750
     16 HO5        -1.6120    0.4220    3.4030 ho        1 BTT      0.424750
@<TRIPOS>BOND
     1    1    2 ar  
     2    1    6 ar  
     3    1    7 1   
     4    2    3 ar  
     5    2    8 1   
     6    3    4 ar  
     7    3   11 1   
     8    4    5 ar  
     9    4    9 1   
    10    5    6 ar  
    11    5   10 1   
    12    6   12 1   
    13    7   13 1   
    14    8   14 1   
    15    9   15 1   
    16   10   16 1   
@<TRIPOS>SUBSTRUCTURE
     1 BTT         1 TEMP              0 ****  ****    0 ROOT
