@<TRIPOS>MOLECULE
BTU
   45    46     1     0     0
SMALL
bcc


@<TRIPOS>ATOM
      1 C1         -1.1960   -1.0040    1.1240 c3        1 BTU      0.299900
      2 O1         -0.0180   -0.8780    0.3420 os        1 BTU     -0.431600
      3 C2         -2.1500   -1.9140    0.3260 c3        1 BTU      0.097100
      4 O2         -1.5270   -3.1330   -0.0190 oh        1 BTU     -0.592800
      5 C3         -2.6560   -1.1960   -0.9330 c3        1 BTU      0.073100
      6 O3         -3.7200   -1.9150   -1.5360 oh        1 BTU     -0.607800
      7 C4         -3.2140    0.1860   -0.5610 c3        1 BTU      0.128100
      8 O4         -3.5880    0.9120   -1.7180 oh        1 BTU     -0.596800
      9 C5         -2.1090    0.9870    0.1480 c3        1 BTU      0.133100
     10 O5         -1.6980    0.2940    1.3350 os        1 BTU     -0.431600
     11 C6         -2.6350    2.3460    0.6110 c3        1 BTU      0.134400
     12 O6         -1.5070    3.1980    0.7430 oh        1 BTU     -0.619800
     13 OAG         2.4690   -1.5410    2.4770 oh        1 BTU     -0.593800
     14 OAH         1.1830    0.7470   -1.1730 oh        1 BTU     -0.600800
     15 CAK         1.4070    2.2810    0.7170 c3        1 BTU      0.114400
     16 OAN         3.0690    0.6750    0.0380 os        1 BTU     -0.442600
     17 CAR         2.2310   -1.3180    1.1000 c3        1 BTU      0.099100
     18 CAT         3.4330   -0.6650    0.3970 c3        1 BTU      0.070100
     19 CAV         1.0840   -0.2820    1.0090 c3        1 BTU      0.147100
     20 CAW         1.6570    0.8710    0.1430 c3        1 BTU      0.292600
     21 H1         -0.9860   -1.4110    2.1520 h2        1 BTU      0.098700
     22 H2         -3.0170   -2.2070    0.9830 h1        1 BTU      0.101700
     23 HO2        -0.7070   -2.9180   -0.4860 ho        1 BTU      0.422000
     24 H3         -1.8120   -1.0830   -1.6710 h1        1 BTU      0.073700
     25 HO3        -3.4210   -2.8310   -1.6210 ho        1 BTU      0.424000
     26 H4         -4.1070    0.0640    0.1120 h1        1 BTU      0.056700
     27 HO4        -4.1450    0.3210   -2.2440 ho        1 BTU      0.427000
     28 H5         -1.2160    1.1140   -0.5300 h1        1 BTU      0.096700
     29 H6         -3.3370    2.7490   -0.1680 h1        1 BTU      0.051700
     30 H6A        -3.1600    2.2500    1.5970 h1        1 BTU      0.051700
     31 HO6        -1.8400    4.0650    0.9980 ho        1 BTU      0.412000
     32 HOAB        4.8190    0.0750   -1.5930 ho        1 BTU      0.415000
     33 HOAC        0.1980    3.0600   -0.5730 ho        1 BTU      0.423000
     34 HOAG        3.2190   -2.1460    2.5390 ho        1 BTU      0.411000
     35 HAK         2.3430    2.6670    1.2020 h1        1 BTU      0.076200
     36 HAKA        0.5590    2.2480    1.4500 h1        1 BTU      0.076200
     37 HAR         1.9360   -2.2800    0.5990 h1        1 BTU      0.066700
     38 HAT         4.3160   -0.5610    1.0850 h1        1 BTU      0.084700
     39 HAV         0.8030    0.0960    2.0280 h1        1 BTU      0.098700
     40 HOAH        1.5870    1.4640   -1.6860 ho        1 BTU      0.430000
     41 OAC         1.1290    3.1770   -0.3360 oh        1 BTU     -0.601800
     42 CAJ         3.8290   -1.4170   -0.8750 c3        1 BTU      0.116400
     43 HAJ         2.9810   -1.3830   -1.6110 h1        1 BTU      0.055200
     44 OAB         4.9950   -0.8640   -1.4470 oh        1 BTU     -0.596800
     45 HAJA        4.0960   -2.4790   -0.6370 h1        1 BTU      0.055200
@<TRIPOS>BOND
     1    1    2 1   
     2    1    3 1   
     3    1   10 1   
     4    1   21 1   
     5    2   19 1   
     6    3    4 1   
     7    3    5 1   
     8    3   22 1   
     9    4   23 1   
    10    5    6 1   
    11    5    7 1   
    12    5   24 1   
    13    6   25 1   
    14    7    8 1   
    15    7    9 1   
    16    7   26 1   
    17    8   27 1   
    18    9   10 1   
    19    9   11 1   
    20    9   28 1   
    21   11   12 1   
    22   11   29 1   
    23   11   30 1   
    24   12   31 1   
    25   13   17 1   
    26   13   34 1   
    27   14   20 1   
    28   14   40 1   
    29   15   20 1   
    30   15   35 1   
    31   15   36 1   
    32   15   41 1   
    33   16   18 1   
    34   16   20 1   
    35   17   18 1   
    36   17   19 1   
    37   17   37 1   
    38   18   38 1   
    39   18   42 1   
    40   19   20 1   
    41   19   39 1   
    42   32   44 1   
    43   33   41 1   
    44   42   43 1   
    45   42   44 1   
    46   42   45 1   
@<TRIPOS>SUBSTRUCTURE
     1 BTU         1 TEMP              0 ****  ****    0 ROOT
