@<TRIPOS>MOLECULE
BTU
   45    43     1     0     0
SMALL
bcc


@<TRIPOS>ATOM
      1 C1          1.4490    2.3170    1.4940 c1        1 BTU     -0.200000
      2 O1         -1.6730   -0.1010    0.2030 oh        1 BTU     -0.328000
      3 C2          1.2270   -2.2280    1.3680 c2        1 BTU     -0.106500
      4 O2          0.6220   -2.0500    0.1390 oh        1 BTU     -0.288500
      5 C3          2.5340   -1.9280    1.4910 c2        1 BTU     -0.106500
      6 O3          3.3050   -1.3930    0.4870 oh        1 BTU     -0.288500
      7 C4          2.6500    1.8040    1.2630 c2        1 BTU     -0.058000
      8 O4          3.6920    2.6430    0.9390 oh        1 BTU     -0.235000
      9 C5         -0.0210    1.5070    3.1010 c2        1 BTU     -0.253000
     10 O5          0.2600    1.9150    1.8790 os        1 BTU      0.119000
     11 C6         -1.4120    1.7340    3.5660 c3        1 BTU      0.015000
     12 O6         -2.3700    1.5920    2.5320 oh        1 BTU     -0.351000
     13 OAG        -3.6160   -1.3480   -2.2230 oh        1 BTU     -0.314000
     14 OAH        -1.8500   -2.0140    1.8810 oh        1 BTU     -0.357000
     15 CAK        -4.2350   -1.5690    2.1460 c3        1 BTU     -0.039000
     16 OAN        -3.2960   -3.1670    0.6120 os        1 BTU     -0.299000
     17 CAR        -2.6840   -1.7270   -1.2300 c3        1 BTU      0.004000
     18 CAT        -3.0190   -3.1670   -0.8000 c3        1 BTU     -0.010000
     19 CAV        -2.8500   -0.8640    0.0450 c3        1 BTU     -0.012000
     20 CAW        -3.0710   -1.8860    1.1870 c3        1 BTU      0.124000
     21 H1         -1.5860    0.1240    1.1430 ho        1 BTU      0.235000
     22 H2          0.6030   -2.6360    2.1720 h4        1 BTU      0.156000
     23 HO2        -0.2830   -1.7380    0.3160 ho        1 BTU      0.236000
     24 H3          3.1370   -2.0950    2.3940 h4        1 BTU      0.156000
     25 HO3         2.7650   -1.3420   -0.3180 ho        1 BTU      0.236000
     26 H4          2.8710    0.7180    1.2840 h4        1 BTU      0.151000
     27 HO4         4.2010    2.1880    0.2500 ho        1 BTU      0.217000
     28 H5          0.7680    1.2080    3.7980 h4        1 BTU      0.158000
     29 H6         -1.5030    2.7540    4.0330 h1        1 BTU      0.109000
     30 H6A        -1.6850    0.9460    4.3220 h1        1 BTU      0.109000
     31 HO6        -2.1600    2.2390    1.8450 ho        1 BTU      0.225000
     32 HOAB       -2.4430   -5.4100    0.2530 ho        1 BTU      0.209000
     33 HOAC       -3.2720   -0.2940    3.2350 ho        1 BTU      0.220000
     34 HOAG       -3.3160   -0.5010   -2.5750 ho        1 BTU      0.213000
     35 HAK        -4.8110   -2.5060    2.3730 h1        1 BTU      0.112500
     36 HAKA       -4.9150   -0.8020    1.6950 h1        1 BTU      0.112500
     37 HAR        -1.6310   -1.6450   -1.6160 h1        1 BTU      0.119000
     38 HAT        -3.9590   -3.5340   -1.2980 h1        1 BTU      0.140000
     39 HAV        -3.7340   -0.1770   -0.0450 h1        1 BTU      0.111000
     40 HOAH       -2.0170   -2.5460    2.6720 ho        1 BTU      0.237000
     41 OAC        -3.7240   -1.1370    3.3860 oh        1 BTU     -0.329000
     42 CAJ        -1.8580   -4.1250   -1.0630 c3        1 BTU     -0.034000
     43 HAJ        -0.9380   -3.7800   -0.5150 h1        1 BTU      0.102000
     44 OAB        -2.1920   -5.4420   -0.6800 oh        1 BTU     -0.320000
     45 HAJA       -1.6520   -4.1840   -2.1640 h1        1 BTU      0.102000
@<TRIPOS>BOND
     1    1    7 1   
     2    1   10 1   
     3    2   19 1   
     4    2   21 1   
     5    3    4 1   
     6    3    5 1   
     7    3   22 1   
     8    4   23 1   
     9    5    6 1   
    10    5   24 1   
    11    6   25 1   
    12    7    8 1   
    13    7   26 1   
    14    8   27 1   
    15    9   10 1   
    16    9   11 1   
    17    9   28 1   
    18   11   12 1   
    19   11   29 1   
    20   11   30 1   
    21   12   31 1   
    22   13   17 1   
    23   13   34 1   
    24   14   20 1   
    25   14   40 1   
    26   15   20 1   
    27   15   35 1   
    28   15   36 1   
    29   15   41 1   
    30   16   18 1   
    31   16   20 1   
    32   17   18 1   
    33   17   19 1   
    34   17   37 1   
    35   18   38 1   
    36   18   42 1   
    37   19   20 1   
    38   19   39 1   
    39   32   44 1   
    40   33   41 1   
    41   42   43 1   
    42   42   44 1   
    43   42   45 1   
@<TRIPOS>SUBSTRUCTURE
     1 BTU         1 TEMP              0 ****  ****    0 ROOT
