@<TRIPOS>MOLECULE
BTU
   45    46     1     0     0
SMALL
bcc


@<TRIPOS>ATOM
      1 C1          0.6320    1.1980   -0.4620 c3        1 BTU      0.323900
      2 O1          0.2290   -0.0570   -0.0380 os        1 BTU     -0.402600
      3 C2          2.1390    1.2430   -0.4920 c3        1 BTU      0.128100
      4 O2          2.6270    0.1100   -1.2480 oh        1 BTU     -0.601800
      5 C3          2.7310    1.2030    0.8720 c3        1 BTU      0.109100
      6 O3          4.1630    1.4310    0.7700 oh        1 BTU     -0.611800
      7 C4          2.1400    2.2390    1.7780 c3        1 BTU      0.092100
      8 O4          2.6250    2.0210    3.1080 oh        1 BTU     -0.610800
      9 C5          0.6270    2.1930    1.7970 c3        1 BTU      0.073100
     10 O5          0.0460    2.2280    0.4500 os        1 BTU     -0.424600
     11 C6          0.1120    3.3760    2.5830 c3        1 BTU      0.125400
     12 O6          0.0220    3.0290    3.9510 oh        1 BTU     -0.604800
     13 OAB        -2.0190   -4.7130   -2.8100 oh        1 BTU     -0.596800
     14 OAC        -4.1410   -1.4860    0.4290 oh        1 BTU     -0.596800
     15 OAG        -0.0550   -0.7670   -3.0280 oh        1 BTU     -0.597800
     16 OAH        -1.4220   -1.6000    1.2050 oh        1 BTU     -0.578800
     17 CAJ        -0.9730   -3.8190   -2.4850 c3        1 BTU      0.115400
     18 CAK        -3.0990   -0.6310   -0.0150 c3        1 BTU      0.112400
     19 OAN        -2.1380   -2.6800   -0.8450 os        1 BTU     -0.463600
     20 CAR        -0.3800   -1.4220   -1.7740 c3        1 BTU      0.078100
     21 CAT        -1.5590   -2.5130   -2.0050 c3        1 BTU      0.078100
     22 CAV        -0.8530   -0.5550   -0.9240 c3        1 BTU      0.147100
     23 CAW        -1.9150   -1.3460   -0.0900 c3        1 BTU      0.301600
     24 H1          0.2940    1.3490   -1.3670 h2        1 BTU      0.106700
     25 H2          2.4220    2.0670   -0.9360 h1        1 BTU      0.064700
     26 HO2         3.3730    0.3340   -1.6660 ho        1 BTU      0.431000
     27 H3          2.5770    0.3160    1.2600 h1        1 BTU      0.085700
     28 HO3         4.6000    0.7920    1.2190 ho        1 BTU      0.430000
     29 H4          2.4250    3.1230    1.4780 h1        1 BTU      0.056700
     30 HO4         3.2900    2.5790    3.2740 ho        1 BTU      0.431000
     31 H5          0.3410    1.3660    2.2430 h1        1 BTU      0.076700
     32 H6          0.7290    4.1340    2.4770 h1        1 BTU      0.064200
     33 H6A        -0.7830    3.6300    2.2490 h1        1 BTU      0.064200
     34 HO6        -0.5170    3.6270    4.3810 ho        1 BTU      0.409000
     35 HOAB       -1.6750   -5.5000   -3.0470 ho        1 BTU      0.410000
     36 HOAC       -4.9000   -1.0150    0.5100 ho        1 BTU      0.417000
     37 HOAG        0.3780   -1.3440   -3.5630 ho        1 BTU      0.412000
     38 HOAH       -1.8760   -2.2700    1.5680 ho        1 BTU      0.423000
     39 HAJ        -0.4190   -4.2070   -1.7790 h1        1 BTU      0.060700
     40 HAJA       -0.4200   -3.6560   -3.2840 h1        1 BTU      0.060700
     41 HAK        -2.9920    0.1120    0.6210 h1        1 BTU      0.068200
     42 HAKA       -3.3230   -0.2730   -0.9010 h1        1 BTU      0.068200
     43 HAR         0.4170   -1.8590   -1.4040 h1        1 BTU      0.096700
     44 HAT        -2.2090   -2.1740   -2.6600 h1        1 BTU      0.084700
     45 HAV        -1.2760    0.1860   -1.3950 h1        1 BTU      0.082700
@<TRIPOS>BOND
     1    1    2 1   
     2    1    3 1   
     3    1   10 1   
     4    1   24 1   
     5    2   22 1   
     6    3    4 1   
     7    3    5 1   
     8    3   25 1   
     9    4   26 1   
    10    5    6 1   
    11    5    7 1   
    12    5   27 1   
    13    6   28 1   
    14    7    8 1   
    15    7    9 1   
    16    7   29 1   
    17    8   30 1   
    18    9   10 1   
    19    9   11 1   
    20    9   31 1   
    21   11   12 1   
    22   11   32 1   
    23   11   33 1   
    24   12   34 1   
    25   13   17 1   
    26   13   35 1   
    27   14   18 1   
    28   14   36 1   
    29   15   20 1   
    30   15   37 1   
    31   16   23 1   
    32   16   38 1   
    33   17   21 1   
    34   17   39 1   
    35   17   40 1   
    36   18   23 1   
    37   18   41 1   
    38   18   42 1   
    39   19   21 1   
    40   19   23 1   
    41   20   21 1   
    42   20   22 1   
    43   20   43 1   
    44   21   44 1   
    45   22   23 1   
    46   22   45 1   
@<TRIPOS>SUBSTRUCTURE
     1 BTU         1 TEMP              0 ****  ****    0 ROOT
