@<TRIPOS>MOLECULE
BTU
   45    41     1     0     0
SMALL
bcc


@<TRIPOS>ATOM
      1 C1          2.8360    1.5000    0.0410 c1        1 BTU     -0.037000
      2 O1         -1.8650   -1.1080   -0.3370 oh        1 BTU     -0.357000
      3 C2          2.1650    0.9850   -1.1790 c3        1 BTU     -0.116000
      4 O2          3.1030    0.6620   -2.1880 oh        1 BTU     -0.311000
      5 C3          0.8760   -1.2960    1.2080 c1        1 BTU     -0.016000
      6 O3          1.8820   -1.9700    0.7870 oh        1 BTU     -0.125000
      7 C4          1.0380   -0.2090    2.2400 c3        1 BTU     -0.078000
      8 O4          0.0310   -0.3250    3.2280 oh        1 BTU     -0.310000
      9 C5          0.9520    1.1580    1.5360 c3        1 BTU     -0.154000
     10 O5          2.3200    1.5680    1.2040 os        1 BTU     -0.080000
     11 C6          0.4130    2.2510    2.4650 c3        1 BTU      0.002000
     12 O6         -0.9950    2.2060    2.5140 oh        1 BTU     -0.333000
     13 OAG        -0.6900    0.9130   -1.3580 oh        1 BTU     -0.415500
     14 OAH        -2.4290   -2.1550    2.6040 oh        1 BTU     -0.296000
     15 CAK        -3.2770    0.0130    2.3630 c2        1 BTU      0.003000
     16 OAN        -4.0880   -4.7180    2.9180 oh        1 BTU     -0.415500
     17 CAR        -3.4760   -2.8070    0.0470 c1        1 BTU     -0.151000
     18 CAT        -3.8120   -3.9350   -0.1720 c1        1 BTU     -0.198000
     19 CAV        -3.0820   -1.4390    0.3180 c3        1 BTU      0.192000
     20 CAW        -2.9820   -1.1780    1.7940 c2        1 BTU     -0.174000
     21 H1         -1.1250   -1.5010    0.1590 ho        1 BTU      0.251000
     22 H2          1.4380    1.7590   -1.5670 h1        1 BTU      0.123500
     23 HO2         3.7840    1.3470   -2.1800 ho        1 BTU      0.213000
     24 H3          1.5930    0.0280   -1.0000 h1        1 BTU      0.123500
     25 HO3         2.7600   -1.7490    1.1770 ho        1 BTU      0.179000
     26 H4          2.0070   -0.2670    2.8200 h1        1 BTU      0.119000
     27 HO4        -0.7780   -0.6340    2.7890 ho        1 BTU      0.230000
     28 H5          0.3200    1.0980    0.6060 h1        1 BTU      0.148000
     29 H6          0.6640    3.2600    2.0380 h1        1 BTU      0.101000
     30 H6A         0.8660    2.1430    3.4840 h1        1 BTU      0.101000
     31 HO6        -1.2470    1.5280    3.1570 ho        1 BTU      0.219000
     32 HOAB       -2.9280   -6.1510    0.7730 ho        1 BTU      0.212000
     33 HOAC       -2.8390   -0.5460    4.1450 ho        1 BTU      0.238000
     34 HOAG       -1.5330    0.9510   -0.8950 ho        1 BTU      0.207750
     35 HAK        -3.7250   -5.6080    2.9520 ho        1 BTU      0.207750
     36 HAKA       -3.6260    0.9110    1.8290 h4        1 BTU      0.185000
     37 HAR        -0.7090    0.0560   -1.7970 ho        1 BTU      0.207750
     38 HAT        -4.7030   -4.7560    2.1770 ho        1 BTU      0.207750
     39 HAV        -3.8400   -0.7370   -0.1480 h1        1 BTU      0.131000
     40 HOAH       -2.9870   -2.9500    2.5290 ho        1 BTU      0.250000
     41 OAC        -3.0960    0.2750    3.6910 oh        1 BTU     -0.255000
     42 CAJ        -4.2150   -5.2970   -0.4080 c3        1 BTU      0.083000
     43 HAJ        -3.7390   -5.6860   -1.3520 h1        1 BTU      0.112500
     44 OAB        -3.8890   -6.1440    0.6860 oh        1 BTU     -0.338000
     45 HAJA       -5.3370   -5.3740   -0.4950 h1        1 BTU      0.112500
@<TRIPOS>BOND
     1    1    3 1   
     2    1   10 1   
     3    2   19 1   
     4    2   21 1   
     5    3    4 1   
     6    3   22 1   
     7    3   24 1   
     8    4   23 1   
     9    5    6 1   
    10    5    7 1   
    11    6   25 1   
    12    7    8 1   
    13    7    9 1   
    14    7   26 1   
    15    8   27 1   
    16    9   10 1   
    17    9   11 1   
    18    9   28 1   
    19   11   12 1   
    20   11   29 1   
    21   11   30 1   
    22   12   31 1   
    23   13   34 1   
    24   13   37 1   
    25   14   20 1   
    26   14   40 1   
    27   15   20 1   
    28   15   36 1   
    29   15   41 1   
    30   16   35 1   
    31   16   38 1   
    32   17   18 1   
    33   17   19 1   
    34   18   42 1   
    35   19   20 1   
    36   19   39 1   
    37   32   44 1   
    38   33   41 1   
    39   42   43 1   
    40   42   44 1   
    41   42   45 1   
@<TRIPOS>SUBSTRUCTURE
     1 BTU         1 TEMP              0 ****  ****    0 ROOT
