@<TRIPOS>MOLECULE
BTW
   27    27     1     0     0
SMALL
bcc


@<TRIPOS>ATOM
      1 C1          0.0360    0.0390   -0.0530 c3        1 BTW     -0.032100
      2 O1          1.2660    2.6300    0.8670 o         1 BTW     -0.837300
      3 C2          1.5220    0.3520    0.0420 c3        1 BTW     -0.195700
      4 C3          2.1530   -0.2750    1.2730 c3        1 BTW      0.107400
      5 C4          3.6190    0.0640    1.3570 c3        1 BTW     -0.089100
      6 C5         -0.4380   -0.1880   -1.4460 ca        1 BTW     -0.053300
      7 C6         -1.4030   -1.1710   -1.7020 ca        1 BTW     -0.133500
      8 C7         -1.8790   -1.3770   -2.9960 ca        1 BTW     -0.143500
      9 C8         -1.3960   -0.6040   -4.0500 ca        1 BTW     -0.158000
     10 C10         0.0440    0.5870   -2.5110 ca        1 BTW     -0.133500
     11 C9         -0.4340    0.3770   -3.8030 ca        1 BTW     -0.143500
     12 C11         1.7530    1.8870   -0.0330 c         1 BTW      0.910600
     13 O2          2.4060    2.3200   -1.0240 o         1 BTW     -0.837300
     14 S1          1.3510    0.1360    2.8310 sh        1 BTW     -0.567900
     15 H1         -0.2060   -0.8620    0.5740 hc        1 BTW      0.057200
     16 H1A        -0.5370    0.9070    0.3830 hc        1 BTW      0.057200
     17 H2          2.0510   -0.0940   -0.8490 hc        1 BTW      0.055700
     18 H3          2.0260   -1.3900    1.2240 h1        1 BTW      0.042700
     19 H4          3.7580    1.1740    1.3420 hc        1 BTW      0.039033
     20 H4A         4.1640   -0.3660    0.4800 hc        1 BTW      0.039033
     21 H4B         4.0660   -0.3480    2.2940 hc        1 BTW      0.039033
     22 H6         -1.7880   -1.7840   -0.8740 ha        1 BTW      0.158000
     23 H7         -2.6360   -2.1510   -3.1840 ha        1 BTW      0.114000
     24 H8         -1.7710   -0.7650   -5.0690 ha        1 BTW      0.108000
     25 H10         0.8120    1.3620   -2.3110 ha        1 BTW      0.158000
     26 H9         -0.0500    0.9900   -4.6300 ha        1 BTW      0.114000
     27 HS1         1.0570    1.4330    2.5710 hs        1 BTW      0.323800
@<TRIPOS>BOND
     1    1    3 1   
     2    1    6 1   
     3    1   15 1   
     4    1   16 1   
     5    2   12 1   
     6    3    4 1   
     7    3   12 1   
     8    3   17 1   
     9    4    5 1   
    10    4   14 1   
    11    4   18 1   
    12    5   19 1   
    13    5   20 1   
    14    5   21 1   
    15    6    7 ar  
    16    6   10 ar  
    17    7    8 ar  
    18    7   22 1   
    19    8    9 ar  
    20    8   23 1   
    21    9   11 ar  
    22    9   24 1   
    23   10   11 ar  
    24   10   25 1   
    25   11   26 1   
    26   12   13 1   
    27   14   27 1   
@<TRIPOS>SUBSTRUCTURE
     1 BTW         1 TEMP              0 ****  ****    0 ROOT
