@<TRIPOS>MOLECULE
BTW
   27    25     1     0     0
SMALL
bcc


@<TRIPOS>ATOM
      1 C1         -0.7200   -0.0880    0.6900 c3        1 BTW     -0.118000
      2 O1          2.1420    1.0980   -0.8430 o         1 BTW     -0.572000
      3 C2          0.7910   -0.0840    0.7530 c3        1 BTW     -0.185000
      4 C3          1.2360   -0.1320    2.1990 c3        1 BTW     -0.114000
      5 C4          2.2980   -1.1950    2.3640 c3        1 BTW     -0.207000
      6 C5         -1.1660   -0.0450   -0.7570 c2        1 BTW     -0.046000
      7 C6         -1.7950    1.0860   -1.2540 c2        1 BTW     -0.119000
      8 C7         -2.2680    1.1010   -2.5580 c1        1 BTW     -0.138000
      9 C8         -2.1110   -0.0160   -3.3640 c1        1 BTW     -0.153500
     10 C10        -1.0090   -1.1610   -1.5640 c1        1 BTW     -0.148000
     11 C9         -1.4820   -1.1470   -2.8670 c1        1 BTW     -0.153500
     12 C11         1.3190    1.1760    0.1060 c2        1 BTW      0.330000
     13 O2          0.9550    2.3030    0.5330 o         1 BTW     -0.572000
     14 S1          1.9000    1.4450    2.6660 sh        1 BTW     -0.214000
     15 H1         -1.0690    0.6940    1.1620 hc        1 BTW      0.096500
     16 H1A        -1.0620   -0.9020    1.1120 hc        1 BTW      0.096500
     17 H2          1.1390   -0.8630    0.2800 hc        1 BTW      0.095000
     18 H3          0.4720   -0.3450    2.7680 h1        1 BTW      0.082000
     19 H4          2.5010   -1.3090    3.3160 hc        1 BTW      0.078333
     20 H4A         3.1100   -0.9220    1.8870 hc        1 BTW      0.078333
     21 H4B         1.9720   -2.0430    1.9950 hc        1 BTW      0.078333
     22 H6         -1.8920    1.8780   -0.6910 ha        1 BTW      0.197000
     23 H7         -2.7300    1.8900   -2.9010 ha        1 BTW      0.120000
     24 H8         -2.4670   -0.0150   -4.2730 ha        1 BTW      0.108000
     25 H10        -0.5590   -1.9550   -1.2160 ha        1 BTW      0.119000
     26 H9         -1.4340   -1.9730   -3.3840 ha        1 BTW      0.108000
     27 HS1         1.9280    1.5270    3.8410 hs        1 BTW      0.152000
@<TRIPOS>BOND
     1    1    3 1   
     2    1    6 1   
     3    1   15 1   
     4    1   16 1   
     5    2   12 1   
     6    3    4 1   
     7    3   12 1   
     8    3   17 1   
     9    4    5 1   
    10    4   14 1   
    11    4   18 1   
    12    5   19 1   
    13    5   20 1   
    14    5   21 1   
    15    6    7 1   
    16    6   10 1   
    17    7    8 1   
    18    7   22 1   
    19    8   23 1   
    20    9   11 1   
    21    9   24 1   
    22   10   25 1   
    23   11   26 1   
    24   12   13 1   
    25   14   27 1   
@<TRIPOS>SUBSTRUCTURE
     1 BTW         1 TEMP              0 ****  ****    0 ROOT
