@<TRIPOS>MOLECULE
BTW
   27    27     1     0     0
SMALL
bcc


@<TRIPOS>ATOM
      1 C1          0.0200    0.0030   -0.0750 c3        1 BTW     -0.032100
      2 O1          1.1260    2.6200    0.9210 o         1 BTW     -0.837300
      3 C2          1.4900    0.3670    0.0700 c3        1 BTW     -0.195700
      4 C3          2.1070   -0.2570    1.3090 c3        1 BTW      0.107400
      5 C4          3.5570    0.1320    1.4420 c3        1 BTW     -0.089100
      6 C5         -0.4050   -0.2170   -1.4850 ca        1 BTW     -0.053300
      7 C6         -1.3250   -1.2290   -1.7860 ca        1 BTW     -0.133500
      8 C7         -1.7560   -1.4300   -3.0960 ca        1 BTW     -0.143500
      9 C8         -1.2700   -0.6220   -4.1230 ca        1 BTW     -0.158000
     10 C10         0.0810    0.5920   -2.5230 ca        1 BTW     -0.133500
     11 C9         -0.3520    0.3880   -3.8310 ca        1 BTW     -0.143500
     12 C11         1.6670    1.9100    0.0250 c         1 BTW      0.910600
     13 O2          2.3340    2.3830   -0.9380 o         1 BTW     -0.837300
     14 S1          1.2450    0.0980    2.8480 sh        1 BTW     -0.567900
     15 H1         -0.5970    0.8420    0.3570 hc        1 BTW      0.057200
     16 H1A        -0.2070   -0.9170    0.5300 hc        1 BTW      0.057200
     17 H2          2.0610   -0.0450   -0.8110 hc        1 BTW      0.055700
     18 H3          2.0220   -1.3750    1.2380 h1        1 BTW      0.042700
     19 H4          4.1420   -0.2650    0.5760 hc        1 BTW      0.039033
     20 H4A         3.6560    1.2460    1.4480 hc        1 BTW      0.039033
     21 H4B         3.9900   -0.2780    2.3850 hc        1 BTW      0.039033
     22 H6         -1.7120   -1.8700   -0.9800 ha        1 BTW      0.158000
     23 H7         -2.4790   -2.2270   -3.3190 ha        1 BTW      0.114000
     24 H8         -1.6080   -0.7790   -5.1560 ha        1 BTW      0.108000
     25 H10         0.8130    1.3910   -2.2870 ha        1 BTW      0.158000
     26 H9          0.0350    1.0280   -4.6370 ha        1 BTW      0.114000
     27 HS1         0.9120    1.3890    2.6000 hs        1 BTW      0.323800
@<TRIPOS>BOND
     1    1    3 1   
     2    1    6 1   
     3    1   15 1   
     4    1   16 1   
     5    2   12 1   
     6    3    4 1   
     7    3   12 1   
     8    3   17 1   
     9    4    5 1   
    10    4   14 1   
    11    4   18 1   
    12    5   19 1   
    13    5   20 1   
    14    5   21 1   
    15    6    7 ar  
    16    6   10 ar  
    17    7    8 ar  
    18    7   22 1   
    19    8    9 ar  
    20    8   23 1   
    21    9   11 ar  
    22    9   24 1   
    23   10   11 ar  
    24   10   25 1   
    25   11   26 1   
    26   12   13 1   
    27   14   27 1   
@<TRIPOS>SUBSTRUCTURE
     1 BTW         1 TEMP              0 ****  ****    0 ROOT
