@<TRIPOS>MOLECULE
BTW
   27    27     1     0     0
SMALL
bcc


@<TRIPOS>ATOM
      1 C1          0.1120   -0.9070   -0.3930 c3        1 BTW     -0.032100
      2 O1         -1.8100    1.0420   -1.6480 o         1 BTW     -0.837300
      3 C2         -0.8820   -0.0170    0.3400 c3        1 BTW     -0.195700
      4 C3         -2.1090   -0.7920    0.7880 c3        1 BTW      0.107400
      5 C4         -3.0870    0.1130    1.4940 c3        1 BTW     -0.089100
      6 C5          1.5350   -0.5770   -0.1030 ca        1 BTW     -0.053300
      7 C6          2.4780   -1.6050    0.0170 ca        1 BTW     -0.133500
      8 C7          3.8200   -1.3120    0.2580 ca        1 BTW     -0.143500
      9 C8          4.2340    0.0130    0.3840 ca        1 BTW     -0.158000
     10 C10         1.9580    0.7540    0.0250 ca        1 BTW     -0.133500
     11 C9          3.2990    1.0430    0.2670 ca        1 BTW     -0.143500
     12 C11        -1.2400    1.2180   -0.5330 c         1 BTW      0.910600
     13 O2         -0.9110    2.3520   -0.0830 o         1 BTW     -0.837300
     14 S1         -2.9570   -1.6950   -0.5160 sh        1 BTW     -0.567900
     15 H1         -0.0790   -1.9850   -0.1360 hc        1 BTW      0.057200
     16 H1A        -0.0630   -0.7960   -1.5000 hc        1 BTW      0.057200
     17 H2         -0.3980    0.3840    1.2770 hc        1 BTW      0.055700
     18 H3         -1.7900   -1.6150    1.4830 h1        1 BTW      0.042700
     19 H4         -3.3610    0.9720    0.8320 hc        1 BTW      0.039033
     20 H4A        -4.0130   -0.4460    1.7680 hc        1 BTW      0.039033
     21 H4B        -2.6260    0.5250    2.4250 hc        1 BTW      0.039033
     22 H6          2.1580   -2.6520   -0.0820 ha        1 BTW      0.158000
     23 H7          4.5510   -2.1270    0.3500 ha        1 BTW      0.114000
     24 H8          5.2900    0.2450    0.5740 ha        1 BTW      0.108000
     25 H10         1.2110    1.5700   -0.0650 ha        1 BTW      0.158000
     26 H9          3.6200    2.0900    0.3650 ha        1 BTW      0.114000
     27 HS1        -2.8210   -0.7850   -1.5130 hs        1 BTW      0.323800
@<TRIPOS>BOND
     1    1    3 1   
     2    1    6 1   
     3    1   15 1   
     4    1   16 1   
     5    2   12 1   
     6    3    4 1   
     7    3   12 1   
     8    3   17 1   
     9    4    5 1   
    10    4   14 1   
    11    4   18 1   
    12    5   19 1   
    13    5   20 1   
    14    5   21 1   
    15    6    7 ar  
    16    6   10 ar  
    17    7    8 ar  
    18    7   22 1   
    19    8    9 ar  
    20    8   23 1   
    21    9   11 ar  
    22    9   24 1   
    23   10   11 ar  
    24   10   25 1   
    25   11   26 1   
    26   12   13 1   
    27   14   27 1   
@<TRIPOS>SUBSTRUCTURE
     1 BTW         1 TEMP              0 ****  ****    0 ROOT
