@<TRIPOS>MOLECULE
BTX
   66    70     1     0     0
SMALL
bcc


@<TRIPOS>ATOM
      1 P           1.5270   -0.7540    1.2660 p5        1 BTX      1.440800
      2 O1P         2.9780   -0.5280    1.3610 o         1 BTX     -0.836000
      3 O2P         0.8080   -1.9940    1.6360 o         1 BTX     -0.836000
      4 O5'         1.0680   -0.5000   -0.3160 os        1 BTX     -0.573200
      5 C5'         1.1600   -1.5970   -1.1610 c3        1 BTX      0.199400
      6 C4'        -0.2060   -2.2870   -1.3330 c3        1 BTX      0.062100
      7 O4'        -0.3870   -2.6420   -2.7170 os        1 BTX     -0.418600
      8 C3'        -0.3700   -3.5610   -0.4780 c3        1 BTX      0.113100
      9 O3'        -1.3950   -3.3960    0.4750 oh        1 BTX     -0.636800
     10 C2'        -0.7910   -4.6720   -1.4630 c3        1 BTX      0.111100
     11 O2'        -2.1390   -5.0650   -1.3690 oh        1 BTX     -0.588800
     12 C1'        -0.5450   -4.0510   -2.8810 c3        1 BTX      0.212800
     13 N9          0.6090   -4.6020   -3.5650 na        1 BTX     -0.267000
     14 C8          1.9750   -4.3450   -3.2960 cc        1 BTX      0.429700
     15 N7          2.8190   -4.9460   -4.1490 nd        1 BTX     -0.564100
     16 C5          1.9930   -5.6300   -5.0520 ca        1 BTX     -0.221200
     17 C6          2.2700   -6.4550   -6.1900 ca        1 BTX      0.733200
     18 N6          3.5770   -6.7700   -6.5130 nh        1 BTX     -0.946500
     19 N1          1.2220   -6.9650   -6.9140 nb        1 BTX     -0.800000
     20 C2         -0.0370   -6.6790   -6.4780 ca        1 BTX      0.667900
     21 N3         -0.4500   -5.9410   -5.4250 nb        1 BTX     -0.719000
     22 C4          0.5890   -5.4110   -4.7090 ca        1 BTX      0.454800
     23 CBB         1.3500    1.7820    1.7690 c3        1 BTX      0.185400
     24 OBB         0.7450    0.5310    1.9160 os        1 BTX     -0.564200
     25 CAB         0.4970    2.6810    0.8790 c3        1 BTX     -0.110400
     26 C9B         1.0630    4.0830    0.8380 c3        1 BTX     -0.075400
     27 C8B         0.2300    4.9790   -0.0530 c3        1 BTX     -0.081400
     28 C7B         0.7350    6.4090   -0.0130 c3        1 BTX     -0.073400
     29 C2B        -0.0870    7.3080   -0.9070 c3        1 BTX     -0.010600
     30 S1B         0.2810    6.9750   -2.6210 ss        1 BTX     -0.272200
     31 C6B        -0.1960    8.5710   -3.2010 c3        1 BTX     -0.051300
     32 C5B        -0.0440    9.5770   -2.0670 c3        1 BTX      0.051700
     33 N1B         1.1260   10.4510   -2.1330 n         1 BTX     -0.511900
     34 C3B         2.0080   10.1160   -1.0560 c         1 BTX      0.746500
     35 O3B         3.1490   10.5880   -0.9130 o         1 BTX     -0.620500
     36 N2B         1.3530    9.2720   -0.1120 n         1 BTX     -0.512900
     37 C4B         0.0910    8.8090   -0.6770 c3        1 BTX      0.058700
     38 H5'1        1.9190   -2.3280   -0.7600 h1        1 BTX      0.024700
     39 H5'2        1.4980   -1.2270   -2.1700 h1        1 BTX      0.024700
     40 H4'        -1.0270   -1.5520   -1.1050 h1        1 BTX      0.095700
     41 H3'         0.5920   -3.8350    0.0330 h1        1 BTX      0.089700
     42 H3         -0.9900   -2.9410    1.2370 ho        1 BTX      0.483000
     43 H1         -0.1990   -5.6120   -1.3020 h1        1 BTX      0.086700
     44 H2'        -2.6450   -4.3260   -1.0040 ho        1 BTX      0.428000
     45 H1'        -1.4480   -4.1960   -3.5450 h2        1 BTX      0.114700
     46 H8          2.2650   -3.6930   -2.4580 h5        1 BTX      0.089800
     47 HN61        4.2830   -6.2050   -6.1040 hn        1 BTX      0.428800
     48 HN62        3.7640   -7.1610   -7.4040 hn        1 BTX      0.428800
     49 H4         -0.8480   -7.1220   -7.0930 h5        1 BTX      0.042100
     50 H111        1.4250    2.2480    2.7940 h1        1 BTX      0.033200
     51 H112        2.3860    1.6680    1.3430 h1        1 BTX      0.033200
     52 H101       -0.5510    2.6970    1.2740 hc        1 BTX      0.052200
     53 H102        0.4550    2.2500   -0.1560 hc        1 BTX      0.052200
     54 H9B1        2.1190    4.0520    0.4610 hc        1 BTX      0.036200
     55 H9B2        1.0940    4.5070    1.8770 hc        1 BTX      0.036200
     56 H8B1        0.2620    4.5980   -1.1080 hc        1 BTX      0.048700
     57 H8B2       -0.8410    4.9480    0.2800 hc        1 BTX      0.048700
     58 H7B1        0.6780    6.7860    1.0450 hc        1 BTX      0.053700
     59 H7B2        1.8130    6.4280   -0.3250 hc        1 BTX      0.053700
     60 H2B        -1.1750    7.0740   -0.7420 h1        1 BTX      0.083700
     61 H6B1       -1.2600    8.5530   -3.5400 h1        1 BTX      0.078700
     62 H6B2        0.4320    8.8180   -4.0910 h1        1 BTX      0.078700
     63 H5B        -0.9510   10.2430   -2.0300 h1        1 BTX      0.083700
     64 H1B         1.5620   10.5570   -3.0220 hn        1 BTX      0.305500
     65 H2          1.9280    8.6050    0.3530 hn        1 BTX      0.319500
     66 H4B        -0.7230    9.1670    0.0160 h1        1 BTX      0.084700
@<TRIPOS>BOND
     1    1    2 1   
     2    1    3 1   
     3    1    4 1   
     4    1   24 1   
     5    4    5 1   
     6    5    6 1   
     7    5   38 1   
     8    5   39 1   
     9    6    7 1   
    10    6    8 1   
    11    6   40 1   
    12    7   12 1   
    13    8    9 1   
    14    8   10 1   
    15    8   41 1   
    16    9   42 1   
    17   10   11 1   
    18   10   12 1   
    19   10   43 1   
    20   11   44 1   
    21   12   13 1   
    22   12   45 1   
    23   13   14 1   
    24   13   22 1   
    25   14   15 2   
    26   14   46 1   
    27   15   16 1   
    28   16   17 ar  
    29   16   22 ar  
    30   17   18 1   
    31   17   19 ar  
    32   18   47 1   
    33   18   48 1   
    34   19   20 ar  
    35   20   21 ar  
    36   20   49 1   
    37   21   22 ar  
    38   23   24 1   
    39   23   25 1   
    40   23   50 1   
    41   23   51 1   
    42   25   26 1   
    43   25   52 1   
    44   25   53 1   
    45   26   27 1   
    46   26   54 1   
    47   26   55 1   
    48   27   28 1   
    49   27   56 1   
    50   27   57 1   
    51   28   29 1   
    52   28   58 1   
    53   28   59 1   
    54   29   30 1   
    55   29   37 1   
    56   29   60 1   
    57   30   31 1   
    58   31   32 1   
    59   31   61 1   
    60   31   62 1   
    61   32   33 1   
    62   32   37 1   
    63   32   63 1   
    64   33   34 1   
    65   33   64 1   
    66   34   35 2   
    67   34   36 1   
    68   36   37 1   
    69   36   65 1   
    70   37   66 1   
@<TRIPOS>SUBSTRUCTURE
     1 BTX         1 TEMP              0 ****  ****    0 ROOT
