@<TRIPOS>MOLECULE
BTX
   66    70     1     0     0
SMALL
bcc


@<TRIPOS>ATOM
      1 P           1.4990   -0.7580    1.2740 p5        1 BTX      1.440800
      2 O1P         2.9500   -0.5350    1.3820 o         1 BTX     -0.836000
      3 O2P         0.7740   -1.9960    1.6380 o         1 BTX     -0.836000
      4 O5'         1.0550   -0.5020   -0.3110 os        1 BTX     -0.573200
      5 C5'         1.1510   -1.5990   -1.1560 c3        1 BTX      0.199400
      6 C4'        -0.2150   -2.2850   -1.3400 c3        1 BTX      0.062100
      7 O4'        -0.3860   -2.6380   -2.7260 os        1 BTX     -0.418600
      8 C3'        -0.3910   -3.5590   -0.4870 c3        1 BTX      0.113100
      9 O3'        -1.4230   -3.3910    0.4580 oh        1 BTX     -0.636800
     10 C2'        -0.8060   -4.6680   -1.4760 c3        1 BTX      0.111100
     11 O2'        -2.1560   -5.0580   -1.3940 oh        1 BTX     -0.588800
     12 C1'        -0.5460   -4.0460   -2.8910 c3        1 BTX      0.212800
     13 N9          0.6120   -4.6000   -3.5660 na        1 BTX     -0.267000
     14 C8          1.9760   -4.3480   -3.2850 cc        1 BTX      0.429700
     15 N7          2.8250   -4.9500   -4.1320 nd        1 BTX     -0.564100
     16 C5          2.0050   -5.6310   -5.0430 ca        1 BTX     -0.221200
     17 C6          2.2900   -6.4550   -6.1800 ca        1 BTX      0.733200
     18 N6          3.5980   -6.7740   -6.4920 nv        1 BTX     -0.946500
     19 N1          1.2460   -6.9620   -6.9120 nb        1 BTX     -0.800000
     20 C2         -0.0160   -6.6710   -6.4870 ca        1 BTX      0.667900
     21 N3         -0.4360   -5.9340   -5.4370 nb        1 BTX     -0.719000
     22 C4          0.5990   -5.4080   -4.7110 ca        1 BTX      0.454800
     23 CBB         1.3250    1.7780    1.7770 c3        1 BTX      0.185400
     24 OBB         0.7160    0.5290    1.9190 os        1 BTX     -0.564200
     25 CAB         0.4810    2.6800    0.8800 c3        1 BTX     -0.110400
     26 C9B         1.0510    4.0800    0.8440 c3        1 BTX     -0.075400
     27 C8B         0.2280    4.9790   -0.0550 c3        1 BTX     -0.081400
     28 C7B         0.7340    6.4080   -0.0090 c3        1 BTX     -0.073400
     29 C2B        -0.0780    7.3080   -0.9110 c3        1 BTX     -0.010600
     30 S1B         0.3080    6.9760   -2.6220 ss        1 BTX     -0.272200
     31 C6B        -0.1620    8.5730   -3.2050 c3        1 BTX     -0.051300
     32 C5B        -0.0210    9.5780   -2.0680 c3        1 BTX      0.051700
     33 N1B         1.1490   10.4510   -2.1220 ns        1 BTX     -0.511900
     34 C3B         2.0210   10.1150   -1.0370 c         1 BTX      0.746500
     35 O3B         3.1610   10.5860   -0.8820 o         1 BTX     -0.620500
     36 N2B         1.3560    9.2700   -0.1000 ns        1 BTX     -0.512900
     37 C4B         0.1000    8.8090   -0.6780 c3        1 BTX      0.058700
     38 H5'1        1.9040   -2.3320   -0.7490 h1        1 BTX      0.024700
     39 H5'2        1.4990   -1.2290   -2.1620 h1        1 BTX      0.024700
     40 H4'        -1.0360   -1.5470   -1.1180 h1        1 BTX      0.095700
     41 H3'         0.5670   -3.8350    0.0320 h1        1 BTX      0.089700
     42 H3         -1.0230   -2.9380    1.2230 ho        1 BTX      0.483000
     43 H1         -0.2180   -5.6100   -1.3110 h1        1 BTX      0.086700
     44 H2'        -2.6630   -4.3170   -1.0330 ho        1 BTX      0.428000
     45 H1'        -1.4450   -4.1890   -3.5630 h2        1 BTX      0.114700
     46 H8          2.2610   -3.6980   -2.4440 h5        1 BTX      0.089800
     47 HN61        4.3020   -6.2110   -6.0760 hn        1 BTX      0.428800
     48 HN62        3.7910   -7.1640   -7.3820 hn        1 BTX      0.428800
     49 H4         -0.8230   -7.1120   -7.1100 h5        1 BTX      0.042100
     50 H111        1.3930    2.2440    2.8020 h1        1 BTX      0.033200
     51 H112        2.3640    1.6620    1.3590 h1        1 BTX      0.033200
     52 H101        0.4470    2.2490   -0.1550 hc        1 BTX      0.052200
     53 H102       -0.5700    2.6980    1.2660 hc        1 BTX      0.052200
     54 H9B1        1.0730    4.5050    1.8820 hc        1 BTX      0.036200
     55 H9B2        2.1100    4.0470    0.4760 hc        1 BTX      0.036200
     56 H8B1       -0.8460    4.9490    0.2680 hc        1 BTX      0.048700
     57 H8B2        0.2690    4.5980   -1.1100 hc        1 BTX      0.048700
     58 H7B1        0.6680    6.7840    1.0480 hc        1 BTX      0.053700
     59 H7B2        1.8150    6.4250   -0.3110 hc        1 BTX      0.053700
     60 H2B        -1.1670    7.0750   -0.7580 h1        1 BTX      0.083700
     61 H6B1       -1.2230    8.5560   -3.5550 h1        1 BTX      0.078700
     62 H6B2        0.4750    8.8210   -4.0880 h1        1 BTX      0.078700
     63 H5B        -0.9290   10.2450   -2.0390 h1        1 BTX      0.083700
     64 H1B         1.5940   10.5590   -3.0060 hn        1 BTX      0.305500
     65 H2          1.9260    8.6020    0.3700 hn        1 BTX      0.319500
     66 H4B        -0.7210    9.1670    0.0080 h1        1 BTX      0.084700
@<TRIPOS>BOND
     1    1    2 1   
     2    1    3 1   
     3    1    4 1   
     4    1   24 1   
     5    4    5 1   
     6    5    6 1   
     7    5   38 1   
     8    5   39 1   
     9    6    7 1   
    10    6    8 1   
    11    6   40 1   
    12    7   12 1   
    13    8    9 1   
    14    8   10 1   
    15    8   41 1   
    16    9   42 1   
    17   10   11 1   
    18   10   12 1   
    19   10   43 1   
    20   11   44 1   
    21   12   13 1   
    22   12   45 1   
    23   13   14 1   
    24   13   22 1   
    25   14   15 2   
    26   14   46 1   
    27   15   16 1   
    28   16   17 ar  
    29   16   22 ar  
    30   17   18 1   
    31   17   19 ar  
    32   18   47 1   
    33   18   48 1   
    34   19   20 ar  
    35   20   21 ar  
    36   20   49 1   
    37   21   22 ar  
    38   23   24 1   
    39   23   25 1   
    40   23   50 1   
    41   23   51 1   
    42   25   26 1   
    43   25   52 1   
    44   25   53 1   
    45   26   27 1   
    46   26   54 1   
    47   26   55 1   
    48   27   28 1   
    49   27   56 1   
    50   27   57 1   
    51   28   29 1   
    52   28   58 1   
    53   28   59 1   
    54   29   30 1   
    55   29   37 1   
    56   29   60 1   
    57   30   31 1   
    58   31   32 1   
    59   31   61 1   
    60   31   62 1   
    61   32   33 1   
    62   32   37 1   
    63   32   63 1   
    64   33   34 1   
    65   33   64 1   
    66   34   35 2   
    67   34   36 1   
    68   36   37 1   
    69   36   65 1   
    70   37   66 1   
@<TRIPOS>SUBSTRUCTURE
     1 BTX         1 TEMP              0 ****  ****    0 ROOT
