@<TRIPOS>MOLECULE
BTX
   66    70     1     0     0
SMALL
bcc


@<TRIPOS>ATOM
      1 P           0.6790   -2.6420    1.9560 p5        1 BTX      1.440800
      2 O1P         0.4090   -2.1470    3.3140 o         1 BTX     -0.836000
      3 O2P         1.8430   -3.4560    1.5350 o         1 BTX     -0.836000
      4 O5'         0.7360   -1.3300    0.9300 os        1 BTX     -0.573200
      5 C5'         1.9700   -0.7070    0.8050 c3        1 BTX      0.199400
      6 C4'         2.7080   -1.1770   -0.4620 c3        1 BTX      0.062100
      7 O4'         3.3200   -0.0420   -1.1040 os        1 BTX     -0.418600
      8 C3'         3.8030   -2.2300   -0.1880 c3        1 BTX      0.113100
      9 O3'         3.4830   -3.4570   -0.8050 oh        1 BTX     -0.636800
     10 C2'         5.0870   -1.6740   -0.8380 c3        1 BTX      0.111100
     11 O2'         5.4840   -2.3310   -2.0180 oh        1 BTX     -0.588800
     12 C1'         4.7370   -0.1860   -1.1830 c3        1 BTX      0.212800
     13 N9          5.3820    0.7790   -0.3140 na        1 BTX     -0.267000
     14 C8          5.0520    1.0870    1.0280 cc        1 BTX      0.429700
     15 N7          5.7830    2.0830    1.5520 nd        1 BTX     -0.564100
     16 C5          6.6400    2.4860    0.5170 ca        1 BTX     -0.221200
     17 C6          7.6540    3.4940    0.4320 ca        1 BTX      0.733200
     18 N6          7.9970    4.2250    1.5540 nh        1 BTX     -0.945500
     19 N1          8.3110    3.6780   -0.7590 nb        1 BTX     -0.800000
     20 C2          7.9740    2.8560   -1.7920 ca        1 BTX      0.667900
     21 N3          7.0630    1.8620   -1.8570 nb        1 BTX     -0.719000
     22 C4          6.3890    1.6840   -0.6790 ca        1 BTX      0.454800
     23 CBB        -1.9020   -2.7450    1.7470 c3        1 BTX      0.185400
     24 OBB        -0.6890   -3.3150    1.3540 os        1 BTX     -0.564200
     25 CAB        -2.5990   -2.1040    0.5500 c3        1 BTX     -0.110400
     26 C9B        -3.9780   -1.6190    0.9330 c3        1 BTX     -0.075400
     27 C8B        -4.6730   -0.9710   -0.2450 c3        1 BTX     -0.081400
     28 C7B        -6.0950   -0.5770    0.1070 c3        1 BTX     -0.073400
     29 C2B        -6.7900    0.0790   -1.0620 c3        1 BTX     -0.010600
     30 S1B        -6.1460    1.7240   -1.3190 ss        1 BTX     -0.272200
     31 C6B        -7.5940    2.3400   -2.1170 c3        1 BTX     -0.051300
     32 C5B        -8.8000    1.5330   -1.6520 c3        1 BTX      0.051700
     33 N1B        -9.6690    2.1800   -0.6720 n         1 BTX     -0.511900
     34 C3B        -9.5630    1.4750    0.5700 c         1 BTX      0.746500
     35 O3B       -10.0770    1.8540    1.6360 o         1 BTX     -0.620500
     36 N2B        -8.8990    0.2260    0.3860 n         1 BTX     -0.512900
     37 C4B        -8.3110    0.1890   -0.9490 c3        1 BTX      0.058700
     38 H5'1        2.5960   -0.9090    1.7200 h1        1 BTX      0.024700
     39 H5'2        1.7880    0.4020    0.7170 h1        1 BTX      0.024700
     40 H4'         1.9600   -1.5710   -1.2050 h1        1 BTX      0.095700
     41 H3'         3.9550   -2.3800    0.9150 h1        1 BTX      0.089700
     42 H3          2.8850   -3.9240   -0.1920 ho        1 BTX      0.483000
     43 H1          5.9670   -1.7550   -0.1470 h1        1 BTX      0.086700
     44 H2'         4.7000   -2.7310   -2.4200 ho        1 BTX      0.428000
     45 H1'         5.0240    0.0560   -2.2500 h2        1 BTX      0.115700
     46 H8          4.2510    0.5370    1.5450 h5        1 BTX      0.089800
     47 HN61        8.5420    5.0450    1.4360 hn        1 BTX      0.428800
     48 HN62        7.3520    4.2090    2.3070 hn        1 BTX      0.428800
     49 H4          8.5400    3.0410   -2.7300 h5        1 BTX      0.042100
     50 H111       -2.5540   -3.5720    2.1500 h1        1 BTX      0.033200
     51 H112       -1.7310   -1.9850    2.5610 h1        1 BTX      0.033200
     52 H101       -1.9790   -1.2500    0.1700 hc        1 BTX      0.052200
     53 H102       -2.6680   -2.8570   -0.2770 hc        1 BTX      0.052200
     54 H9B1       -4.5930   -2.4820    1.3040 hc        1 BTX      0.036200
     55 H9B2       -3.8980   -0.8820    1.7760 hc        1 BTX      0.036200
     56 H8B1       -4.1000   -0.0610   -0.5690 hc        1 BTX      0.048700
     57 H8B2       -4.6830   -1.6830   -1.1120 hc        1 BTX      0.048700
     58 H7B1       -6.6640   -1.4980    0.4080 hc        1 BTX      0.053700
     59 H7B2       -6.0760    0.1170    0.9900 hc        1 BTX      0.053700
     60 H2B        -6.5690   -0.5200   -1.9880 h1        1 BTX      0.083700
     61 H6B1       -7.6810    3.4290   -1.8840 h1        1 BTX      0.078700
     62 H6B2       -7.4900    2.2450   -3.2260 h1        1 BTX      0.078700
     63 H5B        -9.4410    1.2690   -2.5390 h1        1 BTX      0.083700
     64 H1B        -9.6140    3.1710   -0.6040 hn        1 BTX      0.305500
     65 H2         -8.3450   -0.0920    1.1490 hn        1 BTX      0.319500
     66 H4B        -8.7770   -0.6900   -1.4810 h1        1 BTX      0.084700
@<TRIPOS>BOND
     1    1    2 1   
     2    1    3 1   
     3    1    4 1   
     4    1   24 1   
     5    4    5 1   
     6    5    6 1   
     7    5   38 1   
     8    5   39 1   
     9    6    7 1   
    10    6    8 1   
    11    6   40 1   
    12    7   12 1   
    13    8    9 1   
    14    8   10 1   
    15    8   41 1   
    16    9   42 1   
    17   10   11 1   
    18   10   12 1   
    19   10   43 1   
    20   11   44 1   
    21   12   13 1   
    22   12   45 1   
    23   13   14 1   
    24   13   22 1   
    25   14   15 2   
    26   14   46 1   
    27   15   16 1   
    28   16   17 ar  
    29   16   22 ar  
    30   17   18 1   
    31   17   19 ar  
    32   18   47 1   
    33   18   48 1   
    34   19   20 ar  
    35   20   21 ar  
    36   20   49 1   
    37   21   22 ar  
    38   23   24 1   
    39   23   25 1   
    40   23   50 1   
    41   23   51 1   
    42   25   26 1   
    43   25   52 1   
    44   25   53 1   
    45   26   27 1   
    46   26   54 1   
    47   26   55 1   
    48   27   28 1   
    49   27   56 1   
    50   27   57 1   
    51   28   29 1   
    52   28   58 1   
    53   28   59 1   
    54   29   30 1   
    55   29   37 1   
    56   29   60 1   
    57   30   31 1   
    58   31   32 1   
    59   31   61 1   
    60   31   62 1   
    61   32   33 1   
    62   32   37 1   
    63   32   63 1   
    64   33   34 1   
    65   33   64 1   
    66   34   35 2   
    67   34   36 1   
    68   36   37 1   
    69   36   65 1   
    70   37   66 1   
@<TRIPOS>SUBSTRUCTURE
     1 BTX         1 TEMP              0 ****  ****    0 ROOT
