@<TRIPOS>MOLECULE
BTX
   67    71     1     0     0
SMALL
bcc


@<TRIPOS>ATOM
      1 P          -1.6870    0.6130    2.2270 p5        1 BTX      1.639500
      2 O1P        -0.8660    0.1820    3.3410 o         1 BTX     -0.774300
      3 O2P        -3.2600    0.7810    2.4030 oh        1 BTX     -0.761400
      4 O5'        -1.2570    1.9960    1.5540 os        1 BTX     -0.572200
      5 C5'        -2.0290    2.5170    0.4930 c3        1 BTX      0.167400
      6 C4'        -1.0690    2.9350   -0.6230 c3        1 BTX      0.091100
      7 O4'        -1.8190    3.1460   -1.8220 os        1 BTX     -0.419600
      8 C3'        -0.2920    4.2260   -0.2940 c3        1 BTX      0.094100
      9 O3'         1.1000    3.9750   -0.2720 oh        1 BTX     -0.599800
     10 C2'        -0.5810    5.1990   -1.4560 c3        1 BTX      0.135100
     11 O2'         0.5060    5.4160   -2.3200 oh        1 BTX     -0.575800
     12 C1'        -1.7380    4.5140   -2.2580 c3        1 BTX      0.216800
     13 N9         -3.0170    5.1650   -2.1590 na        1 BTX     -0.282000
     14 C8         -4.0000    5.1610   -3.1890 cc        1 BTX      0.417700
     15 N7         -5.1600    5.7210   -2.8310 nd        1 BTX     -0.540100
     16 C5         -4.9840    6.1030   -1.4910 ca        1 BTX     -0.235200
     17 C6         -5.8470    6.7520   -0.5470 ca        1 BTX      0.766200
     18 N6         -7.1210    7.1030   -0.9010 nh        1 BTX     -0.957500
     19 N1         -5.3710    7.0000    0.7220 nb        1 BTX     -0.793000
     20 C2         -4.1040    6.6050    1.0040 ca        1 BTX      0.691900
     21 N3         -3.1860    5.9870    0.2230 nb        1 BTX     -0.760000
     22 C4         -3.6440    5.7420   -1.0410 ca        1 BTX      0.465800
     23 CBB        -0.8870   -1.5070    0.9440 c3        1 BTX      0.172400
     24 OBB        -1.7560   -0.3940    0.9810 os        1 BTX     -0.621200
     25 CAB        -1.7030   -2.7870    0.8590 c3        1 BTX     -0.100400
     26 C9B        -0.7900   -3.9800    0.6770 c3        1 BTX     -0.078400
     27 C8B        -1.5880   -5.2640    0.5990 c3        1 BTX     -0.081400
     28 C7B        -0.6740   -6.4570    0.3930 c3        1 BTX     -0.072400
     29 C2B        -1.4590   -7.7470    0.3680 c3        1 BTX     -0.010600
     30 S1B        -2.0990   -8.1010    1.9970 ss        1 BTX     -0.288200
     31 C6B        -2.1660   -9.8500    1.7790 c3        1 BTX     -0.045300
     32 C5B        -1.1640  -10.2600    0.7080 c3        1 BTX      0.058700
     33 N1B         0.0690  -10.8820    1.1820 n         1 BTX     -0.513900
     34 C3B         1.1640  -10.0070    0.9080 c         1 BTX      0.749500
     35 O3B         2.3270  -10.1810    1.3100 o         1 BTX     -0.613500
     36 N2B         0.7640   -8.9710    0.0110 n         1 BTX     -0.516900
     37 C4B        -0.6880   -8.9780   -0.1130 c3        1 BTX      0.060700
     38 H5'1       -2.6020    3.4070    0.8740 h1        1 BTX      0.064200
     39 H5'2       -2.7390    1.7330    0.1160 h1        1 BTX      0.064200
     40 H4'        -0.3560    2.0940   -0.8520 h1        1 BTX      0.081700
     41 H3'        -0.6350    4.6640    0.6810 h1        1 BTX      0.092700
     42 H3          1.2860    3.5270    0.5630 ho        1 BTX      0.427000
     43 H1         -0.8590    6.2200   -1.0800 h1        1 BTX      0.119700
     44 H2'         1.0340    4.6070   -2.3640 ho        1 BTX      0.424000
     45 H1'        -1.4750    4.4550   -3.3580 h2        1 BTX      0.102700
     46 H8         -3.7750    4.7420   -4.1770 h5        1 BTX      0.076800
     47 HN61       -3.8230    0.2970    1.8030 ho        1 BTX      0.488000
     48 HN62       -7.4160    6.9560   -1.8340 hn        1 BTX      0.450800
     49 H4         -3.7710    6.8260    2.0420 h5        1 BTX      0.053100
     50 H111       -0.2350   -1.5030    1.8620 h1        1 BTX      0.058700
     51 H112       -0.2500   -1.4030    0.0200 h1        1 BTX      0.058700
     52 H101       -2.3140   -2.9140    1.7910 hc        1 BTX      0.053700
     53 H102       -2.4190   -2.7120   -0.0010 hc        1 BTX      0.053700
     54 H9B1       -0.1860   -3.8540   -0.2610 hc        1 BTX      0.046700
     55 H9B2       -0.0680   -4.0360    1.5340 hc        1 BTX      0.046700
     56 H8B1       -2.3240   -5.2000   -0.2450 hc        1 BTX      0.051700
     57 H8B2       -2.1760   -5.4030    1.5460 hc        1 BTX      0.051700
     58 H7B1        0.0880   -6.4810    1.2170 hc        1 BTX      0.056700
     59 H7B2       -0.1250   -6.3360   -0.5800 hc        1 BTX      0.056700
     60 H2B        -2.3380   -7.6170   -0.3200 h1        1 BTX      0.081700
     61 H6B1       -1.9670  -10.3300    2.7680 h1        1 BTX      0.083200
     62 H6B2       -3.1940  -10.1560    1.4630 h1        1 BTX      0.083200
     63 H5B        -1.6490  -10.9880   -0.0030 h1        1 BTX      0.089700
     64 H1B         0.0580  -11.2970    2.0860 hn        1 BTX      0.313500
     65 H2          1.2230   -8.0960    0.1180 hn        1 BTX      0.315500
     66 H4B        -0.9190   -9.1420   -1.2050 h1        1 BTX      0.087700
     67 H63        -7.7060    7.5910   -0.2700 hn        1 BTX      0.450800
@<TRIPOS>BOND
     1    1    2 2   
     2    1    3 1   
     3    1    4 1   
     4    1   24 1   
     5    3   47 1   
     6    4    5 1   
     7    5    6 1   
     8    5   38 1   
     9    5   39 1   
    10    6    7 1   
    11    6    8 1   
    12    6   40 1   
    13    7   12 1   
    14    8    9 1   
    15    8   10 1   
    16    8   41 1   
    17    9   42 1   
    18   10   11 1   
    19   10   12 1   
    20   10   43 1   
    21   11   44 1   
    22   12   13 1   
    23   12   45 1   
    24   13   14 1   
    25   13   22 1   
    26   14   15 2   
    27   14   46 1   
    28   15   16 1   
    29   16   17 ar  
    30   16   22 ar  
    31   17   18 1   
    32   17   19 ar  
    33   18   48 1   
    34   18   67 1   
    35   19   20 ar  
    36   20   21 ar  
    37   20   49 1   
    38   21   22 ar  
    39   23   24 1   
    40   23   25 1   
    41   23   50 1   
    42   23   51 1   
    43   25   26 1   
    44   25   52 1   
    45   25   53 1   
    46   26   27 1   
    47   26   54 1   
    48   26   55 1   
    49   27   28 1   
    50   27   56 1   
    51   27   57 1   
    52   28   29 1   
    53   28   58 1   
    54   28   59 1   
    55   29   30 1   
    56   29   37 1   
    57   29   60 1   
    58   30   31 1   
    59   31   32 1   
    60   31   61 1   
    61   31   62 1   
    62   32   33 1   
    63   32   37 1   
    64   32   63 1   
    65   33   34 1   
    66   33   64 1   
    67   34   35 2   
    68   34   36 1   
    69   36   37 1   
    70   36   65 1   
    71   37   66 1   
@<TRIPOS>SUBSTRUCTURE
     1 BTX         1 TEMP              0 ****  ****    0 ROOT
