@<TRIPOS>MOLECULE
BTX
   66    65     1     0     0
SMALL
bcc


@<TRIPOS>ATOM
      1 P           0.3630   -0.6130    0.6590 p4        1 BTX      1.806100
      2 O1P         1.8850   -0.6740    0.6750 o         1 BTX     -0.874300
      3 O2P        -0.1590   -0.5380    2.0960 os        1 BTX     -1.168000
      4 O5'        -0.2220   -1.9350   -0.0600 os        1 BTX     -0.574200
      5 C5'        -0.0320   -3.2060    0.5730 c3        1 BTX      0.199400
      6 C4'        -0.3740   -4.2880   -0.3870 c3        1 BTX      0.062100
      7 O4'         0.6870   -4.9390   -0.7170 os        1 BTX     -0.418600
      8 C3'        -1.3850   -5.3800    0.3310 c3        1 BTX      0.114100
      9 O3'        -2.7920   -4.9050    0.2460 oh        1 BTX     -0.636800
     10 C2'        -1.2560   -6.4370   -0.3010 c3        1 BTX      0.111100
     11 O2'        -2.2730   -6.5110   -1.4120 oh        1 BTX     -0.588800
     12 C1'         0.2190   -6.3750   -0.9100 c3        1 BTX      0.213800
     13 N9          1.0000   -7.1870   -0.2860 n3        1 BTX     -0.111400
     14 C8          2.1410   -6.8110    0.3180 c1        1 BTX      0.195400
     15 N7          2.9270   -7.8990    0.4380 ne        1 BTX     -0.410400
     16 C5          2.2690   -8.9460   -0.0940 cg        1 BTX     -0.178000
     17 C6          2.5930  -10.2970   -0.1960 c1        1 BTX      0.593600
     18 N6          3.7500  -11.1430   -0.1540 n3        1 BTX     -0.810400
     19 N1          1.7030  -11.1700   -0.7480 n1        1 BTX     -0.599800
     20 C2          0.5030  -10.7230   -1.1990 c1        1 BTX      0.388300
     21 N3          0.1840   -9.3920   -1.0990 n1        1 BTX     -0.516800
     22 C4          1.0800   -8.5070   -0.5410 c1        1 BTX      0.006700
     23 CBB         0.5370    1.9560    0.1720 c3        1 BTX      0.168400
     24 OBB        -0.1040    0.6690   -0.1380 os        1 BTX     -0.560200
     25 CAB        -0.3150    3.0980   -0.3820 c3        1 BTX     -0.084400
     26 C9B         0.2970    4.4060   -0.0020 c3        1 BTX     -0.080400
     27 C8B        -0.4660    5.5330   -0.6840 c3        1 BTX     -0.083400
     28 C7B        -0.2280    6.8530    0.0780 c3        1 BTX     -0.082400
     29 C2B        -0.4630    8.1100   -0.9300 c3        1 BTX     -0.002600
     30 S1B         0.7550    8.8780   -1.0640 ss        1 BTX     -0.293200
     31 C6B         0.6620   10.1030    0.1260 c3        1 BTX     -0.043300
     32 C5B        -0.7390   10.4690    0.1790 c3        1 BTX      0.051700
     33 N1B        -1.1080   10.7520    1.4430 n         1 BTX     -0.514900
     34 C3B        -1.9770    9.6310    1.9150 c         1 BTX      0.745500
     35 O3B        -2.5420    9.5880    2.9280 o         1 BTX     -0.617500
     36 N2B        -2.1490    8.6430    0.7430 n         1 BTX     -0.519900
     37 C4B        -1.5640    9.1550   -0.2990 c3        1 BTX      0.067700
     38 H5'1       -0.6250   -3.2730    1.3700 h1        1 BTX      0.024700
     39 H5'2        0.9210   -3.3010    0.8570 h1        1 BTX      0.024700
     40 H4'        -0.8130   -3.8980   -1.2140 h1        1 BTX      0.095700
     41 H3'        -1.1190   -5.5160    1.3060 h1        1 BTX      0.090700
     42 H3         -3.2100   -5.0620    1.0320 ho        1 BTX      0.483000
     43 H1         -1.3500   -7.2260    0.3150 h1        1 BTX      0.086700
     44 H2'        -2.8140   -7.1170   -1.2500 ho        1 BTX      0.427000
     45 H1'         0.1950   -6.6010   -1.8760 h2        1 BTX      0.112700
     46 H8          2.3840   -5.8890    0.5750 DU        1 BTX      0.220000
     47 HN61        3.9850  -11.5500    0.6190 hn        1 BTX      0.429800
     48 HN62        4.2430  -11.2900   -0.9200 hn        1 BTX      0.429800
     49 H4         -0.1530  -11.3640   -1.5920 ha        1 BTX      0.121500
     50 H111        1.4600    1.9840   -0.2500 h1        1 BTX      0.036200
     51 H112        0.6230    2.0560    1.1740 h1        1 BTX      0.036200
     52 H101       -1.2250    3.0420   -0.0070 hc        1 BTX      0.044700
     53 H102       -0.3570    3.0310   -1.3330 hc        1 BTX      0.044700
     54 H9B1        1.2030    4.4230   -0.2780 hc        1 BTX      0.042200
     55 H9B2        0.2490    4.5190    0.9610 hc        1 BTX      0.042200
     56 H8B1       -0.1390    5.6300   -1.6390 hc        1 BTX      0.040200
     57 H8B2       -1.4350    5.3230   -0.6860 hc        1 BTX      0.040200
     58 H7B1       -0.8420    6.9140    0.8170 hc        1 BTX      0.058700
     59 H7B2        0.6900    6.8730    0.4150 hc        1 BTX      0.058700
     60 H2B        -0.7620    7.7890   -1.8120 h1        1 BTX      0.093700
     61 H6B1        0.8750    9.6920    0.9650 h1        1 BTX      0.076700
     62 H6B2        1.1400   10.8710   -0.2250 h1        1 BTX      0.076700
     63 H5B        -0.9180   11.2150   -0.4050 h1        1 BTX      0.086700
     64 H1B        -0.7710   11.4650    1.9760 hn        1 BTX      0.305500
     65 H2         -2.6180    7.8940    0.7610 hn        1 BTX      0.329500
     66 H4B        -2.2260    9.3980   -0.9760 h1        1 BTX      0.084700
@<TRIPOS>BOND
     1    1    2 2   
     2    1    4 1   
     3    1   24 1   
     4    4    5 1   
     5    5    6 1   
     6    5   38 1   
     7    5   39 1   
     8    6    7 1   
     9    6    8 1   
    10    6   40 1   
    11    7   12 1   
    12    8    9 1   
    13    8   10 1   
    14    8   41 1   
    15    9   42 1   
    16   10   11 1   
    17   10   12 1   
    18   10   43 1   
    19   11   44 1   
    20   12   13 1   
    21   12   45 1   
    22   13   14 2   
    23   13   22 1   
    24   14   15 2   
    25   15   16 1   
    26   16   22 3   
    27   17   18 1   
    28   17   19 3   
    29   18   47 1   
    30   18   48 1   
    31   20   21 3   
    32   20   49 1   
    33   23   24 1   
    34   23   25 1   
    35   23   50 1   
    36   23   51 1   
    37   25   26 1   
    38   25   52 1   
    39   25   53 1   
    40   26   27 1   
    41   26   54 1   
    42   26   55 1   
    43   27   28 1   
    44   27   56 1   
    45   27   57 1   
    46   28   29 1   
    47   28   58 1   
    48   28   59 1   
    49   29   30 1   
    50   29   37 1   
    51   29   60 1   
    52   30   31 1   
    53   31   32 1   
    54   31   61 1   
    55   31   62 1   
    56   32   33 1   
    57   32   37 1   
    58   32   63 1   
    59   33   34 1   
    60   33   64 1   
    61   34   35 2   
    62   34   36 1   
    63   36   37 1   
    64   36   65 1   
    65   37   66 1   
@<TRIPOS>SUBSTRUCTURE
     1 BTX         1 TEMP              0 ****  ****    0 ROOT
