@<TRIPOS>MOLECULE
BTY
   20    21     1     0     0
SMALL
bcc


@<TRIPOS>ATOM
      1 C1          0.0280    0.0370    0.0270 cc        1 BTY      0.643700
      2 C3          2.1170   -0.0060    1.1640 c         1 BTY      0.842900
      3 C5          0.0690    0.0900    2.4630 cc        1 BTY      0.090300
      4 C8         -2.1850    0.0170    2.7770 cd        1 BTY      0.459600
      5 O12         3.3490   -0.0410    1.1140 o         1 BTY     -0.480500
      6 N2          1.3360   -0.0410   -0.0550 nd        1 BTY     -0.605100
      7 N4          1.4480    0.0720    2.4120 n         1 BTY     -0.451100
      8 C9         -0.8900   -0.0090    3.4690 cd        1 BTY     -0.300300
      9 C10        -3.4780   -0.0470    3.4850 c3        1 BTY     -0.159400
     10 N7         -2.0280    0.1140    1.4340 nc        1 BTY     -0.564800
     11 N6         -0.6890    0.2390    1.2200 na        1 BTY     -0.017700
     12 N11        -0.7750   -0.0040   -1.2370 n4        1 BTY     -0.797600
     13 HN4         1.9800    0.0850    3.2590 hn        1 BTY      0.391500
     14 H9         -0.7440   -0.0860    4.5430 ha        1 BTY      0.210000
     15 H101       -3.6510    0.9230    4.0210 hc        1 BTY      0.085033
     16 H102       -4.3360   -0.2280    2.7910 hc        1 BTY      0.085033
     17 H103       -3.4440   -0.8710    4.2420 hc        1 BTY      0.085033
     18 H111       -1.3180    0.8670   -1.3200 hn        1 BTY      0.494133
     19 H112       -1.4220   -0.8040   -1.1960 hn        1 BTY      0.494133
     20 H113       -0.1480   -0.1020   -2.0500 hn        1 BTY      0.494133
@<TRIPOS>BOND
     1    1    6 2   
     2    1   11 1   
     3    1   12 1   
     4    2    5 2   
     5    2    6 1   
     6    2    7 1   
     7    3    7 1   
     8    3    8 2   
     9    3   11 1   
    10    4    8 1   
    11    4    9 1   
    12    4   10 2   
    13    7   13 1   
    14    8   14 1   
    15    9   15 1   
    16    9   16 1   
    17    9   17 1   
    18   10   11 1   
    19   12   18 1   
    20   12   19 1   
    21   12   20 1   
@<TRIPOS>SUBSTRUCTURE
     1 BTY         1 TEMP              0 ****  ****    0 ROOT
