@<TRIPOS>MOLECULE
BTY
   19    15     1     0     0
SMALL
bcc


@<TRIPOS>ATOM
      1 C1          0.7660   -0.0000   -1.7990 c1        1 BTY      0.338000
      2 C3          2.8730   -0.0000   -0.5860 c1        1 BTY      0.370000
      3 C5          0.7200   -0.0000    0.6310 c1        1 BTY      0.041500
      4 C8         -1.4600   -0.0000    1.0930 c1        1 BTY      0.041500
      5 O12         4.0880    0.0010   -0.5850 o         1 BTY     -0.321000
      6 N2          2.1750   -0.0000   -1.7990 n1        1 BTY     -0.308000
      7 N4          2.1670   -0.0000    0.6330 n2        1 BTY     -0.333000
      8 C9         -0.2050   -0.0000    1.6550 c1        1 BTY     -0.295000
      9 C10        -2.8250   -0.0050    1.7450 c2        1 BTY     -0.156000
     10 N7         -1.3150   -0.0000   -0.2580 n2        1 BTY     -0.138500
     11 N6          0.0420   -0.0000   -0.5450 n2        1 BTY     -0.138500
     12 N11         0.0560    0.0040   -3.0270 n3        1 BTY     -0.361000
     13 HN4         2.6220    0.0050    1.4230 hn        1 BTY      0.267000
     14 H9         -0.0040    0.0200    2.6100 DU        1 BTY      0.177000
     15 H101       -2.7560    0.3530    2.6500 ha        1 BTY      0.097333
     16 H102       -3.1650   -0.9200    1.7820 ha        1 BTY      0.097333
     17 H103       -3.4370    0.5480    1.2220 ha        1 BTY      0.097333
     18 H111        0.5130   -0.0020   -3.8170 hn        1 BTY      0.262500
     19 H112       -0.8560   -0.0010   -3.0270 hn        1 BTY      0.262500
@<TRIPOS>BOND
     1    1    6 1   
     2    1   12 1   
     3    2    5 1   
     4    2    7 1   
     5    3    8 1   
     6    3   11 1   
     7    4    8 1   
     8    4   10 1   
     9    7   13 1   
    10    9   15 1   
    11    9   16 1   
    12    9   17 1   
    13   10   11 1   
    14   12   18 1   
    15   12   19 1   
@<TRIPOS>SUBSTRUCTURE
     1 BTY         1 TEMP              0 ****  ****    0 ROOT
