@<TRIPOS>MOLECULE
BTY
   20    21     1     0     0
SMALL
bcc


@<TRIPOS>ATOM
      1 C1          0.0290   -0.0180    0.0280 cc        1 BTY      0.643700
      2 C3          2.1170    0.0450    1.1650 c         1 BTY      0.842900
      3 C5          0.0700   -0.0600    2.4640 cc        1 BTY      0.090300
      4 C8         -2.1860   -0.0020    2.7760 cd        1 BTY      0.459600
      5 O12         3.3490    0.0890    1.1160 o         1 BTY     -0.480500
      6 N2          1.3360    0.0690   -0.0540 nd        1 BTY     -0.605100
      7 N4          1.4480   -0.0320    2.4130 ns        1 BTY     -0.451100
      8 C9         -0.8910    0.0360    3.4690 cd        1 BTY     -0.300300
      9 C10        -3.4790    0.0550    3.4830 c3        1 BTY     -0.159400
     10 N7         -2.0270   -0.1030    1.4340 nc        1 BTY     -0.564800
     11 N6         -0.6870   -0.2200    1.2210 na        1 BTY     -0.017700
     12 N11        -0.7730    0.0120   -1.2370 nz        1 BTY     -0.797600
     13 HN4         1.9790   -0.0380    3.2600 hn        1 BTY      0.391500
     14 H9         -0.7470    0.1190    4.5430 ha        1 BTY      0.210000
     15 H101       -3.4510    0.8810    4.2390 hc        1 BTY      0.085033
     16 H102       -3.6470   -0.9140    4.0210 hc        1 BTY      0.085033
     17 H103       -4.3380    0.2300    2.7880 hc        1 BTY      0.085033
     18 H111       -1.4260    0.8080   -1.2000 hn        1 BTY      0.494133
     19 H112       -0.1470    0.1110   -2.0500 hn        1 BTY      0.494133
     20 H113       -1.3110   -0.8640   -1.3160 hn        1 BTY      0.494133
@<TRIPOS>BOND
     1    1    6 2   
     2    1   11 1   
     3    1   12 1   
     4    2    5 2   
     5    2    6 1   
     6    2    7 1   
     7    3    7 1   
     8    3    8 2   
     9    3   11 1   
    10    4    8 1   
    11    4    9 1   
    12    4   10 2   
    13    7   13 1   
    14    8   14 1   
    15    9   15 1   
    16    9   16 1   
    17    9   17 1   
    18   10   11 1   
    19   12   18 1   
    20   12   19 1   
    21   12   20 1   
@<TRIPOS>SUBSTRUCTURE
     1 BTY         1 TEMP              0 ****  ****    0 ROOT
