@<TRIPOS>MOLECULE
BTY
   20    21     1     0     0
SMALL
bcc


@<TRIPOS>ATOM
      1 C1          0.0290    0.0350    0.0270 cc        1 BTY      0.643700
      2 C3          2.1170   -0.0260    1.1640 c         1 BTY      0.842900
      3 C5          0.0700    0.0820    2.4640 cc        1 BTY      0.090300
      4 C8         -2.1850    0.0250    2.7760 cd        1 BTY      0.459600
      5 O12         3.3490   -0.0700    1.1140 o         1 BTY     -0.480500
      6 N2          1.3360   -0.0520   -0.0550 nd        1 BTY     -0.605100
      7 N4          1.4480    0.0540    2.4130 n         1 BTY     -0.451100
      8 C9         -0.8900   -0.0120    3.4690 cd        1 BTY     -0.300300
      9 C10        -3.4780   -0.0310    3.4850 c3        1 BTY     -0.159400
     10 N7         -2.0270    0.1240    1.4340 nc        1 BTY     -0.564800
     11 N6         -0.6870    0.2390    1.2210 na        1 BTY     -0.017700
     12 N11        -0.7750    0.0030   -1.2370 n4        1 BTY     -0.797600
     13 HN4         1.9800    0.0610    3.2590 hn        1 BTY      0.391500
     14 H9         -0.7450   -0.0930    4.5430 ha        1 BTY      0.210000
     15 H101       -3.6490    0.9420    4.0140 hc        1 BTY      0.085033
     16 H102       -3.4470   -0.8510    4.2470 hc        1 BTY      0.085033
     17 H103       -4.3370   -0.2130    2.7910 hc        1 BTY      0.085033
     18 H111       -1.3120    0.8780   -1.3180 hn        1 BTY      0.494133
     19 H112       -0.1490   -0.0980   -2.0500 hn        1 BTY      0.494133
     20 H113       -1.4270   -0.7930   -1.1980 hn        1 BTY      0.494133
@<TRIPOS>BOND
     1    1    6 2   
     2    1   11 1   
     3    1   12 1   
     4    2    5 2   
     5    2    6 1   
     6    2    7 1   
     7    3    7 1   
     8    3    8 2   
     9    3   11 1   
    10    4    8 1   
    11    4    9 1   
    12    4   10 2   
    13    7   13 1   
    14    8   14 1   
    15    9   15 1   
    16    9   16 1   
    17    9   17 1   
    18   10   11 1   
    19   12   18 1   
    20   12   19 1   
    21   12   20 1   
@<TRIPOS>SUBSTRUCTURE
     1 BTY         1 TEMP              0 ****  ****    0 ROOT
