@<TRIPOS>MOLECULE
BTY
   19    20     1     0     0
SMALL
bcc


@<TRIPOS>ATOM
      1 C1         -0.8150   -1.3050   -0.0040 cc        1 BTY      0.816700
      2 C3         -2.1670    0.6670    0.0090 c         1 BTY      0.851900
      3 C5          0.2430    0.9290    0.0070 cc        1 BTY      0.093300
      4 C8          2.4070    0.2560   -0.0070 cd        1 BTY      0.380600
      5 O12        -3.2720    1.2390    0.0140 o         1 BTY     -0.596500
      6 N2         -2.0340   -0.7360   -0.0010 nd        1 BTY     -0.735100
      7 N4         -1.0080    1.5040    0.0140 n         1 BTY     -0.479100
      8 C9          1.5530    1.4350   -0.0020 cd        1 BTY     -0.360300
      9 C10         3.8820    0.3120   -0.0030 c3        1 BTY     -0.132400
     10 N7          1.6710   -0.8870   -0.0030 nc        1 BTY     -0.527800
     11 N6          0.3750   -0.5040    0.0110 na        1 BTY     -0.026700
     12 N11        -0.6820   -2.6750   -0.0240 nh        1 BTY     -0.922800
     13 HN4        -1.0980    2.4930    0.0180 hn        1 BTY      0.353500
     14 H9          1.8760    2.4670   -0.0060 ha        1 BTY      0.177000
     15 H101        4.2480    0.4170    1.0500 hc        1 BTY      0.058033
     16 H102        4.3370   -0.6080   -0.4450 hc        1 BTY      0.058033
     17 H103        4.2220    1.2010   -0.5900 hc        1 BTY      0.058033
     18 H111       -1.5010   -3.2360   -0.0180 hn        1 BTY      0.467300
     19 H112        0.2100   -3.1040   -0.0100 hn        1 BTY      0.467300
@<TRIPOS>BOND
     1    1    6 2   
     2    1   11 1   
     3    1   12 1   
     4    2    5 2   
     5    2    6 1   
     6    2    7 1   
     7    3    7 1   
     8    3    8 2   
     9    3   11 1   
    10    4    8 1   
    11    4    9 1   
    12    4   10 2   
    13    7   13 1   
    14    8   14 1   
    15    9   15 1   
    16    9   16 1   
    17    9   17 1   
    18   10   11 1   
    19   12   18 1   
    20   12   19 1   
@<TRIPOS>SUBSTRUCTURE
     1 BTY         1 TEMP              0 ****  ****    0 ROOT
