@<TRIPOS>MOLECULE
BTZ
   37    38     1     0     0
SMALL
bcc


@<TRIPOS>ATOM
      1 C44         5.5740   -0.7310    0.3090 cc        1 BTZ     -0.251400
      2 O49        -0.3740    2.7930   -1.0490 o         1 BTZ     -0.615100
      3 NP         -0.7130    1.1790    0.5530 n         1 BTZ     -0.547900
      4 C50        -2.1150    1.4540    0.7030 c3        1 BTZ      0.086000
      5 C51        -3.0370    0.3690    0.1380 c3        1 BTZ     -0.106400
      6 C52        -4.4810    0.7350    0.4060 c3        1 BTZ     -0.089400
      7 C53        -5.4020   -0.3420   -0.1660 c3        1 BTZ      0.170800
      8 C54        -7.6970   -1.1770    0.0040 c2        1 BTZ      0.743100
      9 NR         -6.8110   -0.0350    0.0050 nh        1 BTZ     -0.792200
     10 NS         -7.5370   -2.0900   -1.0870 nh        1 BTZ     -0.929800
     11 NT         -8.5620   -1.3090    0.9800 n2        1 BTZ     -0.875100
     12 C48         1.4790    1.3950   -0.5530 cc        1 BTZ      0.277800
     13 C47         2.3640    2.1010   -1.3690 cd        1 BTZ     -0.193400
     14 S46         3.8580    1.3800   -1.3760 ss        1 BTZ     -0.053300
     15 C46         3.3010    0.1510   -0.2910 cd        1 BTZ      0.363400
     16 NO          2.0200    0.2740    0.0660 nc        1 BTZ     -0.587000
     17 S43         6.2830   -2.1480    0.8210 ss        1 BTZ     -0.053300
     18 C43         4.7660   -2.9380    0.8150 cc        1 BTZ      0.362300
     19 NN          3.7360   -2.1890    0.4460 nd        1 BTZ     -0.579000
     20 C45         4.1970   -0.9020    0.1480 cd        1 BTZ      0.296300
     21 H44         6.1150    0.1980    0.1370 h4        1 BTZ      0.186000
     22 HNP        -0.3690    0.3510    0.9810 hn        1 BTZ      0.328500
     23 H501       -2.3250    1.5650    1.8070 h1        1 BTZ      0.063200
     24 H502       -2.3530    2.4350    0.2000 h1        1 BTZ      0.063200
     25 H511       -2.8700    0.2650   -0.9660 hc        1 BTZ      0.049700
     26 H512       -2.8030   -0.6210    0.6090 hc        1 BTZ      0.049700
     27 H521       -4.6470    0.8370    1.5110 hc        1 BTZ      0.052200
     28 H522       -4.7120    1.7280   -0.0620 hc        1 BTZ      0.052200
     29 H531       -5.2100   -0.4270   -1.2740 h1        1 BTZ      0.043200
     30 H532       -5.1250   -1.3310    0.3010 h1        1 BTZ      0.043200
     31 HNR        -6.9720    0.5470    0.8080 hn        1 BTZ      0.404800
     32 HNS1       -7.0140   -1.7400   -1.8600 hn        1 BTZ      0.391800
     33 HNS2       -8.3900   -2.5190   -1.3740 hn        1 BTZ      0.391800
     34 HNT        -9.2200   -2.0490    0.8790 hn        1 BTZ      0.390400
     35 H47         2.0860    3.0010   -1.9220 h4        1 BTZ      0.208000
     36 H43         4.6350   -3.9880    1.0950 h5        1 BTZ      0.061100
     37 C49         0.0620    1.8310   -0.3810 c         1 BTZ      0.593600
@<TRIPOS>BOND
     1    1   17 1   
     2    1   20 2   
     3    1   21 1   
     4    2   37 2   
     5    3    4 1   
     6    3   22 1   
     7    3   37 1   
     8    4    5 1   
     9    4   23 1   
    10    4   24 1   
    11    5    6 1   
    12    5   25 1   
    13    5   26 1   
    14    6    7 1   
    15    6   27 1   
    16    6   28 1   
    17    7    9 1   
    18    7   29 1   
    19    7   30 1   
    20    8    9 1   
    21    8   10 1   
    22    8   11 2   
    23    9   31 1   
    24   10   32 1   
    25   10   33 1   
    26   11   34 1   
    27   12   13 2   
    28   12   16 1   
    29   12   37 1   
    30   13   14 1   
    31   13   35 1   
    32   14   15 1   
    33   15   16 2   
    34   15   20 1   
    35   17   18 1   
    36   18   19 2   
    37   18   36 1   
    38   19   20 1   
@<TRIPOS>SUBSTRUCTURE
     1 BTZ         1 TEMP              0 ****  ****    0 ROOT
