@<TRIPOS>MOLECULE
BTZ
   37    32     1     0     0
SMALL
bcc


@<TRIPOS>ATOM
      1 C44         6.4290    0.4300   -4.2130 c1        1 BTZ     -0.409000
      2 C49         0.6240    0.4740   -2.1980 c1        1 BTZ      0.377000
      3 O49        -0.0540    0.1370   -3.1350 o         1 BTZ     -0.374000
      4 NP          0.1420    0.2790   -0.8530 n3        1 BTZ     -0.359000
      5 C50        -1.2690    0.3940   -0.5710 c3        1 BTZ     -0.030000
      6 C51        -1.6490   -0.5770    0.5710 c3        1 BTZ     -0.185000
      7 C52        -3.0160   -0.1910    1.1270 c3        1 BTZ     -0.166000
      8 C53        -3.3090   -1.0160    2.3930 c3        1 BTZ     -0.040000
      9 C54        -5.0180   -0.9010    4.2760 c1        1 BTZ      0.171000
     10 NR         -4.6840   -0.7040    2.8820 n3        1 BTZ     -0.347000
     11 NS         -5.2920   -2.2300    4.7730 n2        1 BTZ     -0.322000
     12 NT         -5.0720    0.1280    5.0890 n1        1 BTZ     -0.358000
     13 C48         2.0100    0.9970   -2.4280 c1        1 BTZ     -0.139000
     14 C47         2.3640    2.3640   -2.5930 c1        1 BTZ     -0.430000
     15 S46         3.8600    2.4320   -2.8260 ss        1 BTZ      0.632000
     16 C46         4.4040    0.9870   -2.7920 c2        1 BTZ     -0.236000
     17 NO          3.3220    0.1250   -2.5570 n2        1 BTZ     -0.098000
     18 S43         7.8540    0.0190   -3.9160 ss        1 BTZ      0.519000
     19 C43         8.0060   -0.0490   -2.3810 c1        1 BTZ     -0.341000
     20 NN          6.7630    0.2970   -1.8060 n2        1 BTZ     -0.100000
     21 C45         5.7510    0.6030   -2.9580 c2        1 BTZ     -0.043000
     22 H44         6.0390    0.5560   -5.1000 DU        1 BTZ      0.187750
     23 HNP         0.7510    0.1510   -0.1530 hn        1 BTZ      0.237000
     24 H501       -1.4740    1.3170   -0.2970 h1        1 BTZ      0.102500
     25 H502       -1.7850    0.1680   -1.3790 h1        1 BTZ      0.102500
     26 H511       -0.9820   -0.5230    1.2800 hc        1 BTZ      0.088500
     27 H512       -1.6830   -1.4910    0.2240 hc        1 BTZ      0.088500
     28 H521       -3.0200    0.7530    1.3500 hc        1 BTZ      0.090000
     29 H522       -3.7000   -0.3700    0.4570 hc        1 BTZ      0.090000
     30 H531       -3.2440   -1.9860    2.1780 h1        1 BTZ      0.078000
     31 H532       -2.6490   -0.7900    3.0980 h1        1 BTZ      0.078000
     32 HNR        -5.2940   -0.3130    2.3170 hn        1 BTZ      0.199000
     33 HNS1       -4.8140   -2.9450    4.4540 hn        1 BTZ      0.188000
     34 HNS2       -5.9840   -2.3680    5.3720 hn        1 BTZ      0.188000
     35 HNT        -4.8930    0.9930    4.7650 DU        1 BTZ      0.187750
     36 H47         1.7400    3.1410   -2.5600 DU        1 BTZ      0.187750
     37 H43         8.8270   -0.2900   -1.8870 DU        1 BTZ      0.187750
@<TRIPOS>BOND
     1    1   18 1   
     2    1   21 1   
     3    2    3 1   
     4    2    4 1   
     5    4    5 1   
     6    4   23 1   
     7    5    6 1   
     8    5   24 1   
     9    5   25 1   
    10    6    7 1   
    11    6   26 1   
    12    6   27 1   
    13    7    8 1   
    14    7   28 1   
    15    7   29 1   
    16    8   10 1   
    17    8   30 1   
    18    8   31 1   
    19    9   10 1   
    20    9   12 1   
    21   10   32 1   
    22   11   33 1   
    23   11   34 1   
    24   13   14 1   
    25   13   17 1   
    26   14   15 1   
    27   15   16 1   
    28   16   17 1   
    29   16   21 1   
    30   18   19 1   
    31   19   20 1   
    32   20   21 1   
@<TRIPOS>SUBSTRUCTURE
     1 BTZ         1 TEMP              0 ****  ****    0 ROOT
