@<TRIPOS>MOLECULE
BTZ
   40    41     1     0     0
SMALL
bcc


@<TRIPOS>ATOM
      1 C44        -0.4200   -0.6060   -0.4730 cc        1 BTZ     -0.262400
      2 O49        -5.2470    0.8010    4.6020 o         1 BTZ     -0.439100
      3 NP         -3.1430    0.1790    5.4300 n4        1 BTZ     -0.677800
      4 C50        -3.7700    0.3600    6.7610 c3        1 BTZ      0.103800
      5 C51        -2.8270    0.0780    7.9320 c3        1 BTZ     -0.102400
      6 C52        -3.5820    0.2970    9.2360 c3        1 BTZ     -0.108400
      7 C53        -2.6480    0.0190   10.4170 c3        1 BTZ      0.105800
      8 C54        -2.4590   -0.0430   12.9330 c2        1 BTZ      0.612100
      9 NR         -3.3520    0.2230   11.7410 n4        1 BTZ     -0.787000
     10 NS         -3.1390    0.1520   14.2640 n4        1 BTZ     -0.821600
     11 NT         -1.2410   -0.4010   12.9600 n2        1 BTZ     -0.578100
     12 C48        -3.5340    0.3020    2.9590 cc        1 BTZ      0.174800
     13 C47        -4.2460    0.5150    1.7620 cd        1 BTZ     -0.167400
     14 S46        -3.2920    0.2380    0.4660 ss        1 BTZ      0.180700
     15 C46        -1.9360   -0.1640    1.4830 cd        1 BTZ      0.419400
     16 NO         -2.2020   -0.0900    2.7890 nc        1 BTZ     -0.642000
     17 S43         1.1350   -1.0620   -0.7650 ss        1 BTZ      0.142700
     18 C43         1.4590   -1.1610    0.9010 cc        1 BTZ      0.334300
     19 NN          0.4390   -0.8630    1.7030 nd        1 BTZ     -0.593000
     20 C45        -0.6630   -0.5370    0.9100 cd        1 BTZ      0.224300
     21 H44        -1.1540   -0.3880   -1.2510 h4        1 BTZ      0.194000
     22 HNP        -2.8040   -0.7850    5.3180 hn        1 BTZ      0.471800
     23 H501       -4.1510    1.4220    6.8160 hx        1 BTZ      0.120700
     24 H502       -4.6670   -0.3260    6.8110 hx        1 BTZ      0.120700
     25 H511       -2.4510   -0.9790    7.8820 hc        1 BTZ      0.083700
     26 H512       -1.9370    0.7630    7.8870 hc        1 BTZ      0.083700
     27 H521       -3.9580    1.3560    9.2720 hc        1 BTZ      0.093700
     28 H522       -4.4720   -0.3890    9.2680 hc        1 BTZ      0.093700
     29 H531       -2.2900   -1.0510   10.3720 hx        1 BTZ      0.127700
     30 H532       -1.7670    0.7250   10.3770 hx        1 BTZ      0.127700
     31 HNR        -4.1680   -0.4110   11.7680 hn        1 BTZ      0.485800
     32 HNS1       -3.4570    1.1280   14.3770 hn        1 BTZ      0.518467
     33 HNS2       -2.4550   -0.0500   15.0320 hn        1 BTZ      0.518467
     34 HNT        -0.6520   -0.5720   12.1650 hn        1 BTZ      0.545400
     35 H47        -5.2980    0.8250    1.7250 h4        1 BTZ      0.225000
     36 H43         2.4340   -1.4490    1.3140 h5        1 BTZ      0.079100
     37 HP2        -2.3350    0.8050    5.3230 hn        1 BTZ      0.471800
     38 HR2        -3.6950    1.1980   11.7720 hn        1 BTZ      0.485800
     39 HS3        -3.9340   -0.4980   14.3730 hn        1 BTZ      0.518467
     40 C49        -4.1220    0.4710    4.2640 c         1 BTZ      0.518600
@<TRIPOS>BOND
     1    1   17 1   
     2    1   20 2   
     3    1   21 1   
     4    2   40 2   
     5    3    4 1   
     6    3   22 1   
     7    3   37 1   
     8    3   40 1   
     9    4    5 1   
    10    4   23 1   
    11    4   24 1   
    12    5    6 1   
    13    5   25 1   
    14    5   26 1   
    15    6    7 1   
    16    6   27 1   
    17    6   28 1   
    18    7    9 1   
    19    7   29 1   
    20    7   30 1   
    21    8    9 1   
    22    8   10 1   
    23    8   11 2   
    24    9   31 1   
    25    9   38 1   
    26   10   32 1   
    27   10   33 1   
    28   10   39 1   
    29   11   34 1   
    30   12   13 2   
    31   12   16 1   
    32   12   40 1   
    33   13   14 1   
    34   13   35 1   
    35   14   15 1   
    36   15   16 2   
    37   15   20 1   
    38   17   18 1   
    39   18   19 2   
    40   18   36 1   
    41   19   20 1   
@<TRIPOS>SUBSTRUCTURE
     1 BTZ         1 TEMP              0 ****  ****    0 ROOT
