@<TRIPOS>MOLECULE
BU1
   16    15     1     0     0
SMALL
bcc


@<TRIPOS>ATOM
      1 C1          0.5380   -0.0000    1.8410 c3        1 BU1      0.133400
      2 C2         -0.3960   -0.0000    0.6430 c3        1 BU1     -0.084400
      3 C3          0.3960    0.0000   -0.6430 c3        1 BU1     -0.084400
      4 C4         -0.5380    0.0000   -1.8410 c3        1 BU1      0.133400
      5 O5         -0.2780   -0.0000    3.0030 oh        1 BU1     -0.602800
      6 O6          0.2780    0.0000   -3.0030 oh        1 BU1     -0.602800
      7 H11         1.1920    0.9130    1.8330 h1        1 BU1      0.021700
      8 H12         1.1920   -0.9130    1.8330 h1        1 BU1      0.021700
      9 H21        -1.0600   -0.9020    0.6930 hc        1 BU1      0.054700
     10 H22        -1.0600    0.9020    0.6930 hc        1 BU1      0.054700
     11 H31         1.0600    0.9020   -0.6930 hc        1 BU1      0.054700
     12 H32         1.0600   -0.9020   -0.6930 hc        1 BU1      0.054700
     13 H41        -1.1920   -0.9130   -1.8330 h1        1 BU1      0.021700
     14 H42        -1.1920    0.9130   -1.8330 h1        1 BU1      0.021700
     15 HO5         0.3210    0.0000    3.7580 ho        1 BU1      0.400000
     16 HO6        -0.3210   -0.0000   -3.7580 ho        1 BU1      0.400000
@<TRIPOS>BOND
     1    1    2 1   
     2    1    5 1   
     3    1    7 1   
     4    1    8 1   
     5    2    3 1   
     6    2    9 1   
     7    2   10 1   
     8    3    4 1   
     9    3   11 1   
    10    3   12 1   
    11    4    6 1   
    12    4   13 1   
    13    4   14 1   
    14    5   15 1   
    15    6   16 1   
@<TRIPOS>SUBSTRUCTURE
     1 BU1         1 TEMP              0 ****  ****    0 ROOT
