@<TRIPOS>MOLECULE
BU1
   16    15     1     0     0
SMALL
bcc


@<TRIPOS>ATOM
      1 C1          0.0020    0.0000    0.0150 c3        1 BU1      0.133400
      2 C2          1.5210   -0.0000    0.0130 c3        1 BU1     -0.084400
      3 C3          2.0500   -0.0000    1.4280 c3        1 BU1     -0.084400
      4 C4          3.5690   -0.0000    1.4260 c3        1 BU1      0.133400
      5 O5         -0.4150   -0.0000   -1.3420 oh        1 BU1     -0.602800
      6 O6          3.9850   -0.0000    2.7830 oh        1 BU1     -0.602800
      7 H11        -0.3930   -0.9130    0.5360 h1        1 BU1      0.021700
      8 H12        -0.3930    0.9130    0.5360 h1        1 BU1      0.021700
      9 H21         1.8880   -0.9020   -0.5420 hc        1 BU1      0.054700
     10 H22         1.8880    0.9020   -0.5420 hc        1 BU1      0.054700
     11 H31         1.6820   -0.9020    1.9830 hc        1 BU1      0.054700
     12 H32         1.6820    0.9020    1.9830 hc        1 BU1      0.054700
     13 H41         3.9630   -0.9130    0.9050 h1        1 BU1      0.021700
     14 H42         3.9630    0.9130    0.9050 h1        1 BU1      0.021700
     15 HO5        -1.3790    0.0000   -1.3340 ho        1 BU1      0.400000
     16 HO6         4.9490    0.0000    2.7750 ho        1 BU1      0.400000
@<TRIPOS>BOND
     1    1    2 1   
     2    1    5 1   
     3    1    7 1   
     4    1    8 1   
     5    2    3 1   
     6    2    9 1   
     7    2   10 1   
     8    3    4 1   
     9    3   11 1   
    10    3   12 1   
    11    4    6 1   
    12    4   13 1   
    13    4   14 1   
    14    5   15 1   
    15    6   16 1   
@<TRIPOS>SUBSTRUCTURE
     1 BU1         1 TEMP              0 ****  ****    0 ROOT
