@<TRIPOS>MOLECULE
BU1
   16    15     1     0     0
SMALL
bcc


@<TRIPOS>ATOM
      1 C1         -1.7650   -0.0000   -0.7130 c3        1 BU1      0.133400
      2 C2         -0.2520   -0.0000   -0.7130 c3        1 BU1     -0.084400
      3 C3          0.2520   -0.0000    0.7130 c3        1 BU1     -0.084400
      4 C4          1.7650    0.0000    0.7130 c3        1 BU1      0.133400
      5 O5         -2.2350   -0.0000   -2.0430 oh        1 BU1     -0.602800
      6 O6          2.2350   -0.0000    2.0430 oh        1 BU1     -0.602800
      7 H11        -2.0900    0.7970   -0.2530 h1        1 BU1      0.021700
      8 H12        -2.0900   -0.7970   -0.2530 h1        1 BU1      0.021700
      9 H21         0.0730   -0.7970   -1.1730 hc        1 BU1      0.054700
     10 H22         0.0730    0.7970   -1.1730 hc        1 BU1      0.054700
     11 H31        -0.0730   -0.7970    1.1730 hc        1 BU1      0.054700
     12 H32        -0.0730    0.7970    1.1730 hc        1 BU1      0.054700
     13 H41         2.0900   -0.7970    0.2530 h1        1 BU1      0.021700
     14 H42         2.0900    0.7970    0.2530 h1        1 BU1      0.021700
     15 HO5        -3.1230   -0.0000   -2.0430 ho        1 BU1      0.400000
     16 HO6         3.1230    0.0000    2.0430 ho        1 BU1      0.400000
@<TRIPOS>BOND
     1    1    2 1   
     2    1    5 1   
     3    1    7 1   
     4    1    8 1   
     5    2    3 1   
     6    2    9 1   
     7    2   10 1   
     8    3    4 1   
     9    3   11 1   
    10    3   12 1   
    11    4    6 1   
    12    4   13 1   
    13    4   14 1   
    14    5   15 1   
    15    6   16 1   
@<TRIPOS>SUBSTRUCTURE
     1 BU1         1 TEMP              0 ****  ****    0 ROOT
