@<TRIPOS>MOLECULE
BU2
   16    15     1     0     0
SMALL
bcc


@<TRIPOS>ATOM
      1 C1          1.1000    0.2240   -1.2590 c3        1 BU2      0.133400
      2 O1          2.5080    0.2500   -1.3340 oh        1 BU2     -0.605800
      3 C2          0.6730    0.1330    0.1890 c3        1 BU2     -0.078400
      4 C3         -0.7940   -0.2250    0.2610 c3        1 BU2      0.140100
      5 O3         -0.9360   -1.6260    0.2510 oh        1 BU2     -0.603800
      6 C4         -1.3870    0.3330    1.5360 c3        1 BU2     -0.131100
      7 HC11        0.7620   -0.5550   -1.7490 h1        1 BU2      0.028700
      8 HC12        0.7360    1.0420   -1.6560 h1        1 BU2      0.028700
      9 HO1         2.7580    0.3200   -2.1840 ho        1 BU2      0.399000
     10 HC21        0.8210    0.9950    0.6280 hc        1 BU2      0.063200
     11 HC22        1.2000   -0.5570    0.6420 hc        1 BU2      0.063200
     12 HC3        -1.2600    0.1550   -0.5090 h1        1 BU2      0.030700
     13 HO3        -1.6370   -1.8490   -0.2480 ho        1 BU2      0.400000
     14 HC41       -1.3390    1.3110    1.5170 hc        1 BU2      0.044033
     15 HC42       -2.3230    0.0520    1.6100 hc        1 BU2      0.044033
     16 HC43       -0.8820   -0.0040    2.3050 hc        1 BU2      0.044033
@<TRIPOS>BOND
     1    1    2 1   
     2    1    3 1   
     3    1    7 1   
     4    1    8 1   
     5    2    9 1   
     6    3    4 1   
     7    3   10 1   
     8    3   11 1   
     9    4    5 1   
    10    4    6 1   
    11    4   12 1   
    12    5   13 1   
    13    6   14 1   
    14    6   15 1   
    15    6   16 1   
@<TRIPOS>SUBSTRUCTURE
     1 BU2         1 TEMP              0 ****  ****    0 ROOT
