@<TRIPOS>MOLECULE
BU2
   16    15     1     0     0
SMALL
bcc


@<TRIPOS>ATOM
      1 C1          0.2780   -0.3460   -1.4250 c3        1 BU2      0.131400
      2 O1         -0.2280    0.2620   -2.6030 oh        1 BU2     -0.604800
      3 C2         -0.5710    0.1520   -0.2680 c3        1 BU2     -0.116400
      4 C3          0.0030   -0.3210    1.0620 c3        1 BU2      0.136100
      5 O3          1.3120    0.1880    1.2720 oh        1 BU2     -0.599800
      6 C4         -0.9170    0.0640    2.2070 c3        1 BU2     -0.128100
      7 HC11        1.3520   -0.0570   -1.2680 h1        1 BU2      0.029200
      8 HC12        0.2100   -1.4630   -1.5130 h1        1 BU2      0.029200
      9 HO1         0.3380   -0.0300   -3.3270 ho        1 BU2      0.400000
     10 HC21       -1.6190   -0.2250   -0.3800 hc        1 BU2      0.058700
     11 HC22       -0.6100    1.2720   -0.2940 hc        1 BU2      0.058700
     12 HC3         0.1550   -1.4380    1.0440 h1        1 BU2      0.074700
     13 HO3         1.2450    1.1500    1.3020 ho        1 BU2      0.398000
     14 HC41       -0.4550   -0.2280    3.1800 hc        1 BU2      0.044367
     15 HC42       -1.0940    1.1660    2.2140 hc        1 BU2      0.044367
     16 HC43       -1.8980   -0.4560    2.1000 hc        1 BU2      0.044367
@<TRIPOS>BOND
     1    1    2 1   
     2    1    3 1   
     3    1    7 1   
     4    1    8 1   
     5    2    9 1   
     6    3    4 1   
     7    3   10 1   
     8    3   11 1   
     9    4    5 1   
    10    4    6 1   
    11    4   12 1   
    12    5   13 1   
    13    6   14 1   
    14    6   15 1   
    15    6   16 1   
@<TRIPOS>SUBSTRUCTURE
     1 BU2         1 TEMP              0 ****  ****    0 ROOT
