@<TRIPOS>MOLECULE
BU2
   16    15     1     0     0
SMALL
bcc


@<TRIPOS>ATOM
      1 C1          0.0230    0.0530   -0.0180 c3        1 BU2      0.133400
      2 O1          1.4400    0.0460    0.0720 oh        1 BU2     -0.605800
      3 C2         -0.5130   -0.0510    1.3980 c3        1 BU2     -0.078400
      4 C3         -2.0360    0.0020    1.4040 c3        1 BU2      0.140100
      5 O3         -2.4930   -1.1570    0.7120 oh        1 BU2     -0.603800
      6 C4         -2.5710    0.0390    2.8240 c3        1 BU2     -0.131100
      7 HC11       -0.3380   -0.8150   -0.6320 h1        1 BU2      0.028700
      8 HC12       -0.3160    1.0090   -0.5020 h1        1 BU2      0.028700
      9 HO1         1.7720   -0.0200   -0.8300 ho        1 BU2      0.399000
     10 HC21       -0.1140    0.7920    2.0180 hc        1 BU2      0.063200
     11 HC22       -0.1660   -1.0130    1.8550 hc        1 BU2      0.063200
     12 HC3        -2.3890    0.9150    0.8440 h1        1 BU2      0.030700
     13 HO3        -3.4490   -1.1940    0.8300 ho        1 BU2      0.400000
     14 HC41       -2.2610   -0.8800    3.3780 hc        1 BU2      0.044033
     15 HC42       -2.1750    0.9340    3.3600 hc        1 BU2      0.044033
     16 HC43       -3.6860    0.0890    2.8170 hc        1 BU2      0.044033
@<TRIPOS>BOND
     1    1    2 1   
     2    1    3 1   
     3    1    7 1   
     4    1    8 1   
     5    2    9 1   
     6    3    4 1   
     7    3   10 1   
     8    3   11 1   
     9    4    5 1   
    10    4    6 1   
    11    4   12 1   
    12    5   13 1   
    13    6   14 1   
    14    6   15 1   
    15    6   16 1   
@<TRIPOS>SUBSTRUCTURE
     1 BU2         1 TEMP              0 ****  ****    0 ROOT
