@<TRIPOS>MOLECULE
BU2
   16    15     1     0     0
SMALL
bcc


@<TRIPOS>ATOM
      1 C1          0.0220    0.0560   -0.0190 c3        1 BU2      0.133400
      2 O1          1.4390    0.0430    0.0700 oh        1 BU2     -0.605800
      3 C2         -0.5130   -0.0540    1.3970 c3        1 BU2     -0.078400
      4 C3         -2.0350    0.0040    1.4060 c3        1 BU2      0.140100
      5 O3         -2.4970   -1.1510    0.7090 oh        1 BU2     -0.603800
      6 C4         -2.5690    0.0350    2.8260 c3        1 BU2     -0.131100
      7 HC11       -0.3430   -0.8080   -0.6370 h1        1 BU2      0.028700
      8 HC12       -0.3150    1.0150   -0.4980 h1        1 BU2      0.028700
      9 HO1         1.7690   -0.0200   -0.8340 ho        1 BU2      0.399000
     10 HC21       -0.1100    0.7840    2.0210 hc        1 BU2      0.063200
     11 HC22       -0.1680   -1.0200    1.8490 hc        1 BU2      0.063200
     12 HC3        -2.3860    0.9210    0.8500 h1        1 BU2      0.030700
     13 HO3        -3.4530   -1.1850    0.8280 ho        1 BU2      0.400000
     14 HC41       -2.2610   -0.8860    3.3760 hc        1 BU2      0.044033
     15 HC42       -2.1690    0.9270    3.3650 hc        1 BU2      0.044033
     16 HC43       -3.6840    0.0900    2.8210 hc        1 BU2      0.044033
@<TRIPOS>BOND
     1    1    2 1   
     2    1    3 1   
     3    1    7 1   
     4    1    8 1   
     5    2    9 1   
     6    3    4 1   
     7    3   10 1   
     8    3   11 1   
     9    4    5 1   
    10    4    6 1   
    11    4   12 1   
    12    5   13 1   
    13    6   14 1   
    14    6   15 1   
    15    6   16 1   
@<TRIPOS>SUBSTRUCTURE
     1 BU2         1 TEMP              0 ****  ****    0 ROOT
