@<TRIPOS>MOLECULE
BU3
   16    15     1     0     0
SMALL
bcc


@<TRIPOS>ATOM
      1 O6         -0.0910    0.2830    0.5640 oh        1 BU3     -0.601800
      2 C3          1.2060    0.0930    0.0240 c3        1 BU3      0.105100
      3 C4          2.1670   -0.4290    1.0740 c3        1 BU3     -0.126100
      4 C2          1.7130    1.4150   -0.5950 c3        1 BU3      0.105100
      5 O5          0.7640    2.4440   -0.3700 oh        1 BU3     -0.601800
      6 C1          2.0100    1.2540   -2.0730 c3        1 BU3     -0.126100
      7 HO6        -0.0220    0.9630    1.2480 ho        1 BU3      0.411000
      8 H3          1.0500   -0.6820   -0.7780 h1        1 BU3      0.076700
      9 H41         2.3030    0.3210    1.8900 hc        1 BU3      0.045367
     10 H42         3.1590   -0.6420    0.6120 hc        1 BU3      0.045367
     11 H43         1.7640   -1.3690    1.5220 hc        1 BU3      0.045367
     12 H2          2.6320    1.7760   -0.0520 h1        1 BU3      0.076700
     13 HO5        -0.0600    2.1740   -0.7970 ho        1 BU3      0.411000
     14 H11         2.3490    2.2290   -2.4990 hc        1 BU3      0.045367
     15 H12         1.0960    0.9270   -2.6240 hc        1 BU3      0.045367
     16 H13         2.8120    0.4930   -2.2210 hc        1 BU3      0.045367
@<TRIPOS>BOND
     1    1    2 1   
     2    1    7 1   
     3    2    3 1   
     4    2    4 1   
     5    2    8 1   
     6    3    9 1   
     7    3   10 1   
     8    3   11 1   
     9    4    5 1   
    10    4    6 1   
    11    4   12 1   
    12    5   13 1   
    13    6   14 1   
    14    6   15 1   
    15    6   16 1   
@<TRIPOS>SUBSTRUCTURE
     1 BU3         1 TEMP              0 ****  ****    0 ROOT
