@<TRIPOS>MOLECULE
BU3
   16    15     1     0     0
SMALL
bcc


@<TRIPOS>ATOM
      1 O6         -1.7060   -0.5820    0.4250 oh        1 BU3     -0.601800
      2 C3         -0.3000   -0.6010    0.3550 c3        1 BU3      0.105100
      3 C4          0.2740   -0.6470    1.7530 c3        1 BU3     -0.126100
      4 C2          0.1850    0.6450   -0.3490 c3        1 BU3      0.105100
      5 O5         -0.8620    1.5830   -0.4200 oh        1 BU3     -0.601800
      6 C1          0.6390    0.2900   -1.7470 c3        1 BU3     -0.126100
      7 HO6        -2.0220   -1.3970    0.2630 ho        1 BU3      0.411000
      8 H3         -0.0100   -1.3910   -0.1430 h1        1 BU3      0.076700
      9 H41        -0.1590   -1.3650    2.2600 hc        1 BU3      0.045367
     10 H42         0.1140    0.2110    2.2000 hc        1 BU3      0.045367
     11 H43         1.2380   -0.8150    1.7050 hc        1 BU3      0.045367
     12 H2          0.9340    1.0290    0.1490 h1        1 BU3      0.076700
     13 HO5        -0.5350    2.4020   -0.3040 ho        1 BU3      0.411000
     14 H11        -0.0590   -0.2330   -2.1940 hc        1 BU3      0.045367
     15 H12         1.4630   -0.2390   -1.6990 hc        1 BU3      0.045367
     16 H13         0.8080    1.1110   -2.2540 hc        1 BU3      0.045367
@<TRIPOS>BOND
     1    1    2 1   
     2    1    7 1   
     3    2    3 1   
     4    2    4 1   
     5    2    8 1   
     6    3    9 1   
     7    3   10 1   
     8    3   11 1   
     9    4    5 1   
    10    4    6 1   
    11    4   12 1   
    12    5   13 1   
    13    6   14 1   
    14    6   15 1   
    15    6   16 1   
@<TRIPOS>SUBSTRUCTURE
     1 BU3         1 TEMP              0 ****  ****    0 ROOT
