@<TRIPOS>MOLECULE
BU3
   16    15     1     0     0
SMALL
bcc


@<TRIPOS>ATOM
      1 O6          0.0730   -0.2720   -0.0540 oh        1 BU3     -0.605800
      2 C3          1.4790   -0.1060   -0.0460 c3        1 BU3      0.126100
      3 C4          2.0390   -0.2480    1.3570 c3        1 BU3     -0.129100
      4 C2          1.8730    1.2540   -0.6550 c3        1 BU3      0.126100
      5 O5          1.1260    2.2320    0.0640 oh        1 BU3     -0.605800
      6 C1          1.5670    1.2960   -2.1390 c3        1 BU3     -0.129100
      7 HO6        -0.3020    0.4690    0.4400 ho        1 BU3      0.411000
      8 H3          1.8600   -0.9310   -0.7130 h1        1 BU3      0.056200
      9 H41         1.7170    0.6170    1.9860 hc        1 BU3      0.047200
     10 H42         3.1530   -0.2760    1.3250 hc        1 BU3      0.047200
     11 H43         1.6630   -1.1910    1.8210 hc        1 BU3      0.047200
     12 H2          2.9690    1.4390   -0.4770 h1        1 BU3      0.056200
     13 HO5         1.1710    3.0520   -0.4400 ho        1 BU3      0.411000
     14 H11         1.7760    2.3120   -2.5530 hc        1 BU3      0.047200
     15 H12         0.4910    1.0490   -2.3090 hc        1 BU3      0.047200
     16 H13         2.1970    0.5510   -2.6790 hc        1 BU3      0.047200
@<TRIPOS>BOND
     1    1    2 1   
     2    1    7 1   
     3    2    3 1   
     4    2    4 1   
     5    2    8 1   
     6    3    9 1   
     7    3   10 1   
     8    3   11 1   
     9    4    5 1   
    10    4    6 1   
    11    4   12 1   
    12    5   13 1   
    13    6   14 1   
    14    6   15 1   
    15    6   16 1   
@<TRIPOS>SUBSTRUCTURE
     1 BU3         1 TEMP              0 ****  ****    0 ROOT
