@<TRIPOS>MOLECULE
BU3
   16    15     1     0     0
SMALL
bcc


@<TRIPOS>ATOM
      1 O6          0.6010   -1.2800    1.1040 oh        1 BU3     -0.601800
      2 C3          0.3480    0.0530    0.6900 c3        1 BU3      0.105100
      3 C4         -0.4740    0.8020    1.7200 c3        1 BU3     -0.126100
      4 C2         -0.3470    0.0480   -0.6890 c3        1 BU3      0.105100
      5 O5         -0.5970   -1.2880   -1.0960 oh        1 BU3     -0.601800
      6 C1          0.4720    0.7930   -1.7240 c3        1 BU3     -0.126100
      7 HO6        -0.2530   -1.7290    1.1660 ho        1 BU3      0.411000
      8 H3          1.3770    0.5060    0.6100 h1        1 BU3      0.076700
      9 H41         0.0390    0.7680    2.7120 hc        1 BU3      0.045367
     10 H42        -0.5970    1.8660    1.4110 hc        1 BU3      0.045367
     11 H43        -1.4840    0.3390    1.8300 hc        1 BU3      0.045367
     12 H2         -1.3770    0.4990   -0.6120 h1        1 BU3      0.076700
     13 HO5         0.2590   -1.7350   -1.1550 ho        1 BU3      0.411000
     14 H11        -0.0410    0.7520   -2.7150 hc        1 BU3      0.045367
     15 H12         0.5920    1.8600   -1.4200 hc        1 BU3      0.045367
     16 H13         1.4830    0.3330   -1.8310 hc        1 BU3      0.045367
@<TRIPOS>BOND
     1    1    2 1   
     2    1    7 1   
     3    2    3 1   
     4    2    4 1   
     5    2    8 1   
     6    3    9 1   
     7    3   10 1   
     8    3   11 1   
     9    4    5 1   
    10    4    6 1   
    11    4   12 1   
    12    5   13 1   
    13    6   14 1   
    14    6   15 1   
    15    6   16 1   
@<TRIPOS>SUBSTRUCTURE
     1 BU3         1 TEMP              0 ****  ****    0 ROOT
