@<TRIPOS>MOLECULE
BU4
   16    15     1     0     0
SMALL
bcc


@<TRIPOS>ATOM
      1 C1          1.1390   -0.1320   -1.2250 c3        1 BU4      0.133400
      2 O1          2.5710   -0.1870   -1.2500 oh        1 BU4     -0.605800
      3 C2          0.6610   -0.1430    0.1930 c3        1 BU4     -0.078400
      4 C3         -0.7940    0.1940    0.2240 c3        1 BU4      0.140100
      5 O3         -0.9500    1.6010    0.2530 oh        1 BU4     -0.603800
      6 C4         -1.4390   -0.4190    1.4750 c3        1 BU4     -0.131100
      7 H1          0.8380    0.6840   -1.6590 h1        1 BU4      0.028700
      8 H1A         0.7680   -0.9200   -1.7080 h1        1 BU4      0.028700
      9 HO1         2.8450   -0.1910   -2.0700 ho        1 BU4      0.399000
     10 H2          0.7980   -1.0260    0.5770 hc        1 BU4      0.063200
     11 H2A         1.1580    0.5150    0.7080 hc        1 BU4      0.063200
     12 H3         -1.2180   -0.1560   -0.5570 h1        1 BU4      0.030700
     13 HO3        -1.6800    1.8290   -0.2050 ho        1 BU4      0.400000
     14 H4         -1.4540   -1.3950    1.3880 hc        1 BU4      0.044033
     15 H4A        -2.3400   -0.0910    1.5660 hc        1 BU4      0.044033
     16 H4B        -0.9030   -0.1610    2.2890 hc        1 BU4      0.044033
@<TRIPOS>BOND
     1    1    2 1   
     2    1    3 1   
     3    1    7 1   
     4    1    8 1   
     5    2    9 1   
     6    3    4 1   
     7    3   10 1   
     8    3   11 1   
     9    4    5 1   
    10    4    6 1   
    11    4   12 1   
    12    5   13 1   
    13    6   14 1   
    14    6   15 1   
    15    6   16 1   
@<TRIPOS>SUBSTRUCTURE
     1 BU4         1 TEMP              0 ****  ****    0 ROOT
