@<TRIPOS>MOLECULE
BU4
   16    15     1     0     0
SMALL
bcc


@<TRIPOS>ATOM
      1 C1         -1.4380   -0.3040   -0.3270 c3        1 BU4      0.133400
      2 O1         -2.6340    0.2880    0.1590 oh        1 BU4     -0.605800
      3 C2         -0.2850    0.5460    0.1750 c3        1 BU4     -0.078400
      4 C3          1.0450    0.0130   -0.3430 c3        1 BU4      0.140100
      5 O3          1.2200   -1.2820    0.2250 oh        1 BU4     -0.603800
      6 C4          2.1860    0.9380    0.0380 c3        1 BU4     -0.131100
      7 H1         -1.3350   -1.3560    0.0540 h1        1 BU4      0.028700
      8 H1A        -1.4590   -0.3230   -1.4500 h1        1 BU4      0.028700
      9 HO1        -3.3470   -0.3240   -0.0490 ho        1 BU4      0.399000
     10 H2         -0.4160    1.6040   -0.1700 hc        1 BU4      0.063200
     11 H2A        -0.2830    0.5440    1.2950 hc        1 BU4      0.063200
     12 H3          1.0030   -0.0930   -1.4660 h1        1 BU4      0.030700
     13 HO3         2.1160   -1.5640    0.0070 ho        1 BU4      0.400000
     14 H4          2.2620    1.0200    1.1490 hc        1 BU4      0.044033
     15 H4A         3.1530    0.5440   -0.3560 hc        1 BU4      0.044033
     16 H4B         2.0130    1.9550   -0.3870 hc        1 BU4      0.044033
@<TRIPOS>BOND
     1    1    2 1   
     2    1    3 1   
     3    1    7 1   
     4    1    8 1   
     5    2    9 1   
     6    3    4 1   
     7    3   10 1   
     8    3   11 1   
     9    4    5 1   
    10    4    6 1   
    11    4   12 1   
    12    5   13 1   
    13    6   14 1   
    14    6   15 1   
    15    6   16 1   
@<TRIPOS>SUBSTRUCTURE
     1 BU4         1 TEMP              0 ****  ****    0 ROOT
