@<TRIPOS>MOLECULE
BU4
   16    15     1     0     0
SMALL
bcc


@<TRIPOS>ATOM
      1 C1          0.0190   -0.0350   -0.0200 c3        1 BU4      0.132400
      2 O1          1.4370   -0.0450    0.0660 oh        1 BU4     -0.605800
      3 C2         -0.5110    0.0110    1.4020 c3        1 BU4     -0.078400
      4 C3         -2.0340   -0.0270    1.4110 c3        1 BU4      0.140100
      5 O3         -2.4820    1.1660    0.7740 oh        1 BU4     -0.603800
      6 C4         -2.5650   -0.1230    2.8300 c3        1 BU4     -0.131100
      7 H1         -0.3310   -0.9650   -0.5450 h1        1 BU4      0.028700
      8 H1A        -0.3350    0.8630   -0.5930 h1        1 BU4      0.028700
      9 HO1         1.7660    0.0580   -0.8340 ho        1 BU4      0.399000
     10 H2         -0.1520    0.9480    1.9000 hc        1 BU4      0.063200
     11 H2A        -0.1180   -0.8630    1.9820 hc        1 BU4      0.063200
     12 H3         -2.3980   -0.9110    0.8110 h1        1 BU4      0.030700
     13 HO3        -3.4370    1.2080    0.8970 ho        1 BU4      0.400000
     14 H4         -2.2440    0.7660    3.4240 hc        1 BU4      0.044033
     15 H4A        -2.1770   -1.0460    3.3220 hc        1 BU4      0.044033
     16 H4B        -3.6810   -0.1620    2.8240 hc        1 BU4      0.044033
@<TRIPOS>BOND
     1    1    2 1   
     2    1    3 1   
     3    1    7 1   
     4    1    8 1   
     5    2    9 1   
     6    3    4 1   
     7    3   10 1   
     8    3   11 1   
     9    4    5 1   
    10    4    6 1   
    11    4   12 1   
    12    5   13 1   
    13    6   14 1   
    14    6   15 1   
    15    6   16 1   
@<TRIPOS>SUBSTRUCTURE
     1 BU4         1 TEMP              0 ****  ****    0 ROOT
