@<TRIPOS>MOLECULE
BU4
   16    15     1     0     0
SMALL
bcc


@<TRIPOS>ATOM
      1 C1          0.0220   -0.0270   -0.0180 c3        1 BU4      0.133400
      2 O1          1.4390   -0.0450    0.0710 oh        1 BU4     -0.605800
      3 C2         -0.5120    0.0060    1.4030 c3        1 BU4     -0.078400
      4 C3         -2.0350   -0.0260    1.4080 c3        1 BU4      0.140100
      5 O3         -2.4750    1.1760    0.7830 oh        1 BU4     -0.603800
      6 C4         -2.5700   -0.1340    2.8250 c3        1 BU4     -0.131100
      7 H1         -0.3310   -0.9490   -0.5540 h1        1 BU4      0.028700
      8 H1A        -0.3270    0.8790   -0.5820 h1        1 BU4      0.028700
      9 HO1         1.7710    0.0670   -0.8270 ho        1 BU4      0.399000
     10 H2         -0.1500    0.9360    1.9120 hc        1 BU4      0.063200
     11 H2A        -0.1240   -0.8760    1.9740 hc        1 BU4      0.063200
     12 H3         -2.4010   -0.9010    0.7980 h1        1 BU4      0.030700
     13 HO3        -3.4310    1.2210    0.9030 ho        1 BU4      0.400000
     14 H4         -2.2470    0.7480    3.4280 hc        1 BU4      0.044033
     15 H4A        -2.1860   -1.0630    3.3090 hc        1 BU4      0.044033
     16 H4B        -3.6860   -0.1680    2.8160 hc        1 BU4      0.044033
@<TRIPOS>BOND
     1    1    2 1   
     2    1    3 1   
     3    1    7 1   
     4    1    8 1   
     5    2    9 1   
     6    3    4 1   
     7    3   10 1   
     8    3   11 1   
     9    4    5 1   
    10    4    6 1   
    11    4   12 1   
    12    5   13 1   
    13    6   14 1   
    14    6   15 1   
    15    6   16 1   
@<TRIPOS>SUBSTRUCTURE
     1 BU4         1 TEMP              0 ****  ****    0 ROOT
