@<TRIPOS>MOLECULE
BU6
   40    42     1     0     0
SMALL
bcc


@<TRIPOS>ATOM
      1 C1         -0.5500   -0.4190    0.3460 ca        1 BU6      0.016000
      2 C2          0.7330   -0.1020   -0.0650 ca        1 BU6     -0.182000
      3 C3          1.7310    0.1920    0.8880 ca        1 BU6      0.298900
      4 C4          1.4470    0.1780    2.2800 ca        1 BU6     -0.541500
      5 C5          0.1190   -0.1500    2.6580 ca        1 BU6     -0.016000
      6 C6         -0.8580   -0.4480    1.7230 ca        1 BU6     -0.019600
      7 CL7        -2.4220   -0.8360    2.2230 cl        1 BU6     -0.007400
      8 S8          2.4710    0.5950    3.4640 sy        1 BU6      1.477200
      9 O9          3.5790    1.3140    3.0880 o         1 BU6     -0.560800
     10 O10         1.8380    0.8600    4.6660 o         1 BU6     -0.560800
     11 N11         3.1470   -1.1450    3.8920 n4        1 BU6     -0.506300
     12 C12         4.2260   -1.5700    3.0710 cc        1 BU6     -0.305700
     13 C13         5.4500   -0.8380    2.7740 cc        1 BU6      0.357200
     14 N14         6.2500   -1.6070    2.0030 nd        1 BU6     -0.458800
     15 N15         5.6230   -2.7820    1.8050 na        1 BU6      0.140400
     16 C16         4.3910   -2.8290    2.4300 cd        1 BU6     -0.084300
     17 C17         6.1940   -3.8860    1.0070 c3        1 BU6      0.050000
     18 C18         6.3540   -5.1620    1.8470 c3        1 BU6     -0.093900
     19 C19         6.9400   -6.2760    0.9780 c3        1 BU6      0.163300
     20 N20         6.1580   -6.5150   -0.2180 n3        1 BU6     -0.830200
     21 C21         5.9740   -5.3290   -1.0270 c3        1 BU6      0.163300
     22 C22         5.3470   -4.1760   -0.2400 c3        1 BU6     -0.093900
     23 F23         2.9690    0.4930    0.4570 f         1 BU6     -0.086900
     24 H1         -1.3340   -0.6440   -0.4010 ha        1 BU6      0.189000
     25 H2          0.9910   -0.0680   -1.1380 ha        1 BU6      0.191000
     26 H5         -0.1450   -0.1400    3.7360 ha        1 BU6      0.185000
     27 H11         2.4010   -1.8380    3.8280 hn        1 BU6      0.447300
     28 H13         5.7180    0.1830    3.0680 h4        1 BU6      0.089100
     29 H16         3.7350   -3.7020    2.3870 h4        1 BU6      0.201000
     30 H17         7.2240   -3.5510    0.6690 h1        1 BU6      0.109700
     31 H181        7.0490   -4.9790    2.7070 hc        1 BU6      0.060450
     32 H182        5.3630   -5.4840    2.2590 hc        1 BU6      0.060450
     33 H221        5.3060   -3.2730   -0.9020 hc        1 BU6      0.060450
     34 H222        4.3000   -4.4440    0.0560 hc        1 BU6      0.060450
     35 H191        6.9450   -7.2300    1.5780 h1        1 BU6      0.047950
     36 H192        8.0140   -6.0110    0.7440 h1        1 BU6      0.047950
     37 H20         6.5600   -7.2560   -0.7610 hn        1 BU6      0.387800
     38 H211        6.9420   -4.9600   -1.4780 h1        1 BU6      0.047950
     39 H212        5.2820   -5.5990   -1.8750 h1        1 BU6      0.047950
     40 H112        3.4630   -1.1410    4.8670 hn        1 BU6      0.447300
@<TRIPOS>BOND
     1    1    2 ar  
     2    1    6 ar  
     3    1   24 1   
     4    2    3 ar  
     5    2   25 1   
     6    3    4 ar  
     7    3   23 1   
     8    4    5 ar  
     9    4    8 1   
    10    5    6 ar  
    11    5   26 1   
    12    6    7 1   
    13    8    9 2   
    14    8   10 2   
    15    8   11 1   
    16   11   12 1   
    17   11   27 1   
    18   11   40 1   
    19   12   13 1   
    20   12   16 2   
    21   13   14 2   
    22   13   28 1   
    23   14   15 1   
    24   15   16 1   
    25   15   17 1   
    26   16   29 1   
    27   17   18 1   
    28   17   22 1   
    29   17   30 1   
    30   18   19 1   
    31   18   31 1   
    32   18   32 1   
    33   19   20 1   
    34   19   35 1   
    35   19   36 1   
    36   20   21 1   
    37   20   37 1   
    38   21   22 1   
    39   21   38 1   
    40   21   39 1   
    41   22   33 1   
    42   22   34 1   
@<TRIPOS>SUBSTRUCTURE
     1 BU6         1 TEMP              0 ****  ****    0 ROOT
