@<TRIPOS>MOLECULE
BU6
   39    41     1     0     0
SMALL
bcc


@<TRIPOS>ATOM
      1 C1         -0.6990    0.0220    0.3750 ca        1 BU6     -0.042000
      2 C2          0.6020    0.3170   -0.0000 ca        1 BU6     -0.189000
      3 C3          1.6170    0.4010    0.9780 ca        1 BU6      0.253900
      4 C4          1.3310    0.1910    2.3430 ca        1 BU6     -0.393500
      5 C5          0.0040   -0.1010    2.6920 ca        1 BU6     -0.009000
      6 C6         -0.9980   -0.1890    1.7290 ca        1 BU6     -0.028600
      7 CL7        -2.5910   -0.5490    2.1910 cl        1 BU6     -0.074400
      8 S8          2.4600    0.3060    3.6190 sy        1 BU6      1.514200
      9 O9          3.4010    1.3000    3.3160 o         1 BU6     -0.641800
     10 O10         1.7240    0.4650    4.8150 o         1 BU6     -0.641800
     11 N11         3.1280   -1.1710    3.6640 nh        1 BU6     -0.745500
     12 C12         4.1940   -1.6000    2.8910 cc        1 BU6     -0.057700
     13 C13         5.3790   -0.8360    2.5100 cc        1 BU6      0.299200
     14 N14         6.2060   -1.6100    1.7700 nd        1 BU6     -0.495800
     15 N15         5.6350   -2.8220    1.6690 na        1 BU6      0.093400
     16 C16         4.4000   -2.8780    2.3220 cd        1 BU6     -0.162300
     17 C17         6.2340   -3.9440    0.9450 c3        1 BU6      0.067000
     18 C18         6.5010   -5.1450    1.8660 c3        1 BU6     -0.093400
     19 C19         7.1500   -6.2740    1.0660 c3        1 BU6      0.162800
     20 N20         6.3790   -6.6600   -0.0990 n3        1 BU6     -0.824200
     21 C21         6.0470   -5.5500   -0.9700 c3        1 BU6      0.162800
     22 C22         5.3630   -4.3980   -0.2360 c3        1 BU6     -0.093400
     23 F23         2.8720    0.6880    0.5730 f         1 BU6     -0.110900
     24 H1         -1.4920   -0.0430   -0.3870 ha        1 BU6      0.157000
     25 H2          0.8590    0.4920   -1.0560 ha        1 BU6      0.161000
     26 H5         -0.2490   -0.2450    3.7610 ha        1 BU6      0.180000
     27 H11         2.7850   -1.8680    4.2860 hn        1 BU6      0.457800
     28 H13         5.5870    0.2140    2.7350 h4        1 BU6      0.075100
     29 H16         3.7940   -3.7810    2.3490 h4        1 BU6      0.180000
     30 H17         7.2280   -3.5900    0.5330 h1        1 BU6      0.087700
     31 H181        5.5420   -5.5020    2.3230 hc        1 BU6      0.060450
     32 H182        7.1940   -4.8520    2.6960 hc        1 BU6      0.060450
     33 H221        4.3550   -4.7220    0.1300 hc        1 BU6      0.060450
     34 H222        5.2160   -3.5530   -0.9580 hc        1 BU6      0.060450
     35 H191        8.2000   -5.9530    0.7940 h1        1 BU6      0.034700
     36 H192        7.2330   -7.1810    1.7290 h1        1 BU6      0.034700
     37 H20         6.8640   -7.3700   -0.6140 hn        1 BU6      0.369800
     38 H211        5.3440   -5.9420   -1.7580 h1        1 BU6      0.034700
     39 H212        6.9580   -5.1380   -1.4990 h1        1 BU6      0.034700
@<TRIPOS>BOND
     1    1    2 ar  
     2    1    6 ar  
     3    1   24 1   
     4    2    3 ar  
     5    2   25 1   
     6    3    4 ar  
     7    3   23 1   
     8    4    5 ar  
     9    4    8 1   
    10    5    6 ar  
    11    5   26 1   
    12    6    7 1   
    13    8    9 2   
    14    8   10 2   
    15    8   11 1   
    16   11   12 1   
    17   11   27 1   
    18   12   13 1   
    19   12   16 2   
    20   13   14 2   
    21   13   28 1   
    22   14   15 1   
    23   15   16 1   
    24   15   17 1   
    25   16   29 1   
    26   17   18 1   
    27   17   22 1   
    28   17   30 1   
    29   18   19 1   
    30   18   31 1   
    31   18   32 1   
    32   19   20 1   
    33   19   35 1   
    34   19   36 1   
    35   20   21 1   
    36   20   37 1   
    37   21   22 1   
    38   21   38 1   
    39   21   39 1   
    40   22   33 1   
    41   22   34 1   
@<TRIPOS>SUBSTRUCTURE
     1 BU6         1 TEMP              0 ****  ****    0 ROOT
