@<TRIPOS>MOLECULE
BU6
   39    41     1     0     0
SMALL
bcc


@<TRIPOS>ATOM
      1 C1         -0.6840    0.0460    0.3770 ca        1 BU6     -0.042000
      2 C2          0.6180    0.3300   -0.0040 ca        1 BU6     -0.189000
      3 C3          1.6370    0.4130    0.9700 ca        1 BU6      0.253900
      4 C4          1.3530    0.2130    2.3370 ca        1 BU6     -0.393500
      5 C5          0.0250   -0.0690    2.6920 ca        1 BU6     -0.009000
      6 C6         -0.9800   -0.1550    1.7320 ca        1 BU6     -0.028600
      7 Cl7        -2.5740   -0.5030    2.2020 cl        1 BU6     -0.074400
      8 S8          2.4870    0.3270    3.6100 sy        1 BU6      1.514200
      9 O9          3.4330    1.3140    3.2970 o         1 BU6     -0.641800
     10 O10         1.7560    0.4980    4.8070 o         1 BU6     -0.641800
     11 N11         3.1460   -1.1530    3.6600 nu        1 BU6     -0.745500
     12 C12         4.2060   -1.5940    2.8860 cc        1 BU6     -0.057700
     13 C13         5.3950   -0.8400    2.4970 cc        1 BU6      0.299200
     14 N14         6.2140   -1.6240    1.7590 nd        1 BU6     -0.495800
     15 N15         5.6350   -2.8320    1.6660 na        1 BU6      0.093400
     16 C16         4.4010   -2.8760    2.3230 cd        1 BU6     -0.162300
     17 C17         6.2230   -3.9620    0.9460 c3        1 BU6      0.067000
     18 C18         6.4830   -5.1610    1.8710 c3        1 BU6     -0.093400
     19 C19         7.1210   -6.2980    1.0740 c3        1 BU6      0.162800
     20 N20         6.3440   -6.6840   -0.0870 n7        1 BU6     -0.824200
     21 C21         6.0190   -5.5750   -0.9620 c3        1 BU6      0.162800
     22 C22         5.3450   -4.4140   -0.2320 c3        1 BU6     -0.093400
     23 F23         2.8920    0.6890    0.5600 f         1 BU6     -0.110900
     24 H1         -1.4800   -0.0190   -0.3820 ha        1 BU6      0.157000
     25 H2          0.8730    0.4970   -1.0620 ha        1 BU6      0.161000
     26 H5         -0.2250   -0.2050    3.7630 ha        1 BU6      0.180000
     27 H11         2.8000   -1.8450    4.2880 hn        1 BU6      0.457800
     28 H13         5.6110    0.2090    2.7170 h4        1 BU6      0.075100
     29 H16         3.7880   -3.7750    2.3570 h4        1 BU6      0.180000
     30 H17         7.2190   -3.6170    0.5290 h1        1 BU6      0.087700
     31 H181        5.5220   -5.5080    2.3310 hc        1 BU6      0.060700
     32 H182        7.1800   -4.8700    2.6980 hc        1 BU6      0.060700
     33 H221        5.2030   -3.5720   -0.9570 hc        1 BU6      0.060700
     34 H222        4.3360   -4.7290    0.1390 hc        1 BU6      0.060700
     35 H191        8.1720   -5.9870    0.7980 h1        1 BU6      0.034700
     36 H192        7.1990   -7.2040    1.7400 h1        1 BU6      0.034700
     37 H20         6.8230   -7.4000   -0.6010 hn        1 BU6      0.369800
     38 H211        5.3110   -5.9640   -1.7470 h1        1 BU6      0.034700
     39 H212        6.9310   -5.1720   -1.4960 h1        1 BU6      0.034700
@<TRIPOS>BOND
     1    1    2 ar  
     2    1    6 ar  
     3    1   24 1   
     4    2    3 ar  
     5    2   25 1   
     6    3    4 ar  
     7    3   23 1   
     8    4    5 ar  
     9    4    8 1   
    10    5    6 ar  
    11    5   26 1   
    12    6    7 1   
    13    8    9 2   
    14    8   10 2   
    15    8   11 1   
    16   11   12 1   
    17   11   27 1   
    18   12   13 1   
    19   12   16 2   
    20   13   14 2   
    21   13   28 1   
    22   14   15 1   
    23   15   16 1   
    24   15   17 1   
    25   16   29 1   
    26   17   18 1   
    27   17   22 1   
    28   17   30 1   
    29   18   19 1   
    30   18   31 1   
    31   18   32 1   
    32   19   20 1   
    33   19   35 1   
    34   19   36 1   
    35   20   21 1   
    36   20   37 1   
    37   21   22 1   
    38   21   38 1   
    39   21   39 1   
    40   22   33 1   
    41   22   34 1   
@<TRIPOS>SUBSTRUCTURE
     1 BU6         1 TEMP              0 ****  ****    0 ROOT
