@<TRIPOS>MOLECULE
BU9
   16    15     1     0     0
SMALL
bcc


@<TRIPOS>ATOM
      1 C03         1.4740    1.2490   -0.0640 c3        1 BU9     -0.129100
      2 C04         0.6970    0.0090    0.3290 c3        1 BU9      0.143100
      3 O06         1.3500   -1.1790   -0.1100 oh        1 BU9     -0.607800
      4 C05        -0.6970   -0.0090   -0.3290 c3        1 BU9      0.143100
      5 C01        -1.4740   -1.2490    0.0640 c3        1 BU9     -0.129100
      6 O6         -1.3500    1.1790    0.1100 oh        1 BU9     -0.607800
      7 H011       -2.4440   -1.2900   -0.4860 hc        1 BU9      0.048033
      8 H012       -0.8740   -2.1580   -0.1850 hc        1 BU9      0.048033
      9 H013       -1.6840   -1.2450    1.1600 hc        1 BU9      0.048033
     10 H05        -0.5750    0.0340   -1.4480 h1        1 BU9      0.045700
     11 H031        1.6840    1.2450   -1.1600 hc        1 BU9      0.048033
     12 H032        0.8740    2.1580    0.1850 hc        1 BU9      0.048033
     13 H033        2.4440    1.2900    0.4860 hc        1 BU9      0.048033
     14 H04         0.5750   -0.0340    1.4480 h1        1 BU9      0.045700
     15 H06         2.2780   -1.0890    0.1340 ho        1 BU9      0.404000
     16 H6         -2.2780    1.0890   -0.1340 ho        1 BU9      0.404000
@<TRIPOS>BOND
     1    1    2 1   
     2    1   11 1   
     3    1   12 1   
     4    1   13 1   
     5    2    3 1   
     6    2    4 1   
     7    2   14 1   
     8    3   15 1   
     9    4    5 1   
    10    4    6 1   
    11    4   10 1   
    12    5    7 1   
    13    5    8 1   
    14    5    9 1   
    15    6   16 1   
@<TRIPOS>SUBSTRUCTURE
     1 BU9         1 TEMP              0 ****  ****    0 ROOT
