@<TRIPOS>MOLECULE
BU9
   16    15     1     0     0
SMALL
bcc


@<TRIPOS>ATOM
      1 C03         0.0290   -0.0490    0.0480 c3        1 BU9     -0.129100
      2 C04         1.5440    0.0010    0.0150 c3        1 BU9      0.143100
      3 O06         2.0920    0.1000    1.3270 oh        1 BU9     -0.607800
      4 C05         2.0440    1.2450   -0.7450 c3        1 BU9      0.143100
      5 C01         3.5590    1.2950   -0.7770 c3        1 BU9     -0.129100
      6 O6          1.4960    1.1460   -2.0560 oh        1 BU9     -0.607800
      7 H011        3.9640    0.4320   -1.3580 hc        1 BU9      0.048033
      8 H012        3.9550    1.2460    0.2660 hc        1 BU9      0.048033
      9 H013        3.9060    2.2420   -1.2560 hc        1 BU9      0.048033
     10 H05         1.6360    2.1690   -0.2470 h1        1 BU9      0.045700
     11 H031       -0.3760    0.8140    0.6290 hc        1 BU9      0.048033
     12 H032       -0.3670    0.0000   -0.9950 hc        1 BU9      0.048033
     13 H033       -0.3180   -0.9960    0.5260 hc        1 BU9      0.048033
     14 H04         1.9510   -0.9230   -0.4830 h1        1 BU9      0.045700
     15 H06         1.6390   -0.5590    1.8650 ho        1 BU9      0.404000
     16 H6          1.9490    1.8050   -2.5950 ho        1 BU9      0.404000
@<TRIPOS>BOND
     1    1    2 1   
     2    1   11 1   
     3    1   12 1   
     4    1   13 1   
     5    2    3 1   
     6    2    4 1   
     7    2   14 1   
     8    3   15 1   
     9    4    5 1   
    10    4    6 1   
    11    4   10 1   
    12    5    7 1   
    13    5    8 1   
    14    5    9 1   
    15    6   16 1   
@<TRIPOS>SUBSTRUCTURE
     1 BU9         1 TEMP              0 ****  ****    0 ROOT
