@<TRIPOS>MOLECULE
BU9
   16    15     1     0     0
SMALL
bcc


@<TRIPOS>ATOM
      1 C03         0.0270   -0.0400    0.0540 c3        1 BU9     -0.129100
      2 C04         1.5420    0.0020    0.0160 c3        1 BU9      0.143100
      3 O06         2.0960    0.0980    1.3250 oh        1 BU9     -0.607800
      4 C05         2.0460    1.2440   -0.7460 c3        1 BU9      0.143100
      5 C01         3.5610    1.2860   -0.7840 c3        1 BU9     -0.129100
      6 O6          1.4920    1.1490   -2.0550 oh        1 BU9     -0.607800
      7 H011        3.9590    0.4210   -1.3660 hc        1 BU9      0.048033
      8 H012        3.9600    1.2350    0.2580 hc        1 BU9      0.048033
      9 H013        3.9110    2.2320   -1.2630 hc        1 BU9      0.048033
     10 H05         1.6450    2.1700   -0.2450 h1        1 BU9      0.045700
     11 H031       -0.3710    0.8250    0.6370 hc        1 BU9      0.048033
     12 H032       -0.3720    0.0120   -0.9870 hc        1 BU9      0.048033
     13 H033       -0.3230   -0.9860    0.5330 hc        1 BU9      0.048033
     14 H04         1.9430   -0.9240   -0.4840 h1        1 BU9      0.045700
     15 H06         1.6410   -0.5600    1.8650 ho        1 BU9      0.404000
     16 H6          1.9460    1.8060   -2.5950 ho        1 BU9      0.404000
@<TRIPOS>BOND
     1    1    2 1   
     2    1   11 1   
     3    1   12 1   
     4    1   13 1   
     5    2    3 1   
     6    2    4 1   
     7    2   14 1   
     8    3   15 1   
     9    4    5 1   
    10    4    6 1   
    11    4   10 1   
    12    5    7 1   
    13    5    8 1   
    14    5    9 1   
    15    6   16 1   
@<TRIPOS>SUBSTRUCTURE
     1 BU9         1 TEMP              0 ****  ****    0 ROOT
