@<TRIPOS>MOLECULE
BUA
   13    12     1     0     0
SMALL
bcc


@<TRIPOS>ATOM
      1 C1          0.0070    0.0250   -0.0070 c3        1 BUA     -0.086100
      2 C2          1.5030    0.1970    0.0590 c3        1 BUA     -0.069400
      3 C3          2.0540   -0.1090    1.4310 c3        1 BUA     -0.192400
      4 C4          3.5920   -0.1090    1.4320 c         1 BUA      0.907600
      5 O1          4.1980   -0.7370    0.5150 o         1 BUA     -0.854800
      6 O2          4.1810    0.5080    2.3670 o         1 BUA     -0.854800
      7 H11        -0.3760    0.2710   -1.0270 hc        1 BUA      0.010033
      8 H12        -0.5000    0.6950    0.7290 hc        1 BUA      0.010033
      9 H13        -0.2790   -1.0280    0.2290 hc        1 BUA      0.010033
     10 H21         1.7720    1.2490   -0.2220 hc        1 BUA      0.042200
     11 H22         2.0030   -0.4800   -0.6850 hc        1 BUA      0.042200
     12 H31         1.6820    0.6400    2.1750 hc        1 BUA      0.017700
     13 H32         1.7110   -1.1220    1.7620 hc        1 BUA      0.017700
@<TRIPOS>BOND
     1    1    2 1   
     2    1    7 1   
     3    1    8 1   
     4    1    9 1   
     5    2    3 1   
     6    2   10 1   
     7    2   11 1   
     8    3    4 1   
     9    3   12 1   
    10    3   13 1   
    11    4    5 1   
    12    4    6 1   
@<TRIPOS>SUBSTRUCTURE
     1 BUA         1 TEMP              0 ****  ****    0 ROOT
