@<TRIPOS>MOLECULE
BUA
   13    12     1     0     0
SMALL
bcc


@<TRIPOS>ATOM
      1 C1         -1.6510   -0.0000   -0.6580 c3        1 BUA     -0.086100
      2 C2         -0.1380   -0.0000   -0.6580 c3        1 BUA     -0.065400
      3 C3          0.3660   -0.0000    0.7680 c3        1 BUA     -0.193400
      4 C4          1.8790   -0.0000    0.7680 c         1 BUA      0.907600
      5 O1          2.5090   -1.0900    0.7680 o         1 BUA     -0.854300
      6 O2          2.5090    1.0900    0.7680 o         1 BUA     -0.854300
      7 H11        -1.9760    0.7970   -0.1980 hc        1 BUA      0.011033
      8 H12        -1.9760   -0.0000   -1.5790 hc        1 BUA      0.011033
      9 H13        -1.9760   -0.7970   -0.1980 hc        1 BUA      0.011033
     10 H21         0.1870    0.7970   -1.1180 hc        1 BUA      0.038700
     11 H22         0.1870   -0.7970   -1.1180 hc        1 BUA      0.038700
     12 H31         0.0410    0.7970    1.2280 hc        1 BUA      0.017700
     13 H32         0.0410   -0.7970    1.2280 hc        1 BUA      0.017700
@<TRIPOS>BOND
     1    1    2 1   
     2    1    7 1   
     3    1    8 1   
     4    1    9 1   
     5    2    3 1   
     6    2   10 1   
     7    2   11 1   
     8    3    4 1   
     9    3   12 1   
    10    3   13 1   
    11    4    5 1   
    12    4    6 1   
@<TRIPOS>SUBSTRUCTURE
     1 BUA         1 TEMP              0 ****  ****    0 ROOT
