@<TRIPOS>MOLECULE
BUA
   13    12     1     0     0
SMALL
bcc


@<TRIPOS>ATOM
      1 C1         -0.2380    0.0000    2.7950 c3        1 BUA     -0.087100
      2 C2          0.3970    0.0000    1.4270 c3        1 BUA     -0.066400
      3 C3         -0.6290    0.0000    0.3210 c3        1 BUA     -0.192400
      4 C4          0.0130   -0.0000   -1.0760 c         1 BUA      0.907600
      5 O1          1.2740   -0.0000   -1.1790 o         1 BUA     -0.855300
      6 O2         -0.7710   -0.0000   -2.0710 o         1 BUA     -0.855300
      7 H11        -0.8800   -0.9040    2.9320 hc        1 BUA      0.009033
      8 H12         0.5420    0.0000    3.5940 hc        1 BUA      0.009033
      9 H13        -0.8800    0.9040    2.9320 hc        1 BUA      0.009033
     10 H21         1.0580    0.8980    1.3100 hc        1 BUA      0.042700
     11 H22         1.0580   -0.8980    1.3100 hc        1 BUA      0.042700
     12 H31        -1.2860   -0.9020    0.4040 hc        1 BUA      0.018700
     13 H32        -1.2860    0.9020    0.4040 hc        1 BUA      0.018700
@<TRIPOS>BOND
     1    1    2 1   
     2    1    7 1   
     3    1    8 1   
     4    1    9 1   
     5    2    3 1   
     6    2   10 1   
     7    2   11 1   
     8    3    4 1   
     9    3   12 1   
    10    3   13 1   
    11    4    5 1   
    12    4    6 1   
@<TRIPOS>SUBSTRUCTURE
     1 BUA         1 TEMP              0 ****  ****    0 ROOT
