@<TRIPOS>MOLECULE
BUC
   26    25     1     0     0
SMALL
bcc


@<TRIPOS>ATOM
      1 N           1.4450   -1.0880   -2.4800 n3        1 BUC     -0.880800
      2 CA          0.3070   -0.1830   -2.5430 c3        1 BUC      0.012500
      3 CB          0.0120    0.5220   -1.2340 c3        1 BUC      0.032700
      4 SG         -0.8010   -0.4220    0.0260 ss        1 BUC     -0.225100
      5 SD          0.6160   -1.5400    1.1130 ss        1 BUC     -0.192100
      6 C1          1.1560   -0.4760    2.4140 c3        1 BUC     -0.020300
      7 C2          0.0810   -0.1300    3.4100 c3        1 BUC     -0.081400
      8 C3          0.6110    0.7790    4.5000 c3        1 BUC     -0.079400
      9 C4         -0.4610    1.1190    5.5030 c3        1 BUC     -0.090100
     10 C           0.4210    0.9220   -3.6600 c         1 BUC      0.890600
     11 O           1.3610    0.8150   -4.4950 o         1 BUC     -0.834300
     12 OXT        -0.4450    1.8380   -3.6590 o         1 BUC     -0.834300
     13 H           2.2430   -0.5810   -2.1410 hn        1 BUC      0.333300
     14 H2          1.6620   -1.3550   -3.4270 hn        1 BUC      0.333300
     15 HA         -0.5890   -0.8110   -2.8220 h1        1 BUC      0.060700
     16 HB2        -0.7610    1.3160   -1.4490 h1        1 BUC      0.089200
     17 HB3         0.9230    1.0170   -0.8240 h1        1 BUC      0.089200
     18 H11         1.6040    0.4580    1.9950 h1        1 BUC      0.066200
     19 H12         1.9750   -1.0600    2.9070 h1        1 BUC      0.066200
     20 H21        -0.3270   -1.0690    3.8700 hc        1 BUC      0.054200
     21 H22        -0.7690    0.3770    2.8780 hc        1 BUC      0.054200
     22 H31         1.0080    1.7220    4.0390 hc        1 BUC      0.035200
     23 H32         1.4700    0.2780    5.0210 hc        1 BUC      0.035200
     24 H41        -0.0530    1.7920    6.2960 hc        1 BUC      0.029033
     25 H42        -1.3150    1.6380    5.0040 hc        1 BUC      0.029033
     26 H43        -0.8520    0.1940    5.9910 hc        1 BUC      0.029033
@<TRIPOS>BOND
     1    1    2 1   
     2    1   13 1   
     3    1   14 1   
     4    2    3 1   
     5    2   10 1   
     6    2   15 1   
     7    3    4 1   
     8    3   16 1   
     9    3   17 1   
    10    4    5 1   
    11    5    6 1   
    12    6    7 1   
    13    6   18 1   
    14    6   19 1   
    15    7    8 1   
    16    7   20 1   
    17    7   21 1   
    18    8    9 1   
    19    8   22 1   
    20    8   23 1   
    21    9   24 1   
    22    9   25 1   
    23    9   26 1   
    24   10   11 1   
    25   10   12 1   
@<TRIPOS>SUBSTRUCTURE
     1 BUC         1 TEMP              0 ****  ****    0 ROOT
