@<TRIPOS>MOLECULE
BUD
   16    15     1     0     0
SMALL
bcc


@<TRIPOS>ATOM
      1 C1          0.0570    0.1470   -0.2050 c3        1 BUD     -0.129100
      2 O1          2.0060   -1.1780   -0.7500 oh        1 BUD     -0.605800
      3 C2          1.5600   -0.0100   -0.0850 c3        1 BUD      0.126100
      4 O2          1.5180   -1.2640    1.9230 oh        1 BUD     -0.605800
      5 C3          1.9900   -0.0270    1.3950 c3        1 BUD      0.126100
      6 C4          3.4940    0.0990    1.5280 c3        1 BUD     -0.129100
      7 H1         -0.2490    0.0570   -1.2740 hc        1 BUD      0.047200
      8 H1A        -0.2580    1.1450    0.1810 hc        1 BUD      0.047200
      9 H1B        -0.4600   -0.6470    0.3860 hc        1 BUD      0.047200
     10 HO1         1.6370   -1.9340   -0.2730 ho        1 BUD      0.411000
     11 H2          2.0930    0.8310   -0.6120 h1        1 BUD      0.056200
     12 HO2         1.9660   -1.4040    2.7650 ho        1 BUD      0.411000
     13 H3          1.4780    0.8150    1.9420 h1        1 BUD      0.056200
     14 H4          3.8290    1.0930    1.1470 hc        1 BUD      0.047200
     15 H4A         3.8030    0.0010    2.5960 hc        1 BUD      0.047200
     16 H4B         3.9940   -0.7020    0.9310 hc        1 BUD      0.047200
@<TRIPOS>BOND
     1    1    3 1   
     2    1    7 1   
     3    1    8 1   
     4    1    9 1   
     5    2    3 1   
     6    2   10 1   
     7    3    5 1   
     8    3   11 1   
     9    4    5 1   
    10    4   12 1   
    11    5    6 1   
    12    5   13 1   
    13    6   14 1   
    14    6   15 1   
    15    6   16 1   
@<TRIPOS>SUBSTRUCTURE
     1 BUD         1 TEMP              0 ****  ****    0 ROOT
