@<TRIPOS>MOLECULE
BUD
   16    15     1     0     0
SMALL
bcc


@<TRIPOS>ATOM
      1 C1          0.2970    0.5070   -0.2340 c3        1 BUD     -0.126100
      2 O1          1.3740   -1.6540   -0.4340 oh        1 BUD     -0.601800
      3 C2          1.5540   -0.3110   -0.0120 c3        1 BUD      0.105100
      4 O2          2.0050   -1.6030    1.9890 oh        1 BUD     -0.601800
      5 C3          1.9900   -0.2830    1.4700 c3        1 BUD      0.105100
      6 C4          3.3380    0.3890    1.6370 c3        1 BUD     -0.126100
      7 H1         -0.0090    0.4490   -1.3060 hc        1 BUD      0.045367
      8 H1A         0.4840    1.5740    0.0340 hc        1 BUD      0.045367
      9 H1B        -0.5400    0.1190    0.3940 hc        1 BUD      0.045367
     10 HO1         0.6830   -2.0390    0.1210 ho        1 BUD      0.411000
     11 H2          2.3850    0.0670   -0.6730 h1        1 BUD      0.076700
     12 HO2         2.6420   -2.1100    1.4670 ho        1 BUD      0.411000
     13 H3          1.2140    0.2410    2.0980 h1        1 BUD      0.076700
     14 H4          3.2820    1.4480    1.2900 hc        1 BUD      0.045367
     15 H4A         3.6390    0.3730    2.7110 hc        1 BUD      0.045367
     16 H4B         4.1190   -0.1440    1.0430 hc        1 BUD      0.045367
@<TRIPOS>BOND
     1    1    3 1   
     2    1    7 1   
     3    1    8 1   
     4    1    9 1   
     5    2    3 1   
     6    2   10 1   
     7    3    5 1   
     8    3   11 1   
     9    4    5 1   
    10    4   12 1   
    11    5    6 1   
    12    5   13 1   
    13    6   14 1   
    14    6   15 1   
    15    6   16 1   
@<TRIPOS>SUBSTRUCTURE
     1 BUD         1 TEMP              0 ****  ****    0 ROOT
