@<TRIPOS>MOLECULE
BUD
   16    15     1     0     0
SMALL
bcc


@<TRIPOS>ATOM
      1 C1         -1.7520    0.0340   -0.6600 c3        1 BUD     -0.126100
      2 O1          0.1180   -1.2980   -1.3050 oh        1 BUD     -0.601800
      3 C2         -0.2450   -0.0780   -0.7030 c3        1 BUD      0.105100
      4 O2          0.7040   -1.3170    1.0990 oh        1 BUD     -0.601800
      5 C3          0.3050   -0.0260    0.7030 c3        1 BUD      0.105100
      6 C4          1.4960    0.9040    0.7450 c3        1 BUD     -0.126100
      7 H1         -2.1200   -0.1640   -1.5460 hc        1 BUD      0.045367
      8 H1A        -2.1080   -0.6050   -0.0080 hc        1 BUD      0.045367
      9 H1B        -2.0050    0.9440   -0.3970 hc        1 BUD      0.045367
     10 HO1         0.2630   -1.1690   -2.1730 ho        1 BUD      0.411000
     11 H2          0.1220    0.6640   -1.2240 h1        1 BUD      0.076700
     12 HO2         0.3500   -1.5060    1.8930 ho        1 BUD      0.411000
     13 H3         -0.3860    0.3020    1.3120 h1        1 BUD      0.076700
     14 H4          2.1080    0.6850    0.0110 hc        1 BUD      0.045367
     15 H4A         1.1900    1.8310    0.6500 hc        1 BUD      0.045367
     16 H4B         1.9620    0.8000    1.6010 hc        1 BUD      0.045367
@<TRIPOS>BOND
     1    1    3 1   
     2    1    7 1   
     3    1    8 1   
     4    1    9 1   
     5    2    3 1   
     6    2   10 1   
     7    3    5 1   
     8    3   11 1   
     9    4    5 1   
    10    4   12 1   
    11    5    6 1   
    12    5   13 1   
    13    6   14 1   
    14    6   15 1   
    15    6   16 1   
@<TRIPOS>SUBSTRUCTURE
     1 BUD         1 TEMP              0 ****  ****    0 ROOT
