@<TRIPOS>MOLECULE
BUD
   16    15     1     0     0
SMALL
bcc


@<TRIPOS>ATOM
      1 C1         -1.7160    0.4880   -0.8580 c3        1 BUD     -0.126100
      2 O1         -1.1080   -0.5750    1.2320 oh        1 BUD     -0.601800
      3 C2         -0.6940   -0.3390   -0.1030 c3        1 BUD      0.105100
      4 O2          1.1060    0.5960    1.2260 oh        1 BUD     -0.601800
      5 C3          0.6940    0.3400   -0.1070 c3        1 BUD      0.105100
      6 C4          1.7170   -0.4980   -0.8480 c3        1 BUD     -0.126100
      7 H1         -1.4070    0.5980   -1.9240 hc        1 BUD      0.045367
      8 H1A        -2.7130   -0.0120   -0.8170 hc        1 BUD      0.045367
      9 H1B        -1.8120    1.5040   -0.4030 hc        1 BUD      0.045367
     10 HO1        -1.1590    0.2840    1.6740 ho        1 BUD      0.411000
     11 H2         -0.6270   -1.3720   -0.5480 h1        1 BUD      0.076700
     12 HO2         1.1560   -0.2560    1.6790 ho        1 BUD      0.411000
     13 H3          0.6270    1.3670   -0.5670 h1        1 BUD      0.076700
     14 H4          1.4090   -0.6230   -1.9130 hc        1 BUD      0.045367
     15 H4A         2.7140    0.0030   -0.8130 hc        1 BUD      0.045367
     16 H4B         1.8120   -1.5070   -0.3790 hc        1 BUD      0.045367
@<TRIPOS>BOND
     1    1    3 1   
     2    1    7 1   
     3    1    8 1   
     4    1    9 1   
     5    2    3 1   
     6    2   10 1   
     7    3    5 1   
     8    3   11 1   
     9    4    5 1   
    10    4   12 1   
    11    5    6 1   
    12    5   13 1   
    13    6   14 1   
    14    6   15 1   
    15    6   16 1   
@<TRIPOS>SUBSTRUCTURE
     1 BUD         1 TEMP              0 ****  ****    0 ROOT
