@<TRIPOS>MOLECULE
BUF
   62    66     1     0     0
SMALL
bcc


@<TRIPOS>ATOM
      1 C18         1.6810   -0.1640   -0.2160 c3        1 BUF     -0.076100
      2 C13         0.1700   -0.1040   -0.1520 c3        1 BUF     -0.027000
      3 C12        -0.2850   -0.1090    1.3100 c3        1 BUF     -0.073400
      4 C11        -0.1570   -1.4580    1.9790 c3        1 BUF     -0.077400
      5 C9         -1.0250   -2.4840    1.2670 c3        1 BUF     -0.042700
      6 C10        -1.0670   -3.8340    2.0040 c3        1 BUF     -0.033000
      7 C19         0.3400   -4.3940    2.2040 c3        1 BUF     -0.090100
      8 C1         -1.6850   -3.7040    3.4040 c3        1 BUF     -0.071400
      9 C2         -3.1540   -3.3530    3.4020 c3        1 BUF     -0.110400
     10 C3         -3.9630   -4.3720    2.6090 c3        1 BUF      0.142100
     11 O3         -3.9580   -5.6590    3.2190 oh        1 BUF     -0.598800
     12 C4         -3.3940   -4.5350    1.2060 c3        1 BUF     -0.068400
     13 C5         -1.9050   -4.8510    1.2060 c3        1 BUF     -0.054700
     14 C6         -1.4000   -4.9790   -0.2220 c3        1 BUF     -0.072400
     15 C7         -1.3530   -3.6490   -0.9390 c3        1 BUF     -0.077400
     16 C8         -0.5280   -2.6230   -0.1730 c3        1 BUF     -0.077700
     17 C14        -0.4920   -1.2820   -0.9300 c3        1 BUF      0.161800
     18 O14         0.3030   -1.4670   -2.1090 oh        1 BUF     -0.609800
     19 C15        -1.8760   -0.7420   -1.3310 c3        1 BUF     -0.107400
     20 C16        -1.7190    0.7610   -1.5000 c3        1 BUF     -0.075400
     21 C17        -0.4160    1.1830   -0.8030 c3        1 BUF      0.003500
     22 C20         0.5030    1.9030   -1.7280 cc        1 BUF     -0.212200
     23 C22         0.9660    3.2200   -1.3770 cc        1 BUF     -0.017000
     24 C23         1.7760    3.8990   -2.2230 cd        1 BUF     -0.278200
     25 C24         2.1830    3.3090   -3.4830 c         1 BUF      0.709800
     26 O24         2.8970    3.7560   -4.3800 o         1 BUF     -0.576500
     27 O21         1.7240    2.0230   -3.7990 os        1 BUF     -0.322200
     28 C21         0.9110    1.3740   -2.9180 cd        1 BUF      0.103100
     29 H1          2.0490   -1.0910    0.2870 hc        1 BUF      0.042367
     30 H2          2.0330   -0.1830   -1.2760 hc        1 BUF      0.042367
     31 H3          2.1240    0.7260    0.2930 hc        1 BUF      0.042367
     32 H4         -1.3590    0.2150    1.3610 hc        1 BUF      0.041700
     33 H5          0.3240    0.6450    1.8750 hc        1 BUF      0.041700
     34 H6         -0.4750   -1.3540    3.0490 hc        1 BUF      0.047200
     35 H7          0.9130   -1.7920    1.9770 hc        1 BUF      0.047200
     36 H8         -2.0820   -2.0920    1.2360 hc        1 BUF      0.047700
     37 H9          0.9090   -3.7560    2.9240 hc        1 BUF      0.037033
     38 H10         0.2860   -5.4290    2.6200 hc        1 BUF      0.037033
     39 H11         0.9030   -4.4320    1.2430 hc        1 BUF      0.037033
     40 H12        -1.5640   -4.6960    3.9220 hc        1 BUF      0.046200
     41 H13        -1.1180   -2.9460    4.0030 hc        1 BUF      0.046200
     42 H14        -3.5270   -3.3180    4.4590 hc        1 BUF      0.044700
     43 H15        -3.3150   -2.3380    2.9560 hc        1 BUF      0.044700
     44 H16        -5.0350   -4.0220    2.5400 h1        1 BUF      0.029700
     45 H17        -4.1590   -5.5270    4.1520 ho        1 BUF      0.398000
     46 H18        -3.9380   -5.3690    0.6900 hc        1 BUF      0.049700
     47 H19        -3.5950   -3.5870    0.6420 hc        1 BUF      0.049700
     48 H20        -1.7860   -5.8520    1.7150 hc        1 BUF      0.065700
     49 H21        -0.3730   -5.4330   -0.2080 hc        1 BUF      0.044200
     50 H22        -2.0670   -5.6810   -0.7890 hc        1 BUF      0.044200
     51 H23        -2.3960   -3.2620   -1.0870 hc        1 BUF      0.037200
     52 H24        -0.9090   -3.8090   -1.9570 hc        1 BUF      0.037200
     53 H25         0.5410   -2.9840   -0.1440 hc        1 BUF      0.067700
     54 H26        -0.1520   -2.1160   -2.6590 ho        1 BUF      0.401000
     55 H27        -2.2310   -1.2200   -2.2770 hc        1 BUF      0.050700
     56 H28        -2.6190   -0.9740   -0.5270 hc        1 BUF      0.050700
     57 H29        -1.6880    1.0270   -2.5870 hc        1 BUF      0.047200
     58 H30        -2.5890    1.3000   -1.0480 hc        1 BUF      0.047200
     59 H31        -0.6760    1.9040    0.0250 hc        1 BUF      0.052700
     60 H32         0.6480    3.6540   -0.4160 ha        1 BUF      0.143000
     61 H33         2.1630    4.9060   -2.0110 ha        1 BUF      0.166000
     62 H34         0.6540    0.3670   -3.2970 h4        1 BUF      0.203000
@<TRIPOS>BOND
     1    1    2 1   
     2    1   29 1   
     3    1   30 1   
     4    1   31 1   
     5    2    3 1   
     6    2   17 1   
     7    2   21 1   
     8    3    4 1   
     9    3   32 1   
    10    3   33 1   
    11    4    5 1   
    12    4   34 1   
    13    4   35 1   
    14    5    6 1   
    15    5   16 1   
    16    5   36 1   
    17    6    7 1   
    18    6    8 1   
    19    6   13 1   
    20    7   37 1   
    21    7   38 1   
    22    7   39 1   
    23    8    9 1   
    24    8   40 1   
    25    8   41 1   
    26    9   10 1   
    27    9   42 1   
    28    9   43 1   
    29   10   11 1   
    30   10   12 1   
    31   10   44 1   
    32   11   45 1   
    33   12   13 1   
    34   12   46 1   
    35   12   47 1   
    36   13   14 1   
    37   13   48 1   
    38   14   15 1   
    39   14   49 1   
    40   14   50 1   
    41   15   16 1   
    42   15   51 1   
    43   15   52 1   
    44   16   17 1   
    45   16   53 1   
    46   17   18 1   
    47   17   19 1   
    48   18   54 1   
    49   19   20 1   
    50   19   55 1   
    51   19   56 1   
    52   20   21 1   
    53   20   57 1   
    54   20   58 1   
    55   21   22 1   
    56   21   59 1   
    57   22   23 1   
    58   22   28 2   
    59   23   24 2   
    60   23   60 1   
    61   24   25 1   
    62   24   61 1   
    63   25   26 2   
    64   25   27 1   
    65   27   28 1   
    66   28   62 1   
@<TRIPOS>SUBSTRUCTURE
     1 BUF         1 TEMP              0 ****  ****    0 ROOT
