@<TRIPOS>MOLECULE
BUG
   21    20     1     0     0
SMALL
bcc


@<TRIPOS>ATOM
      1 N          -1.7210    0.1750   -1.0060 n3        1 BUG     -0.891800
      2 CA         -0.2990    0.1750   -1.0060 c3        1 BUG      0.031500
      3 CB          0.2050    0.1750    0.4180 c3        1 BUG     -0.031000
      4 CG1        -0.4530   -0.9500    1.1860 c3        1 BUG     -0.082433
      5 CG2        -0.1330    1.4970    1.0730 c3        1 BUG     -0.082433
      6 CG3         1.7050   -0.0200    0.4230 c3        1 BUG     -0.082433
      7 C           0.2050   -1.0590   -1.7190 c         1 BUG      0.884600
      8 O          -0.3750   -2.1630   -1.5510 o         1 BUG     -0.845300
      9 OXT         1.2050   -0.9820   -2.4800 o         1 BUG     -0.845300
     10 H          -2.0250   -0.4120   -1.6340 hn        1 BUG      0.329800
     11 H2         -2.0250    1.0130   -1.2010 hn        1 BUG      0.329800
     12 HA1         0.0270    0.9720   -1.4670 h1        1 BUG      0.042700
     13 HG11       -0.1990   -0.8950    2.1270 hc        1 BUG      0.026922
     14 HG12       -0.1610   -1.8070    0.8200 hc        1 BUG      0.026922
     15 HG13       -1.4230   -0.8750    1.1060 hc        1 BUG      0.026922
     16 HG21        0.2680    1.5320    1.9620 hc        1 BUG      0.026922
     17 HG22        0.2170    2.2280    0.5290 hc        1 BUG      0.026922
     18 HG23       -1.1020    1.5840    1.1490 hc        1 BUG      0.026922
     19 HG31        2.1170    0.6030   -0.2050 hc        1 BUG      0.026922
     20 HG32        1.9150   -0.9360    0.1570 hc        1 BUG      0.026922
     21 HG33        2.0520    0.1450    1.3200 hc        1 BUG      0.026922
@<TRIPOS>BOND
     1    1    2 1   
     2    1   10 1   
     3    1   11 1   
     4    2    3 1   
     5    2    7 1   
     6    2   12 1   
     7    3    4 1   
     8    3    5 1   
     9    3    6 1   
    10    4   13 1   
    11    4   14 1   
    12    4   15 1   
    13    5   16 1   
    14    5   17 1   
    15    5   18 1   
    16    6   19 1   
    17    6   20 1   
    18    6   21 1   
    19    7    8 1   
    20    7    9 1   
@<TRIPOS>SUBSTRUCTURE
     1 BUG         1 TEMP              0 ****  ****    0 ROOT
