@<TRIPOS>MOLECULE
BUI
   75    74     1     0     0
SMALL
bcc


@<TRIPOS>ATOM
      1 O9          0.1210    2.1420   -0.3650 oh        1 BUI     -0.704100
      2 C3          0.7150    0.9040   -0.2620 c         1 BUI      0.620100
      3 O8          0.4700    0.2590    0.7480 o         1 BUI     -0.425000
      4 C2          1.5970    0.5330   -1.4130 c3        1 BUI     -0.176400
      5 C5          0.8100    0.3460   -2.7240 c3        1 BUI      0.078700
      6 C10         1.8230   -0.1090   -3.8040 c3        1 BUI      0.095800
      7 N6          1.2960   -0.9860   -4.9050 n4        1 BUI     -0.602800
      8 C14         0.1240   -0.3700   -5.5910 c3        1 BUI      0.086767
      9 C13         2.4000   -1.1690   -5.9090 c3        1 BUI      0.086767
     10 C12         0.9130   -2.3320   -4.3760 c3        1 BUI      0.086767
     11 N4          0.0270    1.5230   -3.1020 n         1 BUI     -0.495900
     12 C1          0.6940    2.7510   -3.2150 c         1 BUI      0.627100
     13 O7          1.7830    2.9140   -3.7710 o         1 BUI     -0.466100
     14 N11        -0.0020    3.9980   -2.6950 n4        1 BUI     -0.661800
     15 C15         0.7060    5.2610   -3.1000 c3        1 BUI      0.113800
     16 C16        -0.0040    6.5000   -2.5720 c3        1 BUI     -0.111400
     17 C24         0.7630    7.7320   -3.0190 c3        1 BUI     -0.078400
     18 C26         0.0840    8.9890   -2.5150 c3        1 BUI     -0.080400
     19 C27         0.8420   10.2240   -2.9580 c3        1 BUI     -0.079400
     20 C19         0.1660   11.4830   -2.4580 c3        1 BUI     -0.079400
     21 C20         0.9210   12.7190   -2.9010 c3        1 BUI     -0.079400
     22 C21         0.2450   13.9790   -2.4040 c3        1 BUI     -0.079400
     23 C22         0.9990   15.2150   -2.8470 c3        1 BUI     -0.079400
     24 C23         0.3230   16.4760   -2.3520 c3        1 BUI     -0.079400
     25 C25         1.0750   17.7120   -2.7960 c3        1 BUI     -0.079400
     26 C18         0.3990   18.9730   -2.3020 c3        1 BUI     -0.079400
     27 C17         1.1510   20.2100   -2.7450 c3        1 BUI     -0.079400
     28 C28         0.4800   21.4680   -2.2560 c3        1 BUI     -0.094100
     29 H21         2.3910    1.3200   -1.5380 hc        1 BUI      0.121700
     30 H22         2.1070   -0.4350   -1.1410 hc        1 BUI      0.121700
     31 H5          0.0410   -0.4720   -2.5530 h1        1 BUI      0.110700
     32 H101        2.6380   -0.7000   -3.2880 hx        1 BUI      0.127700
     33 H102        2.3020    0.7950   -4.2880 hx        1 BUI      0.127700
     34 H141        0.3820    0.6760   -5.9030 hx        1 BUI      0.108922
     35 H142       -0.7590   -0.3610   -4.9000 hx        1 BUI      0.108922
     36 H143       -0.1330   -0.9780   -6.5020 hx        1 BUI      0.108922
     37 H131        3.3000   -1.6060   -5.4010 hx        1 BUI      0.108922
     38 H132        2.0510   -1.8680   -6.7160 hx        1 BUI      0.108922
     39 H133        2.6620   -0.1760   -6.3620 hx        1 BUI      0.108922
     40 H121        0.0710   -2.2330   -3.6420 hx        1 BUI      0.108922
     41 H122        0.5770   -2.9820   -5.2310 hx        1 BUI      0.108922
     42 H123        1.8000   -2.8070   -3.8780 hx        1 BUI      0.108922
     43 HN4        -0.8540    1.5500   -2.6150 hn        1 BUI      0.332500
     44 H11        -0.0220    3.9380   -1.6630 hn        1 BUI      0.472300
     45 H151        0.7540    5.2800   -4.2270 hx        1 BUI      0.118700
     46 H152        1.7600    5.2080   -2.7010 hx        1 BUI      0.118700
     47 H161       -0.0540    6.4820   -1.4510 hc        1 BUI      0.070200
     48 H162       -1.0540    6.5550   -2.9660 hc        1 BUI      0.070200
     49 H241        0.8200    7.7590   -4.1400 hc        1 BUI      0.059200
     50 H242        1.8140    7.6890   -2.6270 hc        1 BUI      0.059200
     51 H261        0.0260    8.9660   -1.3950 hc        1 BUI      0.050200
     52 H262       -0.9670    9.0350   -2.9040 hc        1 BUI      0.050200
     53 H271        1.8940   10.1820   -2.5680 hc        1 BUI      0.046700
     54 H272        0.9030   10.2490   -4.0780 hc        1 BUI      0.046700
     55 H191        0.1060   11.4610   -1.3380 hc        1 BUI      0.044200
     56 H192       -0.8850   11.5270   -2.8470 hc        1 BUI      0.044200
     57 H201        0.9830   12.7420   -4.0210 hc        1 BUI      0.042700
     58 H202        1.9730   12.6780   -2.5110 hc        1 BUI      0.042700
     59 H211        0.1840   13.9580   -1.2840 hc        1 BUI      0.041700
     60 H212       -0.8060   14.0210   -2.7930 hc        1 BUI      0.041700
     61 H221        1.0620   15.2370   -3.9670 hc        1 BUI      0.041200
     62 H222        2.0500   15.1750   -2.4580 hc        1 BUI      0.041200
     63 H231        0.2600   16.4550   -1.2320 hc        1 BUI      0.040700
     64 H232       -0.7290   16.5170   -2.7410 hc        1 BUI      0.040700
     65 H251        2.1270   17.6720   -2.4060 hc        1 BUI      0.040700
     66 H252        1.1390   17.7330   -3.9160 hc        1 BUI      0.040700
     67 H181       -0.6520   19.0140   -2.6910 hc        1 BUI      0.040700
     68 H182        0.3360   18.9530   -1.1820 hc        1 BUI      0.040700
     69 H171        1.2140   20.2280   -3.8650 hc        1 BUI      0.038700
     70 H172        2.2020   20.1680   -2.3550 hc        1 BUI      0.038700
     71 H281       -0.5600   21.5410   -2.6540 hc        1 BUI      0.035033
     72 H282        1.0510   22.3670   -2.5930 hc        1 BUI      0.035033
     73 H283        0.4300   21.4810   -1.1400 hc        1 BUI      0.035033
     74 H42        -0.3400    2.3460    0.4710 ho        1 BUI      0.489000
     75 H112       -0.9700    4.0380   -3.0350 hn        1 BUI      0.472300
@<TRIPOS>BOND
     1    1    2 1   
     2    1   74 1   
     3    2    3 2   
     4    2    4 1   
     5    4    5 1   
     6    4   29 1   
     7    4   30 1   
     8    5    6 1   
     9    5   11 1   
    10    5   31 1   
    11    6    7 1   
    12    6   32 1   
    13    6   33 1   
    14    7    8 1   
    15    7    9 1   
    16    7   10 1   
    17    8   34 1   
    18    8   35 1   
    19    8   36 1   
    20    9   37 1   
    21    9   38 1   
    22    9   39 1   
    23   10   40 1   
    24   10   41 1   
    25   10   42 1   
    26   11   12 1   
    27   11   43 1   
    28   12   13 2   
    29   12   14 1   
    30   14   15 1   
    31   14   44 1   
    32   14   75 1   
    33   15   16 1   
    34   15   45 1   
    35   15   46 1   
    36   16   17 1   
    37   16   47 1   
    38   16   48 1   
    39   17   18 1   
    40   17   49 1   
    41   17   50 1   
    42   18   19 1   
    43   18   51 1   
    44   18   52 1   
    45   19   20 1   
    46   19   53 1   
    47   19   54 1   
    48   20   21 1   
    49   20   55 1   
    50   20   56 1   
    51   21   22 1   
    52   21   57 1   
    53   21   58 1   
    54   22   23 1   
    55   22   59 1   
    56   22   60 1   
    57   23   24 1   
    58   23   61 1   
    59   23   62 1   
    60   24   25 1   
    61   24   63 1   
    62   24   64 1   
    63   25   26 1   
    64   25   65 1   
    65   25   66 1   
    66   26   27 1   
    67   26   67 1   
    68   26   68 1   
    69   27   28 1   
    70   27   69 1   
    71   27   70 1   
    72   28   71 1   
    73   28   72 1   
    74   28   73 1   
@<TRIPOS>SUBSTRUCTURE
     1 BUI         1 TEMP              0 ****  ****    0 ROOT
