@<TRIPOS>MOLECULE
BUI
   73    72     1     0     0
SMALL
bcc


@<TRIPOS>ATOM
      1 O9         -4.5480    2.1090   -1.4640 o         1 BUI     -0.819800
      2 C3         -5.5550    2.4220   -0.7590 c         1 BUI      0.918600
      3 O8         -6.2460    3.4570   -0.9000 o         1 BUI     -0.819800
      4 C2         -5.9780    1.4290    0.3560 c3        1 BUI     -0.256400
      5 C5         -6.3950    0.1000   -0.2830 c3        1 BUI      0.068700
      6 C10        -6.9240   -0.7970    0.8560 c3        1 BUI      0.106800
      7 N6         -7.5910   -2.0920    0.4510 n4        1 BUI     -0.587800
      8 C14        -6.5910   -3.1670    0.1790 c3        1 BUI      0.091100
      9 C13        -8.4520   -2.5350    1.5910 c3        1 BUI      0.091100
     10 C12        -8.4490   -1.9010   -0.7510 c3        1 BUI      0.091100
     11 N4         -5.3630   -0.5400   -1.0910 n         1 BUI     -0.508900
     12 C1         -4.1530   -0.8500   -0.3540 c         1 BUI      0.732100
     13 O7         -4.1880   -1.7910    0.4890 o         1 BUI     -0.712100
     14 N11        -2.9800   -0.1880   -0.6480 n         1 BUI     -0.544900
     15 C15        -1.7640   -0.5100    0.0500 c3        1 BUI      0.097000
     16 C16        -0.5130   -0.0370   -0.6910 c3        1 BUI     -0.094400
     17 C24         0.7220   -0.3910    0.1100 c3        1 BUI     -0.077400
     18 C26         1.9790    0.0620   -0.6000 c3        1 BUI     -0.079400
     19 C27         3.2170   -0.2890    0.1980 c3        1 BUI     -0.078400
     20 C19         4.4740    0.1640   -0.5110 c3        1 BUI     -0.079400
     21 C20         5.7120   -0.1870    0.2860 c3        1 BUI     -0.078400
     22 C21         6.9700    0.2660   -0.4240 c3        1 BUI     -0.079400
     23 C22         8.2080   -0.0850    0.3730 c3        1 BUI     -0.078400
     24 C23         9.4650    0.3680   -0.3370 c3        1 BUI     -0.079400
     25 C25        10.7040    0.0170    0.4600 c3        1 BUI     -0.079400
     26 C18        11.9610    0.4700   -0.2500 c3        1 BUI     -0.079400
     27 C17        13.2000    0.1200    0.5460 c3        1 BUI     -0.080400
     28 C28        14.4550    0.5690   -0.1570 c3        1 BUI     -0.092100
     29 H21        -6.8350    1.8670    0.9220 hc        1 BUI      0.051700
     30 H22        -5.1170    1.2800    1.0520 hc        1 BUI      0.051700
     31 H5         -7.2430    0.3310   -0.9980 h1        1 BUI      0.072700
     32 H101       -6.0690   -1.0670    1.5440 hx        1 BUI      0.103200
     33 H102       -7.6910   -0.1940    1.4200 hx        1 BUI      0.103200
     34 H141       -5.8880   -3.2530    1.0520 hx        1 BUI      0.095811
     35 H142       -7.1330   -4.1330    0.0100 hx        1 BUI      0.095811
     36 H143       -5.9810   -2.9040   -0.7270 hx        1 BUI      0.095811
     37 H131       -9.2610   -1.7790    1.7670 hx        1 BUI      0.095811
     38 H132       -8.9140   -3.5270    1.3500 hx        1 BUI      0.095811
     39 H133       -7.8180   -2.6300    2.5120 hx        1 BUI      0.095811
     40 H121       -7.8010   -1.7080   -1.6480 hx        1 BUI      0.095811
     41 H122       -9.0550   -2.8290   -0.9240 hx        1 BUI      0.095811
     42 H123       -9.1320   -1.0260   -0.5860 hx        1 BUI      0.095811
     43 HN4        -5.1620    0.0780   -1.8740 hn        1 BUI      0.320500
     44 H11        -3.0320    0.6950   -1.1290 hn        1 BUI      0.373500
     45 H151       -1.7160   -1.6270    0.1970 h1        1 BUI      0.045200
     46 H152       -1.7790   -0.0370    1.0760 h1        1 BUI      0.045200
     47 H161       -0.5540    1.0720   -0.8510 hc        1 BUI      0.054200
     48 H162       -0.4590   -0.5190   -1.7020 hc        1 BUI      0.054200
     49 H241        0.7610   -1.5010    0.2740 hc        1 BUI      0.040200
     50 H242        0.6670    0.0910    1.1220 hc        1 BUI      0.040200
     51 H261        1.9390    1.1710   -0.7630 hc        1 BUI      0.042700
     52 H262        2.0350   -0.4190   -1.6110 hc        1 BUI      0.042700
     53 H271        3.2560   -1.3990    0.3620 hc        1 BUI      0.038700
     54 H272        3.1610    0.1930    1.2100 hc        1 BUI      0.038700
     55 H191        4.4340    1.2730   -0.6750 hc        1 BUI      0.040700
     56 H192        4.5300   -0.3170   -1.5230 hc        1 BUI      0.040700
     57 H201        5.7520   -1.2970    0.4500 hc        1 BUI      0.038700
     58 H202        5.6570    0.2940    1.2980 hc        1 BUI      0.038700
     59 H211        6.9300    1.3750   -0.5870 hc        1 BUI      0.040200
     60 H212        7.0250   -0.2150   -1.4360 hc        1 BUI      0.040200
     61 H221        8.2480   -1.1940    0.5370 hc        1 BUI      0.039200
     62 H222        8.1530    0.3960    1.3850 hc        1 BUI      0.039200
     63 H231        9.4260    1.4780   -0.5000 hc        1 BUI      0.039700
     64 H232        9.5200   -0.1130   -1.3490 hc        1 BUI      0.039700
     65 H251       10.7430   -1.0920    0.6240 hc        1 BUI      0.039200
     66 H252       10.6490    0.4980    1.4720 hc        1 BUI      0.039200
     67 H181       11.9220    1.5800   -0.4130 hc        1 BUI      0.039700
     68 H182       12.0160   -0.0110   -1.2620 hc        1 BUI      0.039700
     69 H171       13.2370   -0.9900    0.7110 hc        1 BUI      0.038200
     70 H172       13.1420    0.6010    1.5580 hc        1 BUI      0.038200
     71 H281       14.4480    1.6760   -0.3070 hc        1 BUI      0.032367
     72 H282       15.3550    0.3010    0.4460 hc        1 BUI      0.032367
     73 H283       14.5430    0.0810   -1.1580 hc        1 BUI      0.032367
@<TRIPOS>BOND
     1    1    2 1   
     2    2    3 1   
     3    2    4 1   
     4    4    5 1   
     5    4   29 1   
     6    4   30 1   
     7    5    6 1   
     8    5   11 1   
     9    5   31 1   
    10    6    7 1   
    11    6   32 1   
    12    6   33 1   
    13    7    8 1   
    14    7    9 1   
    15    7   10 1   
    16    8   34 1   
    17    8   35 1   
    18    8   36 1   
    19    9   37 1   
    20    9   38 1   
    21    9   39 1   
    22   10   40 1   
    23   10   41 1   
    24   10   42 1   
    25   11   12 1   
    26   11   43 1   
    27   12   13 2   
    28   12   14 1   
    29   14   15 1   
    30   14   44 1   
    31   15   16 1   
    32   15   45 1   
    33   15   46 1   
    34   16   17 1   
    35   16   47 1   
    36   16   48 1   
    37   17   18 1   
    38   17   49 1   
    39   17   50 1   
    40   18   19 1   
    41   18   51 1   
    42   18   52 1   
    43   19   20 1   
    44   19   53 1   
    45   19   54 1   
    46   20   21 1   
    47   20   55 1   
    48   20   56 1   
    49   21   22 1   
    50   21   57 1   
    51   21   58 1   
    52   22   23 1   
    53   22   59 1   
    54   22   60 1   
    55   23   24 1   
    56   23   61 1   
    57   23   62 1   
    58   24   25 1   
    59   24   63 1   
    60   24   64 1   
    61   25   26 1   
    62   25   65 1   
    63   25   66 1   
    64   26   27 1   
    65   26   67 1   
    66   26   68 1   
    67   27   28 1   
    68   27   69 1   
    69   27   70 1   
    70   28   71 1   
    71   28   72 1   
    72   28   73 1   
@<TRIPOS>SUBSTRUCTURE
     1 BUI         1 TEMP              0 ****  ****    0 ROOT
