@<TRIPOS>MOLECULE
BUI
   75    74     1     0     0
SMALL
bcc


@<TRIPOS>ATOM
      1 O9          0.1070    2.1500   -0.3710 oh        1 BUI     -0.704100
      2 C3          0.7040    0.9140   -0.2620 c         1 BUI      0.620100
      3 O8          0.4570    0.2710    0.7490 o         1 BUI     -0.425000
      4 C2          1.5910    0.5410   -1.4090 c3        1 BUI     -0.176400
      5 C5          0.8080    0.3480   -2.7220 c3        1 BUI      0.078700
      6 C10         1.8250   -0.1090   -3.7970 c3        1 BUI      0.095800
      7 N6          1.3030   -0.9910   -4.8970 n4        1 BUI     -0.602800
      8 C14         0.1310   -0.3800   -5.5880 c3        1 BUI      0.086767
      9 C13         2.4110   -1.1740   -5.8970 c3        1 BUI      0.086767
     10 C12         0.9220   -2.3360   -4.3640 c3        1 BUI      0.086767
     11 N4          0.0240    1.5220   -3.1070 n         1 BUI     -0.495900
     12 C1          0.6900    2.7510   -3.2210 c         1 BUI      0.627100
     13 O7          1.7800    2.9140   -3.7750 o         1 BUI     -0.465100
     14 N11        -0.0090    3.9980   -2.7070 n4        1 BUI     -0.661800
     15 C15         0.6990    5.2610   -3.1120 c3        1 BUI      0.113800
     16 C16        -0.0140    6.5010   -2.5880 c3        1 BUI     -0.111400
     17 C24         0.7560    7.7330   -3.0330 c3        1 BUI     -0.078400
     18 C26         0.0760    8.9900   -2.5300 c3        1 BUI     -0.080400
     19 C27         0.8360   10.2250   -2.9700 c3        1 BUI     -0.079400
     20 C19         0.1600   11.4840   -2.4700 c3        1 BUI     -0.079400
     21 C20         0.9180   12.7200   -2.9090 c3        1 BUI     -0.079400
     22 C21         0.2430   13.9800   -2.4100 c3        1 BUI     -0.079400
     23 C22         1.0000   15.2160   -2.8480 c3        1 BUI     -0.079400
     24 C23         0.3260   16.4760   -2.3500 c3        1 BUI     -0.079400
     25 C25         1.0820   17.7120   -2.7880 c3        1 BUI     -0.079400
     26 C18         0.4080   18.9730   -2.2900 c3        1 BUI     -0.079400
     27 C17         1.1630   20.2100   -2.7280 c3        1 BUI     -0.079400
     28 C28         0.4950   21.4670   -2.2340 c3        1 BUI     -0.094100
     29 H21         2.1010   -0.4250   -1.1330 hc        1 BUI      0.121700
     30 H22         2.3830    1.3290   -1.5340 hc        1 BUI      0.121700
     31 H5          0.0390   -0.4710   -2.5510 h1        1 BUI      0.110700
     32 H101        2.6400   -0.6960   -3.2760 hx        1 BUI      0.127700
     33 H102        2.3040    0.7950   -4.2830 hx        1 BUI      0.127700
     34 H141        0.3880    0.6660   -5.9030 hx        1 BUI      0.108922
     35 H142       -0.7530   -0.3700   -4.8990 hx        1 BUI      0.108922
     36 H143       -0.1210   -0.9920   -6.4980 hx        1 BUI      0.108922
     37 H131        2.6710   -0.1820   -6.3540 hx        1 BUI      0.108922
     38 H132        3.3110   -1.6070   -5.3840 hx        1 BUI      0.108922
     39 H133        2.0650   -1.8780   -6.7030 hx        1 BUI      0.108922
     40 H121        0.5900   -2.9890   -5.2170 hx        1 BUI      0.108922
     41 H122        1.8090   -2.8070   -3.8620 hx        1 BUI      0.108922
     42 H123        0.0780   -2.2360   -3.6320 hx        1 BUI      0.108922
     43 HN4        -0.3570    2.3560    0.4630 ho        1 BUI      0.489000
     44 H11        -0.0350    3.9410   -1.6750 hn        1 BUI      0.472300
     45 H151        1.7520    5.2090   -2.7090 hx        1 BUI      0.118700
     46 H152        0.7510    5.2800   -4.2390 hx        1 BUI      0.118700
     47 H161       -0.0680    6.4840   -1.4670 hc        1 BUI      0.070200
     48 H162       -1.0620    6.5550   -2.9860 hc        1 BUI      0.070200
     49 H241        0.8150    7.7600   -4.1530 hc        1 BUI      0.059200
     50 H242        1.8050    7.6900   -2.6380 hc        1 BUI      0.059200
     51 H261        0.0140    8.9660   -1.4100 hc        1 BUI      0.050200
     52 H262       -0.9740    9.0370   -2.9230 hc        1 BUI      0.050200
     53 H271        1.8860   10.1810   -2.5780 hc        1 BUI      0.046700
     54 H272        0.8990   10.2510   -4.0900 hc        1 BUI      0.046700
     55 H191        0.0970   11.4600   -1.3500 hc        1 BUI      0.044200
     56 H192       -0.8910   11.5300   -2.8610 hc        1 BUI      0.044200
     57 H201        1.9680   12.6760   -2.5170 hc        1 BUI      0.042700
     58 H202        0.9820   12.7450   -4.0280 hc        1 BUI      0.042700
     59 H211        0.1790   13.9550   -1.2900 hc        1 BUI      0.041700
     60 H212       -0.8080   14.0240   -2.8010 hc        1 BUI      0.041700
     61 H221        1.0640   15.2410   -3.9680 hc        1 BUI      0.041200
     62 H222        2.0510   15.1720   -2.4570 hc        1 BUI      0.041200
     63 H231        0.2610   16.4520   -1.2300 hc        1 BUI      0.040700
     64 H232       -0.7250   16.5200   -2.7410 hc        1 BUI      0.040700
     65 H251        2.1330   17.6680   -2.3970 hc        1 BUI      0.040700
     66 H252        1.1460   17.7370   -3.9080 hc        1 BUI      0.040700
     67 H181        0.3430   18.9490   -1.1710 hc        1 BUI      0.040700
     68 H182       -0.6430   19.0170   -2.6810 hc        1 BUI      0.040700
     69 H171        1.2280   20.2320   -3.8480 hc        1 BUI      0.038700
     70 H172        2.2140   20.1630   -2.3370 hc        1 BUI      0.038700
     71 H281        1.0680   22.3660   -2.5680 hc        1 BUI      0.035033
     72 H282        0.4440   21.4760   -1.1190 hc        1 BUI      0.035033
     73 H283       -0.5450   21.5440   -2.6330 hc        1 BUI      0.035033
     74 H42        -0.8580    1.5500   -2.6220 hn        1 BUI      0.332500
     75 H112       -0.9760    4.0380   -3.0520 hn        1 BUI      0.472300
@<TRIPOS>BOND
     1    1    2 1   
     2    1   43 1   
     3    2    3 2   
     4    2    4 1   
     5    4    5 1   
     6    4   29 1   
     7    4   30 1   
     8    5    6 1   
     9    5   11 1   
    10    5   31 1   
    11    6    7 1   
    12    6   32 1   
    13    6   33 1   
    14    7    8 1   
    15    7    9 1   
    16    7   10 1   
    17    8   34 1   
    18    8   35 1   
    19    8   36 1   
    20    9   37 1   
    21    9   38 1   
    22    9   39 1   
    23   10   40 1   
    24   10   41 1   
    25   10   42 1   
    26   11   12 1   
    27   11   74 1   
    28   12   13 2   
    29   12   14 1   
    30   14   15 1   
    31   14   44 1   
    32   14   75 1   
    33   15   16 1   
    34   15   45 1   
    35   15   46 1   
    36   16   17 1   
    37   16   47 1   
    38   16   48 1   
    39   17   18 1   
    40   17   49 1   
    41   17   50 1   
    42   18   19 1   
    43   18   51 1   
    44   18   52 1   
    45   19   20 1   
    46   19   53 1   
    47   19   54 1   
    48   20   21 1   
    49   20   55 1   
    50   20   56 1   
    51   21   22 1   
    52   21   57 1   
    53   21   58 1   
    54   22   23 1   
    55   22   59 1   
    56   22   60 1   
    57   23   24 1   
    58   23   61 1   
    59   23   62 1   
    60   24   25 1   
    61   24   63 1   
    62   24   64 1   
    63   25   26 1   
    64   25   65 1   
    65   25   66 1   
    66   26   27 1   
    67   26   67 1   
    68   26   68 1   
    69   27   28 1   
    70   27   69 1   
    71   27   70 1   
    72   28   71 1   
    73   28   72 1   
    74   28   73 1   
@<TRIPOS>SUBSTRUCTURE
     1 BUI         1 TEMP              0 ****  ****    0 ROOT
