@<TRIPOS>MOLECULE
BUI
   75    74     1     0     0
SMALL
bcc


@<TRIPOS>ATOM
      1 O9          0.1150    2.1480   -0.3710 oh        1 BUI     -0.704100
      2 C3          0.7130    0.9130   -0.2630 c         1 BUI      0.620100
      3 O8          0.4670    0.2690    0.7480 o         1 BUI     -0.425000
      4 C2          1.5980    0.5410   -1.4120 c3        1 BUI     -0.176400
      5 C5          0.8140    0.3480   -2.7230 c3        1 BUI      0.078700
      6 C10         1.8300   -0.1080   -3.8000 c3        1 BUI      0.095800
      7 N6          1.3070   -0.9900   -4.9000 n4        1 BUI     -0.602800
      8 C14         0.1340   -0.3790   -5.5890 c3        1 BUI      0.086767
      9 C13         2.4140   -1.1720   -5.9010 c3        1 BUI      0.086767
     10 C12         0.9280   -2.3350   -4.3670 c3        1 BUI      0.086767
     11 N4          0.0290    1.5220   -3.1070 ns        1 BUI     -0.495900
     12 C1          0.6940    2.7510   -3.2220 c         1 BUI      0.627100
     13 O7          1.7830    2.9150   -3.7760 o         1 BUI     -0.465100
     14 N11        -0.0060    3.9980   -2.7070 ny        1 BUI     -0.661800
     15 C15         0.7010    5.2610   -3.1120 c3        1 BUI      0.113800
     16 C16        -0.0120    6.5000   -2.5870 c3        1 BUI     -0.111400
     17 C24         0.7560    7.7330   -3.0330 c3        1 BUI     -0.078400
     18 C26         0.0750    8.9900   -2.5300 c3        1 BUI     -0.080400
     19 C27         0.8340   10.2250   -2.9690 c3        1 BUI     -0.079400
     20 C19         0.1570   11.4840   -2.4700 c3        1 BUI     -0.079400
     21 C20         0.9140   12.7200   -2.9080 c3        1 BUI     -0.079400
     22 C21         0.2380   13.9790   -2.4090 c3        1 BUI     -0.079400
     23 C22         0.9950   15.2160   -2.8460 c3        1 BUI     -0.079400
     24 C23         0.3190   16.4760   -2.3490 c3        1 BUI     -0.079400
     25 C25         1.0750   17.7120   -2.7850 c3        1 BUI     -0.079400
     26 C18         0.4000   18.9720   -2.2880 c3        1 BUI     -0.079400
     27 C17         1.1550   20.2100   -2.7240 c3        1 BUI     -0.079400
     28 C28         0.4860   21.4670   -2.2310 c3        1 BUI     -0.094100
     29 H21         2.3890    1.3300   -1.5370 hc        1 BUI      0.121700
     30 H22         2.1090   -0.4250   -1.1360 hc        1 BUI      0.121700
     31 H5          0.0460   -0.4710   -2.5520 h1        1 BUI      0.110700
     32 H101        2.6460   -0.6950   -3.2800 hx        1 BUI      0.127700
     33 H102        2.3070    0.7960   -4.2860 hx        1 BUI      0.127700
     34 H141        0.3900    0.6660   -5.9040 hx        1 BUI      0.108922
     35 H142       -0.1190   -0.9910   -6.4990 hx        1 BUI      0.108922
     36 H143       -0.7490   -0.3710   -4.8990 hx        1 BUI      0.108922
     37 H131        2.6730   -0.1800   -6.3580 hx        1 BUI      0.108922
     38 H132        3.3150   -1.6050   -5.3900 hx        1 BUI      0.108922
     39 H133        2.0680   -1.8760   -6.7070 hx        1 BUI      0.108922
     40 H121        1.8160   -2.8070   -3.8660 hx        1 BUI      0.108922
     41 H122        0.5950   -2.9890   -5.2200 hx        1 BUI      0.108922
     42 H123        0.0850   -2.2360   -3.6340 hx        1 BUI      0.108922
     43 HN4        -0.8530    1.5480   -2.6210 hn        1 BUI      0.332500
     44 H11        -0.9730    4.0360   -3.0510 hn        1 BUI      0.472300
     45 H151        0.7520    5.2800   -4.2390 hx        1 BUI      0.118700
     46 H152        1.7540    5.2100   -2.7100 hx        1 BUI      0.118700
     47 H161       -0.0660    6.4830   -1.4660 hc        1 BUI      0.070200
     48 H162       -1.0610    6.5540   -2.9850 hc        1 BUI      0.070200
     49 H241        0.8150    7.7600   -4.1530 hc        1 BUI      0.059200
     50 H242        1.8050    7.6910   -2.6390 hc        1 BUI      0.059200
     51 H261        0.0140    8.9660   -1.4100 hc        1 BUI      0.050200
     52 H262       -0.9750    9.0350   -2.9220 hc        1 BUI      0.050200
     53 H271        0.8970   10.2510   -4.0890 hc        1 BUI      0.046700
     54 H272        1.8850   10.1820   -2.5780 hc        1 BUI      0.046700
     55 H191       -0.8930   11.5280   -2.8610 hc        1 BUI      0.044200
     56 H192        0.0940   11.4590   -1.3500 hc        1 BUI      0.044200
     57 H201        0.9790   12.7450   -4.0270 hc        1 BUI      0.042700
     58 H202        1.9650   12.6770   -2.5160 hc        1 BUI      0.042700
     59 H211       -0.8120   14.0230   -2.8010 hc        1 BUI      0.041700
     60 H212        0.1740   13.9550   -1.2900 hc        1 BUI      0.041700
     61 H221        2.0450   15.1730   -2.4550 hc        1 BUI      0.041200
     62 H222        1.0600   15.2410   -3.9660 hc        1 BUI      0.041200
     63 H231       -0.7310   16.5200   -2.7400 hc        1 BUI      0.040700
     64 H232        0.2540   16.4510   -1.2290 hc        1 BUI      0.040700
     65 H251        2.1260   17.6690   -2.3930 hc        1 BUI      0.040700
     66 H252        1.1410   17.7380   -3.9050 hc        1 BUI      0.040700
     67 H181       -0.6500   19.0160   -2.6800 hc        1 BUI      0.040700
     68 H182        0.3340   18.9480   -1.1680 hc        1 BUI      0.040700
     69 H171        1.2220   20.2330   -3.8440 hc        1 BUI      0.038700
     70 H172        2.2060   20.1640   -2.3320 hc        1 BUI      0.038700
     71 H281       -0.5540   21.5440   -2.6320 hc        1 BUI      0.035033
     72 H282        1.0590   22.3660   -2.5630 hc        1 BUI      0.035033
     73 H283        0.4330   21.4750   -1.1150 hc        1 BUI      0.035033
     74 H42        -0.3480    2.3540    0.4630 ho        1 BUI      0.489000
     75 H112       -0.0300    3.9400   -1.6750 hn        1 BUI      0.472300
@<TRIPOS>BOND
     1    1    2 1   
     2    1   74 1   
     3    2    3 2   
     4    2    4 1   
     5    4    5 1   
     6    4   29 1   
     7    4   30 1   
     8    5    6 1   
     9    5   11 1   
    10    5   31 1   
    11    6    7 1   
    12    6   32 1   
    13    6   33 1   
    14    7    8 1   
    15    7    9 1   
    16    7   10 1   
    17    8   34 1   
    18    8   35 1   
    19    8   36 1   
    20    9   37 1   
    21    9   38 1   
    22    9   39 1   
    23   10   40 1   
    24   10   41 1   
    25   10   42 1   
    26   11   12 1   
    27   11   43 1   
    28   12   13 2   
    29   12   14 1   
    30   14   15 1   
    31   14   44 1   
    32   14   75 1   
    33   15   16 1   
    34   15   45 1   
    35   15   46 1   
    36   16   17 1   
    37   16   47 1   
    38   16   48 1   
    39   17   18 1   
    40   17   49 1   
    41   17   50 1   
    42   18   19 1   
    43   18   51 1   
    44   18   52 1   
    45   19   20 1   
    46   19   53 1   
    47   19   54 1   
    48   20   21 1   
    49   20   55 1   
    50   20   56 1   
    51   21   22 1   
    52   21   57 1   
    53   21   58 1   
    54   22   23 1   
    55   22   59 1   
    56   22   60 1   
    57   23   24 1   
    58   23   61 1   
    59   23   62 1   
    60   24   25 1   
    61   24   63 1   
    62   24   64 1   
    63   25   26 1   
    64   25   65 1   
    65   25   66 1   
    66   26   27 1   
    67   26   67 1   
    68   26   68 1   
    69   27   28 1   
    70   27   69 1   
    71   27   70 1   
    72   28   71 1   
    73   28   72 1   
    74   28   73 1   
@<TRIPOS>SUBSTRUCTURE
     1 BUI         1 TEMP              0 ****  ****    0 ROOT
