@<TRIPOS>MOLECULE
BUI
   73    71     1     0     0
SMALL
bcc


@<TRIPOS>ATOM
      1 O9          1.4380   -5.3350    6.4350 o         1 BUI     -0.485000
      2 C3          2.4940   -5.9390    6.0810 c1        1 BUI      0.330000
      3 O8          3.1620   -6.5820    6.9260 os        1 BUI     -0.627000
      4 C2          3.0090   -5.7990    4.6510 c3        1 BUI     -0.285000
      5 C5          2.0030   -6.3860    3.6950 c3        1 BUI      0.022000
      6 C10         2.7400   -7.1100    2.5520 c3        1 BUI     -0.113000
      7 N6          2.3050   -8.5180    2.4970 n4        1 BUI      0.052000
      8 C14         2.6500   -9.1740    3.7240 c3        1 BUI     -0.205667
      9 C13         0.8810   -8.5740    2.3070 c3        1 BUI     -0.205667
     10 C12         2.9680   -9.1880    1.3870 c3        1 BUI     -0.205667
     11 N4          1.1950   -5.3420    3.1540 n         1 BUI     -0.339000
     12 C1          1.8110   -4.0960    2.7080 c2        1 BUI      0.367000
     13 O7          2.9990   -4.0580    2.4710 o         1 BUI     -0.431000
     14 N11         0.9890   -2.9070    2.5100 n         1 BUI     -0.361000
     15 C15         1.4580   -1.8310    1.6480 c3        1 BUI     -0.030000
     16 C16         0.4670   -0.6430    1.7190 c3        1 BUI     -0.190000
     17 C24         0.6690    0.2760    0.4800 c3        1 BUI     -0.154000
     18 C26        -0.1190    1.5920    0.6770 c3        1 BUI     -0.158000
     19 C27        -0.5250    2.1630   -0.7040 c3        1 BUI     -0.157000
     20 C19        -0.8140    3.6770   -0.5720 c3        1 BUI     -0.158000
     21 C20        -1.7090    4.1360   -1.7480 c3        1 BUI     -0.157000
     22 C21        -1.5640    5.6500   -1.9380 c3        1 BUI     -0.158000
     23 C22        -2.6700    6.1600   -2.8770 c3        1 BUI     -0.157000
     24 C23        -2.2140    7.4800   -3.5390 c3        1 BUI     -0.158000
     25 C25        -3.3690    8.0620   -4.3770 c3        1 BUI     -0.158000
     26 C18        -2.8280    9.1730   -5.2960 c3        1 BUI     -0.158000
     27 C17        -3.9850    9.7760   -6.1040 c3        1 BUI     -0.159000
     28 C28        -3.4320   10.8000   -7.1090 c3        1 BUI     -0.210000
     29 H21         3.8490   -6.2700    4.5640 hc        1 BUI      0.090500
     30 H22         3.1430   -4.8450    4.4430 hc        1 BUI      0.090500
     31 H5          1.4400   -7.0180    4.1670 h1        1 BUI      0.138000
     32 H101        3.6930   -7.0740    2.7100 hx        1 BUI      0.142000
     33 H102        2.5360   -6.6740    1.7060 hx        1 BUI      0.142000
     34 H141        2.6270  -10.1540    3.5920 hx        1 BUI      0.140667
     35 H142        3.5530   -8.9010    3.9980 hx        1 BUI      0.140667
     36 H143        2.0060   -8.9230    4.4220 hx        1 BUI      0.140667
     37 H131        0.6300   -9.4630    1.9650 hx        1 BUI      0.140667
     38 H132        0.6120   -7.8890    1.6610 hx        1 BUI      0.140667
     39 H133        0.4300   -8.4130    3.1630 hx        1 BUI      0.140667
     40 H121        3.9410   -9.1040    1.4880 hx        1 BUI      0.140667
     41 H122        2.6890   -8.7730    0.5410 hx        1 BUI      0.140667
     42 H123        2.7180  -10.1450    1.3830 hx        1 BUI      0.140667
     43 HN4         0.3060   -5.4550    3.0810 hn        1 BUI      0.218000
     44 H11         0.1980   -2.8320    2.9310 hn        1 BUI      0.216000
     45 H151        1.5150   -2.1500    0.7340 h1        1 BUI      0.105500
     46 H152        2.3380   -1.5380    1.9450 h1        1 BUI      0.105500
     47 H161       -0.4510   -0.9840    1.7260 hc        1 BUI      0.087500
     48 H162        0.6300   -0.1300    2.5350 hc        1 BUI      0.087500
     49 H241        0.3470   -0.1770   -0.3150 hc        1 BUI      0.081000
     50 H242        1.6270    0.4800    0.3760 hc        1 BUI      0.081000
     51 H261       -0.9170    1.4160    1.2010 hc        1 BUI      0.082000
     52 H262        0.4410    2.2400    1.1440 hc        1 BUI      0.082000
     53 H271        0.2020    2.0250   -1.3380 hc        1 BUI      0.078500
     54 H272       -1.3240    1.7060   -1.0220 hc        1 BUI      0.078500
     55 H191        0.0290    4.1720   -0.5920 hc        1 BUI      0.080000
     56 H192       -1.2720    3.8480    0.2720 hc        1 BUI      0.080000
     57 H201       -2.6420    3.9200   -1.5510 hc        1 BUI      0.078500
     58 H202       -1.4330    3.6750   -2.5690 hc        1 BUI      0.078500
     59 H211       -0.6890    5.8460   -2.3290 hc        1 BUI      0.079500
     60 H212       -1.6420    6.0980   -1.0660 hc        1 BUI      0.079500
     61 H221       -2.8460    5.4900   -3.5710 hc        1 BUI      0.078500
     62 H222       -3.4930    6.3200   -2.3590 hc        1 BUI      0.078500
     63 H231       -1.9600    8.1180   -2.8490 hc        1 BUI      0.079000
     64 H232       -1.4410    7.3030   -4.1240 hc        1 BUI      0.079000
     65 H251       -3.7680    7.3510   -4.9220 hc        1 BUI      0.078000
     66 H252       -4.0530    8.4380   -3.7760 hc        1 BUI      0.078000
     67 H181       -2.4130    9.8680   -4.7540 hc        1 BUI      0.079000
     68 H182       -2.1630    8.7960   -5.9080 hc        1 BUI      0.079000
     69 H171       -4.6070   10.2180   -5.4990 hc        1 BUI      0.077000
     70 H172       -4.4520    9.0620   -6.5890 hc        1 BUI      0.077000
     71 H281       -2.9120   10.3340   -7.8020 hc        1 BUI      0.072000
     72 H282       -2.8520   11.4400   -6.6400 hc        1 BUI      0.072000
     73 H283       -4.1790   11.2830   -7.5300 hc        1 BUI      0.072000
@<TRIPOS>BOND
     1    1    2 1   
     2    2    4 1   
     3    4    5 1   
     4    4   29 1   
     5    4   30 1   
     6    5    6 1   
     7    5   11 1   
     8    5   31 1   
     9    6    7 1   
    10    6   32 1   
    11    6   33 1   
    12    7    8 1   
    13    7    9 1   
    14    7   10 1   
    15    8   34 1   
    16    8   35 1   
    17    8   36 1   
    18    9   37 1   
    19    9   38 1   
    20    9   39 1   
    21   10   40 1   
    22   10   41 1   
    23   10   42 1   
    24   11   12 1   
    25   11   43 1   
    26   12   13 1   
    27   12   14 1   
    28   14   15 1   
    29   14   44 1   
    30   15   16 1   
    31   15   45 1   
    32   15   46 1   
    33   16   17 1   
    34   16   47 1   
    35   16   48 1   
    36   17   18 1   
    37   17   49 1   
    38   17   50 1   
    39   18   19 1   
    40   18   51 1   
    41   18   52 1   
    42   19   20 1   
    43   19   53 1   
    44   19   54 1   
    45   20   21 1   
    46   20   55 1   
    47   20   56 1   
    48   21   22 1   
    49   21   57 1   
    50   21   58 1   
    51   22   23 1   
    52   22   59 1   
    53   22   60 1   
    54   23   24 1   
    55   23   61 1   
    56   23   62 1   
    57   24   25 1   
    58   24   63 1   
    59   24   64 1   
    60   25   26 1   
    61   25   65 1   
    62   25   66 1   
    63   26   27 1   
    64   26   67 1   
    65   26   68 1   
    66   27   28 1   
    67   27   69 1   
    68   27   70 1   
    69   28   71 1   
    70   28   72 1   
    71   28   73 1   
@<TRIPOS>SUBSTRUCTURE
     1 BUI         1 TEMP              0 ****  ****    0 ROOT
