@<TRIPOS>MOLECULE
BUJ
   75    74     1     0     0
SMALL
bcc


@<TRIPOS>ATOM
      1 O14         1.0310   -0.2580    1.2500 oh        1 BUJ     -0.542100
      2 C7          0.5250   -0.1170   -0.0020 c         1 BUJ      0.629100
      3 O13        -0.6900    0.0880   -0.0410 o         1 BUJ     -0.497000
      4 C4          1.4420   -0.2160   -1.1870 c3        1 BUJ     -0.223400
      5 C1          0.6350   -0.1080   -2.5000 c3        1 BUJ      0.101700
      6 C3          1.6300   -0.4490   -3.6350 c3        1 BUJ      0.100800
      7 N6          1.0800   -0.5290   -5.0330 n4        1 BUJ     -0.589800
      8 C12         0.8660    0.8270   -5.6270 c3        1 BUJ      0.087100
      9 C11         2.0950   -1.2480   -5.8730 c3        1 BUJ      0.087100
     10 C10        -0.1990   -1.2960   -5.0660 c3        1 BUJ      0.087100
     11 N2         -0.0650    1.1440   -2.6550 n         1 BUJ     -0.569900
     12 C5          0.6200    2.3630   -2.7990 c         1 BUJ      0.645100
     13 O9          1.7920    2.3640   -3.2250 o         1 BUJ     -0.621100
     14 C8         -0.1530    3.6260   -2.4910 c3        1 BUJ     -0.152400
     15 C15         0.6040    4.8580   -2.9410 c3        1 BUJ     -0.074400
     16 C16        -0.1610    6.1150   -2.5870 c3        1 BUJ     -0.081400
     17 C17         0.5870    7.3510   -3.0400 c3        1 BUJ     -0.078400
     18 C18        -0.1740    8.6110   -2.6870 c3        1 BUJ     -0.079400
     19 C19         0.5720    9.8470   -3.1400 c3        1 BUJ     -0.078400
     20 C20        -0.1890   11.1070   -2.7880 c3        1 BUJ     -0.079400
     21 C21         0.5570   12.3430   -3.2410 c3        1 BUJ     -0.078400
     22 C22        -0.2040   13.6030   -2.8890 c3        1 BUJ     -0.079400
     23 C23         0.5410   14.8400   -3.3420 c3        1 BUJ     -0.078400
     24 C24        -0.2200   16.1000   -2.9900 c3        1 BUJ     -0.079400
     25 C25         0.5250   17.3370   -3.4440 c3        1 BUJ     -0.079400
     26 C26        -0.2350   18.5970   -3.0910 c3        1 BUJ     -0.079400
     27 C27         0.5090   19.8350   -3.5450 c3        1 BUJ     -0.080400
     28 C28        -0.2450   21.0920   -3.1950 c3        1 BUJ     -0.093100
     29 H41         1.9780   -1.2010   -1.1490 hc        1 BUJ      0.096700
     30 H42         2.2080    0.6050   -1.1340 hc        1 BUJ      0.096700
     31 H1         -0.1650   -0.9130   -2.4630 h1        1 BUJ      0.086700
     32 H31         2.0570   -1.4660   -3.3950 hx        1 BUJ      0.114200
     33 H32         2.4650    0.3150   -3.6410 hx        1 BUJ      0.114200
     34 H121        1.7500    1.4830   -5.3940 hx        1 BUJ      0.103144
     35 H122       -0.0590    1.2930   -5.1970 hx        1 BUJ      0.103144
     36 H123        0.7430    0.7250   -6.7380 hx        1 BUJ      0.103144
     37 H111        3.0640   -0.6830   -5.8410 hx        1 BUJ      0.103144
     38 H112        2.2440   -2.2860   -5.4760 hx        1 BUJ      0.103144
     39 H113        1.7280   -1.3060   -6.9320 hx        1 BUJ      0.103144
     40 H101       -0.5080   -1.4490   -6.1350 hx        1 BUJ      0.103144
     41 H102       -1.0010   -0.7220   -4.5300 hx        1 BUJ      0.103144
     42 H103       -0.0490   -2.2920   -4.5710 hx        1 BUJ      0.103144
     43 H2         -0.9000    1.1850   -2.0980 hn        1 BUJ      0.338500
     44 H81        -0.3280    3.6700   -1.3810 hc        1 BUJ      0.083200
     45 H82        -1.1580    3.5910   -2.9910 hc        1 BUJ      0.083200
     46 H151        1.6170    4.8750   -2.4570 hc        1 BUJ      0.057200
     47 H152        0.7740    4.8120   -4.0490 hc        1 BUJ      0.057200
     48 H161       -0.3230    6.1600   -1.4780 hc        1 BUJ      0.045200
     49 H162       -1.1740    6.0910   -3.0690 hc        1 BUJ      0.045200
     50 H171        0.7500    7.3080   -4.1490 hc        1 BUJ      0.042700
     51 H172        1.6000    7.3760   -2.5580 hc        1 BUJ      0.042700
     52 H181       -0.3360    8.6550   -1.5770 hc        1 BUJ      0.042700
     53 H182       -1.1880    8.5860   -3.1680 hc        1 BUJ      0.042700
     54 H191        0.7340    9.8030   -4.2500 hc        1 BUJ      0.040700
     55 H192        1.5850    9.8720   -2.6590 hc        1 BUJ      0.040700
     56 H201       -0.3500   11.1510   -1.6780 hc        1 BUJ      0.041200
     57 H202       -1.2020   11.0810   -3.2680 hc        1 BUJ      0.041200
     58 H211        1.5700   12.3690   -2.7600 hc        1 BUJ      0.040200
     59 H212        0.7180   12.3000   -4.3510 hc        1 BUJ      0.040200
     60 H221       -1.2180   13.5780   -3.3690 hc        1 BUJ      0.040200
     61 H222       -0.3650   13.6470   -1.7790 hc        1 BUJ      0.040200
     62 H231        0.7030   14.7960   -4.4520 hc        1 BUJ      0.039700
     63 H232        1.5550   14.8660   -2.8620 hc        1 BUJ      0.039700
     64 H241       -0.3810   16.1440   -1.8800 hc        1 BUJ      0.040200
     65 H242       -1.2330   16.0740   -3.4700 hc        1 BUJ      0.040200
     66 H251        0.6860   17.2930   -4.5530 hc        1 BUJ      0.039700
     67 H252        1.5390   17.3630   -2.9630 hc        1 BUJ      0.039700
     68 H261       -1.2490   18.5720   -3.5710 hc        1 BUJ      0.039700
     69 H262       -0.3970   18.6420   -1.9820 hc        1 BUJ      0.039700
     70 H271        1.5230   19.8580   -3.0640 hc        1 BUJ      0.038700
     71 H272        0.6700   19.7880   -4.6540 hc        1 BUJ      0.038700
     72 H281       -1.2490   21.0990   -3.6850 hc        1 BUJ      0.033700
     73 H282       -0.3940   21.1690   -2.0910 hc        1 BUJ      0.033700
     74 H283        0.3200   21.9920   -3.5380 hc        1 BUJ      0.033700
     75 H22         1.9890   -0.4040    1.2170 ho        1 BUJ      0.438000
@<TRIPOS>BOND
     1    1    2 1   
     2    1   75 1   
     3    2    3 2   
     4    2    4 1   
     5    4    5 1   
     6    4   29 1   
     7    4   30 1   
     8    5    6 1   
     9    5   11 1   
    10    5   31 1   
    11    6    7 1   
    12    6   32 1   
    13    6   33 1   
    14    7    8 1   
    15    7    9 1   
    16    7   10 1   
    17    8   34 1   
    18    8   35 1   
    19    8   36 1   
    20    9   37 1   
    21    9   38 1   
    22    9   39 1   
    23   10   40 1   
    24   10   41 1   
    25   10   42 1   
    26   11   12 1   
    27   11   43 1   
    28   12   13 2   
    29   12   14 1   
    30   14   15 1   
    31   14   44 1   
    32   14   45 1   
    33   15   16 1   
    34   15   46 1   
    35   15   47 1   
    36   16   17 1   
    37   16   48 1   
    38   16   49 1   
    39   17   18 1   
    40   17   50 1   
    41   17   51 1   
    42   18   19 1   
    43   18   52 1   
    44   18   53 1   
    45   19   20 1   
    46   19   54 1   
    47   19   55 1   
    48   20   21 1   
    49   20   56 1   
    50   20   57 1   
    51   21   22 1   
    52   21   58 1   
    53   21   59 1   
    54   22   23 1   
    55   22   60 1   
    56   22   61 1   
    57   23   24 1   
    58   23   62 1   
    59   23   63 1   
    60   24   25 1   
    61   24   64 1   
    62   24   65 1   
    63   25   26 1   
    64   25   66 1   
    65   25   67 1   
    66   26   27 1   
    67   26   68 1   
    68   26   69 1   
    69   27   28 1   
    70   27   70 1   
    71   27   71 1   
    72   28   72 1   
    73   28   73 1   
    74   28   74 1   
@<TRIPOS>SUBSTRUCTURE
     1 BUJ         1 TEMP              0 ****  ****    0 ROOT
