@<TRIPOS>MOLECULE
BUJ
   74    71     1     0     0
SMALL
bcc


@<TRIPOS>ATOM
      1 O14        -5.4850   -5.7960   -3.2900 o         1 BUJ     -0.564000
      2 C7         -5.6240   -4.5930   -3.6360 c1        1 BUJ      0.319000
      3 O13        -4.8120   -4.0730   -4.4480 o         1 BUJ     -0.564000
      4 C4         -6.8250   -3.7860   -3.1310 c2        1 BUJ     -0.250000
      5 C1         -6.6260   -3.4450   -1.6640 c3        1 BUJ      0.035000
      6 C3         -7.9900   -3.3970   -0.9610 c3        1 BUJ     -0.138000
      7 N6         -8.0670   -4.4870    0.0600 n4        1 BUJ      0.058000
      8 C12        -6.9600   -4.3370    1.0280 c3        1 BUJ     -0.204667
      9 C11        -9.3320   -4.4020    0.7600 c3        1 BUJ     -0.204667
     10 C10        -7.9650   -5.7590   -0.5900 c3        1 BUJ     -0.204667
     11 N2         -5.9950   -2.1800   -1.5540 n3        1 BUJ     -0.378000
     12 C5         -4.5280   -2.0880   -1.5230 c1        1 BUJ      0.306000
     13 O9         -3.8490   -3.0780   -1.7460 o         1 BUJ     -0.425000
     14 C8         -3.8450   -0.7180   -1.2910 c2        1 BUJ     -0.181000
     15 C15        -2.3210   -0.8580   -1.5090 c3        1 BUJ     -0.157000
     16 C16        -1.6110    0.4170   -1.0080 c3        1 BUJ     -0.158000
     17 C17        -0.0950    0.2760   -1.2130 c3        1 BUJ     -0.158000
     18 C18         0.6300    1.4640   -0.5210 c3        1 BUJ     -0.157000
     19 C19         2.1500    1.3020   -0.6690 c3        1 BUJ     -0.158000
     20 C20         2.8830    2.4340    0.1580 c3        1 BUJ     -0.157000
     21 C21         4.4170    2.2140    0.0880 c3        1 BUJ     -0.158000
     22 C22         5.1510    3.3460    0.9000 c3        1 BUJ     -0.157000
     23 C23         6.6580    3.0150    0.9890 c3        1 BUJ     -0.158000
     24 C24         7.3810    4.1080    1.7960 c3        1 BUJ     -0.157000
     25 C25         8.8980    3.8100    1.8200 c3        1 BUJ     -0.158000
     26 C26         9.6160    4.8930    2.6170 c3        1 BUJ     -0.158000
     27 C27        11.1110    4.5860    2.6610 c3        1 BUJ     -0.159000
     28 C28        11.8310    5.6890    3.4040 c3        1 BUJ     -0.210000
     29 H41        -6.9050   -2.9510   -3.6560 ha        1 BUJ      0.097500
     30 H42        -7.6450   -4.3190   -3.2350 ha        1 BUJ      0.097500
     31 H1         -6.0710   -4.1220   -1.2470 h1        1 BUJ      0.121000
     32 H31        -8.7020   -3.5190   -1.6230 hx        1 BUJ      0.149000
     33 H32        -8.0990   -2.5260   -0.5190 hx        1 BUJ      0.149000
     34 H121       -6.7860   -3.3800    1.1830 hx        1 BUJ      0.141778
     35 H122       -6.1550   -4.7620    0.6710 hx        1 BUJ      0.141778
     36 H123       -7.2110   -4.7710    1.8870 hx        1 BUJ      0.141778
     37 H111       -9.4030   -5.1450    1.4010 hx        1 BUJ      0.141778
     38 H112       -9.3830   -3.5510    1.2400 hx        1 BUJ      0.141778
     39 H113      -10.0690   -4.4580    0.1120 hx        1 BUJ      0.141778
     40 H101       -8.4860   -5.7430   -1.4200 hx        1 BUJ      0.141778
     41 H102       -8.3180   -6.4640    0.0070 hx        1 BUJ      0.141778
     42 H103       -7.0270   -5.9460   -0.7970 hx        1 BUJ      0.141778
     43 H2         -6.5020   -1.4160   -1.5450 hn        1 BUJ      0.239000
     44 H81        -4.2040   -0.0640   -1.9200 ha        1 BUJ      0.113000
     45 H82        -4.0160   -0.4200   -0.3800 ha        1 BUJ      0.113000
     46 H151       -2.1390   -0.9800   -2.4610 hc        1 BUJ      0.089000
     47 H152       -1.9910   -1.6320   -1.0120 hc        1 BUJ      0.089000
     48 H161       -1.8000    0.5430   -0.0540 hc        1 BUJ      0.082000
     49 H162       -1.9360    1.1910   -1.5090 hc        1 BUJ      0.082000
     50 H171        0.2130   -0.5720   -0.8190 hc        1 BUJ      0.082000
     51 H172        0.1060    0.2840   -2.1680 hc        1 BUJ      0.082000
     52 H181        0.3950    1.4790    0.4320 hc        1 BUJ      0.079500
     53 H182        0.3510    2.3030   -0.9380 hc        1 BUJ      0.079500
     54 H191        2.4180    0.4270   -0.3320 hc        1 BUJ      0.080000
     55 H192        2.3950    1.3760   -1.6120 hc        1 BUJ      0.080000
     56 H201        2.6610    3.3120   -0.2200 hc        1 BUJ      0.079000
     57 H202        2.5900    2.3970    1.0910 hc        1 BUJ      0.079000
     58 H211        4.7090    2.2430   -0.8520 hc        1 BUJ      0.080000
     59 H212        4.6390    1.3430    0.4720 hc        1 BUJ      0.080000
     60 H221        5.0300    4.2070    0.4440 hc        1 BUJ      0.079000
     61 H222        4.7740    3.3990    1.8020 hc        1 BUJ      0.079000
     62 H231        7.0310    2.9730    0.0980 hc        1 BUJ      0.079000
     63 H232        6.7750    2.1550    1.4300 hc        1 BUJ      0.079000
     64 H241        7.2260    4.9830    1.3770 hc        1 BUJ      0.079000
     65 H242        7.0360    4.1200    2.7150 hc        1 BUJ      0.079000
     66 H251        9.0530    2.9380    2.2400 hc        1 BUJ      0.079000
     67 H252        9.2430    3.7970    0.9000 hc        1 BUJ      0.079000
     68 H261        9.4750    5.7560    2.1930 hc        1 BUJ      0.079000
     69 H262        9.2600    4.9150    3.5300 hc        1 BUJ      0.079000
     70 H271       11.4560    4.5270    1.7550 hc        1 BUJ      0.078000
     71 H272       11.2570    3.7330    3.1210 hc        1 BUJ      0.078000
     72 H281       11.4770    5.7520    4.3170 hc        1 BUJ      0.072000
     73 H282       11.6910    6.5430    2.9390 hc        1 BUJ      0.072000
     74 H283       12.7940    5.4870    3.4380 hc        1 BUJ      0.072000
@<TRIPOS>BOND
     1    1    2 1   
     2    2    3 1   
     3    4    5 1   
     4    4   29 1   
     5    4   30 1   
     6    5    6 1   
     7    5   11 1   
     8    5   31 1   
     9    6    7 1   
    10    6   32 1   
    11    6   33 1   
    12    7    8 1   
    13    7    9 1   
    14    7   10 1   
    15    8   34 1   
    16    8   35 1   
    17    8   36 1   
    18    9   37 1   
    19    9   38 1   
    20    9   39 1   
    21   10   40 1   
    22   10   41 1   
    23   10   42 1   
    24   11   12 1   
    25   11   43 1   
    26   12   13 1   
    27   14   15 1   
    28   14   44 1   
    29   14   45 1   
    30   15   16 1   
    31   15   46 1   
    32   15   47 1   
    33   16   17 1   
    34   16   48 1   
    35   16   49 1   
    36   17   18 1   
    37   17   50 1   
    38   17   51 1   
    39   18   19 1   
    40   18   52 1   
    41   18   53 1   
    42   19   20 1   
    43   19   54 1   
    44   19   55 1   
    45   20   21 1   
    46   20   56 1   
    47   20   57 1   
    48   21   22 1   
    49   21   58 1   
    50   21   59 1   
    51   22   23 1   
    52   22   60 1   
    53   22   61 1   
    54   23   24 1   
    55   23   62 1   
    56   23   63 1   
    57   24   25 1   
    58   24   64 1   
    59   24   65 1   
    60   25   26 1   
    61   25   66 1   
    62   25   67 1   
    63   26   27 1   
    64   26   68 1   
    65   26   69 1   
    66   27   28 1   
    67   27   70 1   
    68   27   71 1   
    69   28   72 1   
    70   28   73 1   
    71   28   74 1   
@<TRIPOS>SUBSTRUCTURE
     1 BUJ         1 TEMP              0 ****  ****    0 ROOT
