@<TRIPOS>MOLECULE
BUJ
   74    73     1     0     0
SMALL
bcc


@<TRIPOS>ATOM
      1 O14         5.0190   -2.5490   -1.1490 o         1 BUJ     -0.816300
      2 C7          6.0690   -2.6920   -0.4550 c         1 BUJ      0.916600
      3 O13         6.8860   -3.6380   -0.5470 o         1 BUJ     -0.816300
      4 C4          6.3870   -1.5830    0.5870 c3        1 BUJ     -0.255400
      5 C1          6.6020   -0.2520   -0.1440 c3        1 BUJ      0.083700
      6 C3          7.0760    0.7600    0.9200 c3        1 BUJ      0.102800
      7 N6          7.5540    2.1060    0.4230 n4        1 BUJ     -0.589800
      8 C12         6.4140    3.0190    0.1180 c3        1 BUJ      0.090767
      9 C11         8.3700    2.7260    1.5120 c3        1 BUJ      0.090767
     10 C10         8.4060    1.9540   -0.7890 c3        1 BUJ      0.090767
     11 N2          5.4600    0.1780   -0.9360 n         1 BUJ     -0.539900
     12 C5          4.2570    0.5170   -0.2810 c         1 BUJ      0.656100
     13 O9          4.2700    1.2500    0.7340 o         1 BUJ     -0.660100
     14 C8          2.9740    0.0310   -0.9170 c3        1 BUJ     -0.170400
     15 C15         1.7550    0.4970   -0.1540 c3        1 BUJ     -0.069400
     16 C16         0.4880   -0.0330   -0.7910 c3        1 BUJ     -0.081400
     17 C17        -0.7370    0.4240   -0.0290 c3        1 BUJ     -0.077400
     18 C18        -2.0060   -0.1040   -0.6640 c3        1 BUJ     -0.079400
     19 C19        -3.2320    0.3520    0.0970 c3        1 BUJ     -0.078400
     20 C20        -4.5010   -0.1750   -0.5390 c3        1 BUJ     -0.079400
     21 C21        -5.7270    0.2800    0.2220 c3        1 BUJ     -0.078400
     22 C22        -6.9960   -0.2460   -0.4150 c3        1 BUJ     -0.079400
     23 C23        -8.2230    0.2090    0.3460 c3        1 BUJ     -0.078400
     24 C24        -9.4910   -0.3170   -0.2910 c3        1 BUJ     -0.079400
     25 C25       -10.7180    0.1390    0.4690 c3        1 BUJ     -0.079400
     26 C26       -11.9860   -0.3870   -0.1680 c3        1 BUJ     -0.079400
     27 C27       -13.2140    0.0680    0.5920 c3        1 BUJ     -0.080400
     28 C28       -14.4790   -0.4530   -0.0390 c3        1 BUJ     -0.092100
     29 H41         5.5340   -1.5080    1.3030 hc        1 BUJ      0.051700
     30 H42         7.3120   -1.8670    1.1440 hc        1 BUJ      0.051700
     31 H1          7.4410   -0.4190   -0.8880 h1        1 BUJ      0.068700
     32 H31         6.2400    0.9500    1.6550 hx        1 BUJ      0.106700
     33 H32         7.9480    0.2840    1.4540 hx        1 BUJ      0.106700
     34 H121        5.6970    3.0230    0.9850 hx        1 BUJ      0.095478
     35 H122        6.8110    4.0500   -0.0700 hx        1 BUJ      0.095478
     36 H123        5.8650    2.6540   -0.7900 hx        1 BUJ      0.095478
     37 H111        9.2710    2.0890    1.7160 hx        1 BUJ      0.095478
     38 H112        8.7030    3.7500    1.1970 hx        1 BUJ      0.095478
     39 H113        7.7440    2.8020    2.4390 hx        1 BUJ      0.095478
     40 H101        7.7730    1.6090   -1.6510 hx        1 BUJ      0.095478
     41 H102        8.8700    2.9430   -1.0410 hx        1 BUJ      0.095478
     42 H103        9.2080    1.1960   -0.5880 hx        1 BUJ      0.095478
     43 H2          5.2940   -0.5290   -1.6510 hn        1 BUJ      0.342500
     44 H81         2.9250    0.3870   -1.9800 hc        1 BUJ      0.097700
     45 H82         3.0210   -1.0990   -0.9420 hc        1 BUJ      0.097700
     46 H151        1.8250    0.1470    0.9100 hc        1 BUJ      0.047700
     47 H152        1.7320    1.6180   -0.1270 hc        1 BUJ      0.047700
     48 H161        0.4230    0.3200   -1.8540 hc        1 BUJ      0.044700
     49 H162        0.5210   -1.1540   -0.8160 hc        1 BUJ      0.044700
     50 H171       -0.6730    0.0680    1.0340 hc        1 BUJ      0.038700
     51 H172       -0.7680    1.5450   -0.0010 hc        1 BUJ      0.038700
     52 H181       -2.0700    0.2500   -1.7270 hc        1 BUJ      0.041200
     53 H182       -1.9740   -1.2250   -0.6910 hc        1 BUJ      0.041200
     54 H191       -3.1690   -0.0040    1.1590 hc        1 BUJ      0.038200
     55 H192       -3.2630    1.4730    0.1260 hc        1 BUJ      0.038200
     56 H201       -4.5640    0.1800   -1.6010 hc        1 BUJ      0.040200
     57 H202       -4.4700   -1.2960   -0.5670 hc        1 BUJ      0.040200
     58 H211       -5.6640   -0.0750    1.2840 hc        1 BUJ      0.038700
     59 H212       -5.7580    1.4010    0.2500 hc        1 BUJ      0.038700
     60 H221       -7.0590    0.1090   -1.4770 hc        1 BUJ      0.040200
     61 H222       -6.9650   -1.3670   -0.4430 hc        1 BUJ      0.040200
     62 H231       -8.1600   -0.1460    1.4080 hc        1 BUJ      0.039200
     63 H232       -8.2530    1.3310    0.3740 hc        1 BUJ      0.039200
     64 H241       -9.5530    0.0390   -1.3540 hc        1 BUJ      0.039700
     65 H242       -9.4610   -1.4380   -0.3200 hc        1 BUJ      0.039700
     66 H251      -10.6550   -0.2170    1.5320 hc        1 BUJ      0.039200
     67 H252      -10.7480    1.2600    0.4980 hc        1 BUJ      0.039200
     68 H261      -12.0490   -0.0310   -1.2300 hc        1 BUJ      0.039700
     69 H262      -11.9560   -1.5080   -0.1960 hc        1 BUJ      0.039700
     70 H271      -13.1490   -0.2880    1.6540 hc        1 BUJ      0.038200
     71 H272      -13.2420    1.1890    0.6210 hc        1 BUJ      0.038200
     72 H281      -15.3720   -0.1070    0.5360 hc        1 BUJ      0.032367
     73 H282      -14.5750   -0.0890   -1.0910 hc        1 BUJ      0.032367
     74 H283      -14.4820   -1.5700   -0.0550 hc        1 BUJ      0.032367
@<TRIPOS>BOND
     1    1    2 1   
     2    2    3 1   
     3    2    4 1   
     4    4    5 1   
     5    4   29 1   
     6    4   30 1   
     7    5    6 1   
     8    5   11 1   
     9    5   31 1   
    10    6    7 1   
    11    6   32 1   
    12    6   33 1   
    13    7    8 1   
    14    7    9 1   
    15    7   10 1   
    16    8   34 1   
    17    8   35 1   
    18    8   36 1   
    19    9   37 1   
    20    9   38 1   
    21    9   39 1   
    22   10   40 1   
    23   10   41 1   
    24   10   42 1   
    25   11   12 1   
    26   11   43 1   
    27   12   13 2   
    28   12   14 1   
    29   14   15 1   
    30   14   44 1   
    31   14   45 1   
    32   15   16 1   
    33   15   46 1   
    34   15   47 1   
    35   16   17 1   
    36   16   48 1   
    37   16   49 1   
    38   17   18 1   
    39   17   50 1   
    40   17   51 1   
    41   18   19 1   
    42   18   52 1   
    43   18   53 1   
    44   19   20 1   
    45   19   54 1   
    46   19   55 1   
    47   20   21 1   
    48   20   56 1   
    49   20   57 1   
    50   21   22 1   
    51   21   58 1   
    52   21   59 1   
    53   22   23 1   
    54   22   60 1   
    55   22   61 1   
    56   23   24 1   
    57   23   62 1   
    58   23   63 1   
    59   24   25 1   
    60   24   64 1   
    61   24   65 1   
    62   25   26 1   
    63   25   66 1   
    64   25   67 1   
    65   26   27 1   
    66   26   68 1   
    67   26   69 1   
    68   27   28 1   
    69   27   70 1   
    70   27   71 1   
    71   28   72 1   
    72   28   73 1   
    73   28   74 1   
@<TRIPOS>SUBSTRUCTURE
     1 BUJ         1 TEMP              0 ****  ****    0 ROOT
