@<TRIPOS>MOLECULE
BUJ
   75    74     1     0     0
SMALL
bcc


@<TRIPOS>ATOM
      1 O14         0.9440   -0.2460    1.2580 oh        1 BUJ     -0.542100
      2 C7          0.4620   -0.1090   -0.0040 c         1 BUJ      0.629100
      3 O13        -0.7520    0.0940   -0.0680 o         1 BUJ     -0.497000
      4 C4          1.4020   -0.2100   -1.1710 c3        1 BUJ     -0.223400
      5 C1          0.6210   -0.1060   -2.5000 c3        1 BUJ      0.101700
      6 C3          1.6390   -0.4500   -3.6140 c3        1 BUJ      0.100800
      7 N6          1.1160   -0.5340   -5.0230 n4        1 BUJ     -0.589800
      8 C12         0.9110    0.8190   -5.6240 c3        1 BUJ      0.087100
      9 C11         2.1480   -1.2540   -5.8400 c3        1 BUJ      0.087100
     10 C10        -0.1600   -1.3040   -5.0790 c3        1 BUJ      0.087100
     11 N2         -0.0780    1.1440   -2.6720 n         1 BUJ     -0.569900
     12 C5          0.6080    2.3630   -2.8050 c         1 BUJ      0.645100
     13 O9          1.7880    2.3650   -3.2090 o         1 BUJ     -0.621100
     14 C8         -0.1710    3.6260   -2.5170 c3        1 BUJ     -0.152400
     15 C15         0.5960    4.8580   -2.9470 c3        1 BUJ     -0.074400
     16 C16        -0.1780    6.1150   -2.6120 c3        1 BUJ     -0.081400
     17 C17         0.5820    7.3510   -3.0440 c3        1 BUJ     -0.078400
     18 C18        -0.1880    8.6110   -2.7090 c3        1 BUJ     -0.079400
     19 C19         0.5700    9.8470   -3.1410 c3        1 BUJ     -0.078400
     20 C20        -0.1990   11.1070   -2.8060 c3        1 BUJ     -0.079400
     21 C21         0.5590   12.3440   -3.2380 c3        1 BUJ     -0.078400
     22 C22        -0.2110   13.6040   -2.9020 c3        1 BUJ     -0.079400
     23 C23         0.5470   14.8410   -3.3330 c3        1 BUJ     -0.078400
     24 C24        -0.2230   16.1010   -2.9980 c3        1 BUJ     -0.079400
     25 C25         0.5360   17.3380   -3.4270 c3        1 BUJ     -0.079400
     26 C26        -0.2340   18.5980   -3.0930 c3        1 BUJ     -0.079400
     27 C27         0.5230   19.8370   -3.5200 c3        1 BUJ     -0.080400
     28 C28        -0.2400   21.0930   -3.1900 c3        1 BUJ     -0.093100
     29 H41         1.9380   -1.1940   -1.1200 hc        1 BUJ      0.096700
     30 H42         2.1660    0.6120   -1.1050 hc        1 BUJ      0.096700
     31 H1         -0.1780   -0.9130   -2.4760 h1        1 BUJ      0.086700
     32 H31         2.4730    0.3150   -3.6060 hx        1 BUJ      0.114200
     33 H32         2.0620   -1.4660   -3.3630 hx        1 BUJ      0.114200
     34 H121        1.7900    1.4770   -5.3750 hx        1 BUJ      0.103144
     35 H122        0.8110    0.7140   -6.7370 hx        1 BUJ      0.103144
     36 H123       -0.0230    1.2850   -5.2140 hx        1 BUJ      0.103144
     37 H111        1.8020   -1.3150   -6.9060 hx        1 BUJ      0.103144
     38 H112        3.1160   -0.6880   -5.7910 hx        1 BUJ      0.103144
     39 H113        2.2920   -2.2910   -5.4380 hx        1 BUJ      0.103144
     40 H101       -0.9740   -0.7300   -4.5600 hx        1 BUJ      0.103144
     41 H102       -0.0190   -2.2980   -4.5780 hx        1 BUJ      0.103144
     42 H103       -0.4490   -1.4600   -6.1530 hx        1 BUJ      0.103144
     43 H2         -0.9240    1.1850   -2.1310 hn        1 BUJ      0.338500
     44 H81        -0.3740    3.6690   -1.4120 hc        1 BUJ      0.083200
     45 H82        -1.1640    3.5910   -3.0420 hc        1 BUJ      0.083200
     46 H151        1.5960    4.8750   -2.4380 hc        1 BUJ      0.057200
     47 H152        0.7930    4.8130   -4.0510 hc        1 BUJ      0.057200
     48 H161       -0.3670    6.1590   -1.5060 hc        1 BUJ      0.045200
     49 H162       -1.1780    6.0920   -3.1190 hc        1 BUJ      0.045200
     50 H171        0.7720    7.3090   -4.1490 hc        1 BUJ      0.042700
     51 H172        1.5820    7.3750   -2.5370 hc        1 BUJ      0.042700
     52 H181       -1.1890    8.5870   -3.2160 hc        1 BUJ      0.042700
     53 H182       -0.3780    8.6530   -1.6040 hc        1 BUJ      0.042700
     54 H191        0.7600    9.8060   -4.2460 hc        1 BUJ      0.040700
     55 H192        1.5710    9.8720   -2.6350 hc        1 BUJ      0.040700
     56 H201       -1.2000   11.0830   -3.3120 hc        1 BUJ      0.041200
     57 H202       -0.3890   11.1490   -1.7010 hc        1 BUJ      0.041200
     58 H211        1.5590   12.3690   -2.7310 hc        1 BUJ      0.040200
     59 H212        0.7490   12.3030   -4.3430 hc        1 BUJ      0.040200
     60 H221       -0.4020   13.6450   -1.7970 hc        1 BUJ      0.040200
     61 H222       -1.2110   13.5800   -3.4090 hc        1 BUJ      0.040200
     62 H231        0.7390   14.8000   -4.4370 hc        1 BUJ      0.039700
     63 H232        1.5470   14.8660   -2.8250 hc        1 BUJ      0.039700
     64 H241       -0.4150   16.1420   -1.8930 hc        1 BUJ      0.040200
     65 H242       -1.2220   16.0770   -3.5060 hc        1 BUJ      0.040200
     66 H251        0.7290   17.2970   -4.5310 hc        1 BUJ      0.039700
     67 H252        1.5350   17.3630   -2.9180 hc        1 BUJ      0.039700
     68 H261       -0.4280   18.6390   -1.9880 hc        1 BUJ      0.039700
     69 H262       -1.2340   18.5750   -3.6020 hc        1 BUJ      0.039700
     70 H271        0.7180   19.7930   -4.6250 hc        1 BUJ      0.038700
     71 H272        1.5230   19.8580   -3.0110 hc        1 BUJ      0.038700
     72 H281       -0.4220   21.1670   -2.0900 hc        1 BUJ      0.033700
     73 H282       -1.2290   21.1020   -3.7090 hc        1 BUJ      0.033700
     74 H283        0.3360   21.9940   -3.5130 hc        1 BUJ      0.033700
     75 H22         1.9020   -0.3900    1.2440 ho        1 BUJ      0.438000
@<TRIPOS>BOND
     1    1    2 1   
     2    1   75 1   
     3    2    3 2   
     4    2    4 1   
     5    4    5 1   
     6    4   29 1   
     7    4   30 1   
     8    5    6 1   
     9    5   11 1   
    10    5   31 1   
    11    6    7 1   
    12    6   32 1   
    13    6   33 1   
    14    7    8 1   
    15    7    9 1   
    16    7   10 1   
    17    8   34 1   
    18    8   35 1   
    19    8   36 1   
    20    9   37 1   
    21    9   38 1   
    22    9   39 1   
    23   10   40 1   
    24   10   41 1   
    25   10   42 1   
    26   11   12 1   
    27   11   43 1   
    28   12   13 2   
    29   12   14 1   
    30   14   15 1   
    31   14   44 1   
    32   14   45 1   
    33   15   16 1   
    34   15   46 1   
    35   15   47 1   
    36   16   17 1   
    37   16   48 1   
    38   16   49 1   
    39   17   18 1   
    40   17   50 1   
    41   17   51 1   
    42   18   19 1   
    43   18   52 1   
    44   18   53 1   
    45   19   20 1   
    46   19   54 1   
    47   19   55 1   
    48   20   21 1   
    49   20   56 1   
    50   20   57 1   
    51   21   22 1   
    52   21   58 1   
    53   21   59 1   
    54   22   23 1   
    55   22   60 1   
    56   22   61 1   
    57   23   24 1   
    58   23   62 1   
    59   23   63 1   
    60   24   25 1   
    61   24   64 1   
    62   24   65 1   
    63   25   26 1   
    64   25   66 1   
    65   25   67 1   
    66   26   27 1   
    67   26   68 1   
    68   26   69 1   
    69   27   28 1   
    70   27   70 1   
    71   27   71 1   
    72   28   72 1   
    73   28   73 1   
    74   28   74 1   
@<TRIPOS>SUBSTRUCTURE
     1 BUJ         1 TEMP              0 ****  ****    0 ROOT
