@<TRIPOS>MOLECULE
BUJ
   75    74     1     0     0
SMALL
bcc


@<TRIPOS>ATOM
      1 O14         1.0800   -0.2670    1.2170 oh        1 BUJ     -0.542100
      2 C7          0.5460   -0.1210   -0.0230 c         1 BUJ      0.629100
      3 O13        -0.6680    0.0910   -0.0340 o         1 BUJ     -0.497000
      4 C4          1.4350   -0.2240   -1.2290 c3        1 BUJ     -0.223400
      5 C1          0.5990   -0.1100   -2.5230 c3        1 BUJ      0.101700
      6 C3          1.5650   -0.4560   -3.6810 c3        1 BUJ      0.100800
      7 N6          0.9820   -0.5310   -5.0660 n4        1 BUJ     -0.589800
      8 C12         0.7620    0.8260   -5.6530 c3        1 BUJ      0.087100
      9 C11         1.9730   -1.2550   -5.9300 c3        1 BUJ      0.087100
     10 C10        -0.3010   -1.2910   -5.0710 c3        1 BUJ      0.087100
     11 N2         -0.0980    1.1470   -2.6610 ns        1 BUJ     -0.569900
     12 C5          0.5910    2.3610   -2.8190 c         1 BUJ      0.645100
     13 O9          1.7530    2.3560   -3.2730 o         1 BUJ     -0.621100
     14 C8         -0.1660    3.6290   -2.4930 c3        1 BUJ     -0.152400
     15 C15         0.5890    4.8570   -2.9560 c3        1 BUJ     -0.074400
     16 C16        -0.1610    6.1180   -2.5830 c3        1 BUJ     -0.081400
     17 C17         0.5860    7.3500   -3.0490 c3        1 BUJ     -0.078400
     18 C18        -0.1590    8.6140   -2.6760 c3        1 BUJ     -0.079400
     19 C19         0.5860    9.8460   -3.1410 c3        1 BUJ     -0.078400
     20 C20        -0.1580   11.1100   -2.7680 c3        1 BUJ     -0.079400
     21 C21         0.5870   12.3430   -3.2330 c3        1 BUJ     -0.078400
     22 C22        -0.1580   13.6070   -2.8610 c3        1 BUJ     -0.079400
     23 C23         0.5870   14.8400   -3.3250 c3        1 BUJ     -0.078400
     24 C24        -0.1570   16.1040   -2.9520 c3        1 BUJ     -0.079400
     25 C25         0.5880   17.3380   -3.4160 c3        1 BUJ     -0.079400
     26 C26        -0.1560   18.6020   -3.0430 c3        1 BUJ     -0.079400
     27 C27         0.5880   19.8360   -3.5060 c3        1 BUJ     -0.080400
     28 C28        -0.1500   21.0970   -3.1360 c3        1 BUJ     -0.093100
     29 H41         1.9650   -1.2120   -1.2040 hc        1 BUJ      0.096700
     30 H42         2.2070    0.5920   -1.1930 hc        1 BUJ      0.096700
     31 H1         -0.2050   -0.9100   -2.4680 h1        1 BUJ      0.086700
     32 H31         1.9920   -1.4760   -3.4520 hx        1 BUJ      0.114200
     33 H32         2.4040    0.3030   -3.7060 hx        1 BUJ      0.114200
     34 H121        1.6550    1.4770   -5.4400 hx        1 BUJ      0.103144
     35 H122        0.6130    0.7270   -6.7610 hx        1 BUJ      0.103144
     36 H123       -0.1500    1.2980   -5.2020 hx        1 BUJ      0.103144
     37 H111        2.1260   -2.2950   -5.5370 hx        1 BUJ      0.103144
     38 H112        1.5820   -1.3100   -6.9800 hx        1 BUJ      0.103144
     39 H113        2.9460   -0.6960   -5.9190 hx        1 BUJ      0.103144
     40 H101       -1.0870   -0.7130   -4.5160 hx        1 BUJ      0.103144
     41 H102       -0.6360   -1.4410   -6.1320 hx        1 BUJ      0.103144
     42 H103       -0.1460   -2.2880   -4.5800 hx        1 BUJ      0.103144
     43 H2         -0.9190    1.1920   -2.0840 hn        1 BUJ      0.338500
     44 H81        -0.3180    3.6710   -1.3790 hc        1 BUJ      0.083200
     45 H82        -1.1820    3.6010   -2.9720 hc        1 BUJ      0.083200
     46 H151        1.6110    4.8660   -2.4930 hc        1 BUJ      0.057200
     47 H152        0.7350    4.8120   -4.0670 hc        1 BUJ      0.057200
     48 H161       -1.1830    6.1020   -3.0440 hc        1 BUJ      0.045200
     49 H162       -0.2990    6.1610   -1.4700 hc        1 BUJ      0.045200
     50 H171        1.6090    7.3670   -2.5880 hc        1 BUJ      0.042700
     51 H172        0.7250    7.3090   -4.1610 hc        1 BUJ      0.042700
     52 H181       -0.2970    8.6550   -1.5630 hc        1 BUJ      0.042700
     53 H182       -1.1820    8.5970   -3.1360 hc        1 BUJ      0.042700
     54 H191        0.7250    9.8050   -4.2540 hc        1 BUJ      0.040700
     55 H192        1.6100    9.8630   -2.6810 hc        1 BUJ      0.040700
     56 H201       -0.2960   11.1520   -1.6560 hc        1 BUJ      0.041200
     57 H202       -1.1820   11.0940   -3.2280 hc        1 BUJ      0.041200
     58 H211        0.7250   12.3020   -4.3460 hc        1 BUJ      0.040200
     59 H212        1.6100   12.3600   -2.7740 hc        1 BUJ      0.040200
     60 H221       -0.2960   13.6480   -1.7480 hc        1 BUJ      0.040200
     61 H222       -1.1810   13.5910   -3.3200 hc        1 BUJ      0.040200
     62 H231        1.6100   14.8570   -2.8650 hc        1 BUJ      0.039700
     63 H232        0.7250   14.8000   -4.4380 hc        1 BUJ      0.039700
     64 H241       -0.2960   16.1450   -1.8390 hc        1 BUJ      0.040200
     65 H242       -1.1810   16.0880   -3.4120 hc        1 BUJ      0.040200
     66 H251        1.6110   17.3540   -2.9560 hc        1 BUJ      0.039700
     67 H252        0.7260   17.2970   -4.5290 hc        1 BUJ      0.039700
     68 H261       -1.1800   18.5860   -3.5020 hc        1 BUJ      0.039700
     69 H262       -0.2950   18.6430   -1.9300 hc        1 BUJ      0.039700
     70 H271        1.6110   19.8500   -3.0460 hc        1 BUJ      0.038700
     71 H272        0.7270   19.7930   -4.6190 hc        1 BUJ      0.038700
     72 H281        0.4160   21.9940   -3.4870 hc        1 BUJ      0.033700
     73 H282       -1.1630   21.1140   -3.6060 hc        1 BUJ      0.033700
     74 H283       -0.2760   21.1710   -2.0290 hc        1 BUJ      0.033700
     75 H22         2.0350   -0.4180    1.1610 ho        1 BUJ      0.438000
@<TRIPOS>BOND
     1    1    2 1   
     2    1   75 1   
     3    2    3 2   
     4    2    4 1   
     5    4    5 1   
     6    4   29 1   
     7    4   30 1   
     8    5    6 1   
     9    5   11 1   
    10    5   31 1   
    11    6    7 1   
    12    6   32 1   
    13    6   33 1   
    14    7    8 1   
    15    7    9 1   
    16    7   10 1   
    17    8   34 1   
    18    8   35 1   
    19    8   36 1   
    20    9   37 1   
    21    9   38 1   
    22    9   39 1   
    23   10   40 1   
    24   10   41 1   
    25   10   42 1   
    26   11   12 1   
    27   11   43 1   
    28   12   13 2   
    29   12   14 1   
    30   14   15 1   
    31   14   44 1   
    32   14   45 1   
    33   15   16 1   
    34   15   46 1   
    35   15   47 1   
    36   16   17 1   
    37   16   48 1   
    38   16   49 1   
    39   17   18 1   
    40   17   50 1   
    41   17   51 1   
    42   18   19 1   
    43   18   52 1   
    44   18   53 1   
    45   19   20 1   
    46   19   54 1   
    47   19   55 1   
    48   20   21 1   
    49   20   56 1   
    50   20   57 1   
    51   21   22 1   
    52   21   58 1   
    53   21   59 1   
    54   22   23 1   
    55   22   60 1   
    56   22   61 1   
    57   23   24 1   
    58   23   62 1   
    59   23   63 1   
    60   24   25 1   
    61   24   64 1   
    62   24   65 1   
    63   25   26 1   
    64   25   66 1   
    65   25   67 1   
    66   26   27 1   
    67   26   68 1   
    68   26   69 1   
    69   27   28 1   
    70   27   70 1   
    71   27   71 1   
    72   28   72 1   
    73   28   73 1   
    74   28   74 1   
@<TRIPOS>SUBSTRUCTURE
     1 BUJ         1 TEMP              0 ****  ****    0 ROOT
