@<TRIPOS>MOLECULE
BUM
   28    27     1     0     0
SMALL
bcc


@<TRIPOS>ATOM
      1 CG2         0.0540   -0.0950   -0.0520 c3        1 BUM     -0.135100
      2 CG3         1.9950    1.3260   -0.7180 c3        1 BUM     -0.135100
      3 CB          1.5710    0.0500   -0.0110 c3        1 BUM     -0.053000
      4 CA          2.0200    0.0700    1.4940 c3        1 BUM      0.049500
      5 CG1         2.1990   -1.1550   -0.6920 c3        1 BUM     -0.135100
      6 C           3.5510    0.0380    1.6100 c         1 BUM      0.503100
      7 O           4.2530    1.0370    1.6500 o         1 BUM     -0.361100
      8 N           1.4930    1.2930    2.1870 n4        1 BUM     -0.840600
      9 N2          4.2130   -1.3030    1.6860 n4        1 BUM     -0.654800
     10 CN2         5.6120   -1.2820    1.1680 c3        1 BUM      0.076100
     11 HG21       -0.2670   -0.2920   -1.1100 hc        1 BUM      0.077811
     12 HG22       -0.4690    0.8380    0.2700 hc        1 BUM      0.077811
     13 HG23       -0.2910   -0.9550    0.5710 hc        1 BUM      0.077811
     14 HG31        1.9000    1.1840   -1.8270 hc        1 BUM      0.077811
     15 HG32        1.3400    2.1900   -0.4470 hc        1 BUM      0.077811
     16 HG33        3.0590    1.5830   -0.4970 hc        1 BUM      0.077811
     17 HA          1.5610   -0.8300    2.0100 hx        1 BUM      0.142700
     18 HG11        1.9920   -2.0980   -0.1310 hc        1 BUM      0.077811
     19 HG12        3.2950   -1.0100   -0.8490 hc        1 BUM      0.077811
     20 HG13        1.7430   -1.2760   -1.7130 hc        1 BUM      0.077811
     21 HN1         0.4700    1.3370    2.0420 hn        1 BUM      0.490467
     22 HN2         1.9190    2.1400    1.7770 hn        1 BUM      0.490467
     23 H2          4.2330   -1.6030    2.6740 hn        1 BUM      0.483300
     24 HN21        5.6030   -1.0290    0.0720 hx        1 BUM      0.135367
     25 HN22        6.2150   -0.5110    1.7260 hx        1 BUM      0.135367
     26 HN23        6.0650   -2.3030    1.3220 hx        1 BUM      0.135367
     27 HN3         1.6920    1.2700    3.1940 hn        1 BUM      0.490467
     28 H22         3.6630   -1.9910    1.1470 hn        1 BUM      0.483300
@<TRIPOS>BOND
     1    1    3 1   
     2    1   11 1   
     3    1   12 1   
     4    1   13 1   
     5    2    3 1   
     6    2   14 1   
     7    2   15 1   
     8    2   16 1   
     9    3    4 1   
    10    3    5 1   
    11    4    6 1   
    12    4    8 1   
    13    4   17 1   
    14    5   18 1   
    15    5   19 1   
    16    5   20 1   
    17    6    7 2   
    18    6    9 1   
    19    8   21 1   
    20    8   22 1   
    21    8   27 1   
    22    9   10 1   
    23    9   23 1   
    24    9   28 1   
    25   10   24 1   
    26   10   25 1   
    27   10   26 1   
@<TRIPOS>SUBSTRUCTURE
     1 BUM         1 TEMP              0 ****  ****    0 ROOT
