@<TRIPOS>MOLECULE
BUM
   26    25     1     0     0
SMALL
bcc


@<TRIPOS>ATOM
      1 CG2         0.5200   -0.6510   -2.6760 c3        1 BUM     -0.094100
      2 CG3        -0.0400    1.5730   -1.7250 c3        1 BUM     -0.094100
      3 CB          0.4650    0.1770   -1.4000 c3        1 BUM     -0.083000
      4 CA         -0.4730   -0.5330   -0.3810 c3        1 BUM      0.111500
      5 CG1         1.8650    0.2680   -0.8130 c3        1 BUM     -0.094100
      6 C          -0.2420    0.0650    1.0280 c         1 BUM      0.666100
      7 O          -0.6280    1.2170    1.3100 o         1 BUM     -0.617100
      8 N          -1.8890   -0.5000   -0.6790 n3        1 BUM     -0.897800
      9 N2          0.4130   -0.7230    1.9480 n         1 BUM     -0.567900
     10 CN2         0.6140   -0.3220    3.3040 c3        1 BUM      0.077300
     11 HG21        1.2060   -0.1660   -3.4120 hc        1 BUM      0.040811
     12 HG22        0.9020   -1.6780   -2.4600 hc        1 BUM      0.040811
     13 HG23       -0.4890   -0.7370   -3.1460 hc        1 BUM      0.040811
     14 HG31       -0.9720    1.5270   -2.3390 hc        1 BUM      0.040811
     15 HG32       -0.2560    2.1360   -0.7830 hc        1 BUM      0.040811
     16 HG33        0.7330    2.1310   -2.3070 hc        1 BUM      0.040811
     17 HA         -0.1800   -1.6280   -0.3870 h1        1 BUM      0.060700
     18 HG11        2.2070   -0.7350   -0.4610 hc        1 BUM      0.040811
     19 HG12        2.5810    0.6360   -1.5870 hc        1 BUM      0.040811
     20 HG13        1.8820    0.9800    0.0480 hc        1 BUM      0.040811
     21 HN1        -2.2750    0.3990   -0.4550 hn        1 BUM      0.360800
     22 HN2        -2.0390   -0.6870   -1.6520 hn        1 BUM      0.360800
     23 H2          0.6170   -1.6650    1.7160 hn        1 BUM      0.310500
     24 HN21        1.6880   -0.4870    3.5900 h1        1 BUM      0.044367
     25 HN22        0.3630    0.7660    3.4270 h1        1 BUM      0.044367
     26 HN23       -0.0370   -0.9230    3.9970 h1        1 BUM      0.044367
@<TRIPOS>BOND
     1    1    3 1   
     2    1   11 1   
     3    1   12 1   
     4    1   13 1   
     5    2    3 1   
     6    2   14 1   
     7    2   15 1   
     8    2   16 1   
     9    3    4 1   
    10    3    5 1   
    11    4    6 1   
    12    4    8 1   
    13    4   17 1   
    14    5   18 1   
    15    5   19 1   
    16    5   20 1   
    17    6    7 2   
    18    6    9 1   
    19    8   21 1   
    20    8   22 1   
    21    9   10 1   
    22    9   23 1   
    23   10   24 1   
    24   10   25 1   
    25   10   26 1   
@<TRIPOS>SUBSTRUCTURE
     1 BUM         1 TEMP              0 ****  ****    0 ROOT
