@<TRIPOS>MOLECULE
BUM
   26    25     1     0     0
SMALL
bcc


@<TRIPOS>ATOM
      1 CG2        -2.4550    0.0190   -0.8950 c3        1 BUM     -0.093767
      2 CG3        -0.4570    1.3050   -1.5690 c3        1 BUM     -0.093767
      3 CB         -0.9450    0.0780   -0.8300 c3        1 BUM     -0.042000
      4 CA         -0.5050    0.1510    0.6140 c3        1 BUM      0.117500
      5 CG1        -0.3640   -1.1620   -1.4730 c3        1 BUM     -0.093767
      6 C           1.0030    0.0910    0.6840 c         1 BUM      0.609100
      7 O           1.6740    0.8150   -0.0250 o         1 BUM     -0.620100
      8 N          -0.9590    1.3710    1.1870 n3        1 BUM     -0.888800
      9 N2          1.6370   -0.8010    1.5880 n         1 BUM     -0.564900
     10 CN2         3.0560   -0.8200    1.6920 c3        1 BUM      0.073300
     11 HG21       -2.8300    0.8680   -0.5790 hc        1 BUM      0.041256
     12 HG22       -2.7780   -0.7120   -0.3270 hc        1 BUM      0.041256
     13 HG23       -2.7370   -0.1380   -1.8210 hc        1 BUM      0.041256
     14 HG31        0.4670    1.1620   -1.8630 hc        1 BUM      0.041256
     15 HG32       -0.4930    2.0810   -0.9720 hc        1 BUM      0.041256
     16 HG33       -1.0270    1.4650   -2.3490 hc        1 BUM      0.041256
     17 HA         -0.8850   -0.6030    1.1080 h1        1 BUM      0.065700
     18 HG11       -0.8020   -1.3190   -2.3350 hc        1 BUM      0.041256
     19 HG12       -0.5110   -1.9330   -0.8860 hc        1 BUM      0.041256
     20 HG13        0.5980   -1.0370   -1.6140 hc        1 BUM      0.041256
     21 HN1        -0.2870    1.7430    1.6850 hn        1 BUM      0.360800
     22 HN2        -1.6820    1.2050    1.7250 hn        1 BUM      0.360800
     23 H2          1.1340   -1.3550    2.1090 hn        1 BUM      0.306500
     24 HN21        3.4460   -1.0280    0.8150 h1        1 BUM      0.044033
     25 HN22        3.3750    0.0590    1.9910 h1        1 BUM      0.044033
     26 HN23        3.3280   -1.5040    2.3410 h1        1 BUM      0.044033
@<TRIPOS>BOND
     1    1    3 1   
     2    1   11 1   
     3    1   12 1   
     4    1   13 1   
     5    2    3 1   
     6    2   14 1   
     7    2   15 1   
     8    2   16 1   
     9    3    4 1   
    10    3    5 1   
    11    4    6 1   
    12    4    8 1   
    13    4   17 1   
    14    5   18 1   
    15    5   19 1   
    16    5   20 1   
    17    6    7 2   
    18    6    9 1   
    19    8   21 1   
    20    8   22 1   
    21    9   10 1   
    22    9   23 1   
    23   10   24 1   
    24   10   25 1   
    25   10   26 1   
@<TRIPOS>SUBSTRUCTURE
     1 BUM         1 TEMP              0 ****  ****    0 ROOT
