@<TRIPOS>MOLECULE
BUM
   28    27     1     0     0
SMALL
bcc


@<TRIPOS>ATOM
      1 CG2         0.0430   -0.0890   -0.0130 c3        1 BUM     -0.135100
      2 CG3         1.9700    1.3510   -0.6820 c3        1 BUM     -0.135100
      3 CB          1.5600    0.0600    0.0070 c3        1 BUM     -0.053000
      4 CA          2.0320    0.0530    1.5050 c3        1 BUM      0.049500
      5 CG1         2.1810   -1.1300   -0.7070 c3        1 BUM     -0.135100
      6 C           3.5650    0.0230    1.5970 c         1 BUM      0.503100
      7 O           4.2660    1.0230    1.6440 o         1 BUM     -0.361100
      8 N           1.5140    1.2610    2.2290 nz        1 BUM     -0.840600
      9 N2          4.2310   -1.3180    1.6370 ny        1 BUM     -0.654800
     10 CN2         5.6230   -1.2840    1.0990 c3        1 BUM      0.076100
     11 HG21       -0.2930   -0.2650   -1.0700 hc        1 BUM      0.077811
     12 HG22       -0.2900   -0.9620    0.5980 hc        1 BUM      0.077811
     13 HG23       -0.4770    0.8360    0.3360 hc        1 BUM      0.077811
     14 HG31        3.0370    1.6070   -0.4730 hc        1 BUM      0.077811
     15 HG32        1.3170    2.2080   -0.3840 hc        1 BUM      0.077811
     16 HG33        1.8580    1.2300   -1.7920 hc        1 BUM      0.077811
     17 HA          1.5840   -0.8580    2.0110 hx        1 BUM      0.142700
     18 HG11        1.9850   -2.0840   -0.1610 hc        1 BUM      0.077811
     19 HG12        1.7090   -1.2320   -1.7220 hc        1 BUM      0.077811
     20 HG13        3.2740   -0.9790   -0.8770 hc        1 BUM      0.077811
     21 HN1         0.4890    1.3050    2.1010 hn        1 BUM      0.490467
     22 HN2         1.7280    1.2200    3.2330 hn        1 BUM      0.490467
     23 H2          3.6750   -1.9970    1.0930 hn        1 BUM      0.483300
     24 HN21        6.2320   -0.5230    1.6630 hx        1 BUM      0.135367
     25 HN22        6.0790   -2.3070    1.2270 hx        1 BUM      0.135367
     26 HN23        5.5970   -1.0100    0.0090 hx        1 BUM      0.135367
     27 HN3         1.9320    2.1170    1.8290 hn        1 BUM      0.490467
     28 H22         4.2660   -1.6370    2.6190 hn        1 BUM      0.483300
@<TRIPOS>BOND
     1    1    3 1   
     2    1   11 1   
     3    1   12 1   
     4    1   13 1   
     5    2    3 1   
     6    2   14 1   
     7    2   15 1   
     8    2   16 1   
     9    3    4 1   
    10    3    5 1   
    11    4    6 1   
    12    4    8 1   
    13    4   17 1   
    14    5   18 1   
    15    5   19 1   
    16    5   20 1   
    17    6    7 2   
    18    6    9 1   
    19    8   21 1   
    20    8   22 1   
    21    8   27 1   
    22    9   10 1   
    23    9   23 1   
    24    9   28 1   
    25   10   24 1   
    26   10   25 1   
    27   10   26 1   
@<TRIPOS>SUBSTRUCTURE
     1 BUM         1 TEMP              0 ****  ****    0 ROOT
