@<TRIPOS>MOLECULE
BUM
   28    27     1     0     0
SMALL
bcc


@<TRIPOS>ATOM
      1 CG2         0.0380   -0.0940    0.0040 c3        1 BUM     -0.135100
      2 CG3         1.9540    1.3610   -0.6640 c3        1 BUM     -0.135100
      3 CB          1.5540    0.0620    0.0150 c3        1 BUM     -0.053000
      4 CA          2.0380    0.0440    1.5100 c3        1 BUM      0.049500
      5 CG1         2.1750   -1.1180   -0.7140 c3        1 BUM     -0.135100
      6 C           3.5710    0.0190    1.5910 c         1 BUM      0.503100
      7 O           4.2680    1.0210    1.6410 o         1 BUM     -0.361100
      8 N           1.5200    1.2430    2.2490 n4        1 BUM     -0.840600
      9 N2          4.2430   -1.3200    1.6140 n4        1 BUM     -0.654800
     10 CN2         5.6310   -1.2750    1.0670 c3        1 BUM      0.076100
     11 HG21       -0.2860   -0.9740    0.6100 hc        1 BUM      0.077811
     12 HG22       -0.4840    0.8250    0.3660 hc        1 BUM      0.077811
     13 HG23       -0.3050   -0.2620   -1.0510 hc        1 BUM      0.077811
     14 HG31        1.2980    2.2120   -0.3550 hc        1 BUM      0.077811
     15 HG32        1.8350    1.2490   -1.7750 hc        1 BUM      0.077811
     16 HG33        3.0210    1.6200   -0.4600 hc        1 BUM      0.077811
     17 HA          1.5960   -0.8740    2.0110 hx        1 BUM      0.142700
     18 HG11        3.2670   -0.9610   -0.8900 hc        1 BUM      0.077811
     19 HG12        1.6970   -1.2140   -1.7270 hc        1 BUM      0.077811
     20 HG13        1.9880   -2.0790   -0.1750 hc        1 BUM      0.077811
     21 HN1         0.4930    1.2840    2.1280 hn        1 BUM      0.490467
     22 HN2         1.9310    2.1040    1.8530 hn        1 BUM      0.490467
     23 H2          4.2860   -1.6470    2.5930 hn        1 BUM      0.483300
     24 HN21        6.0920   -2.2960    1.1830 hx        1 BUM      0.135367
     25 HN22        6.2400   -0.5160    1.6340 hx        1 BUM      0.135367
     26 HN23        5.5970   -0.9910   -0.0200 hx        1 BUM      0.135367
     27 HN3         1.7400    1.1940    3.2500 hn        1 BUM      0.490467
     28 H22         3.6860   -1.9960    1.0670 hn        1 BUM      0.483300
@<TRIPOS>BOND
     1    1    3 1   
     2    1   11 1   
     3    1   12 1   
     4    1   13 1   
     5    2    3 1   
     6    2   14 1   
     7    2   15 1   
     8    2   16 1   
     9    3    4 1   
    10    3    5 1   
    11    4    6 1   
    12    4    8 1   
    13    4   17 1   
    14    5   18 1   
    15    5   19 1   
    16    5   20 1   
    17    6    7 2   
    18    6    9 1   
    19    8   21 1   
    20    8   22 1   
    21    8   27 1   
    22    9   10 1   
    23    9   23 1   
    24    9   28 1   
    25   10   24 1   
    26   10   25 1   
    27   10   26 1   
@<TRIPOS>SUBSTRUCTURE
     1 BUM         1 TEMP              0 ****  ****    0 ROOT
