@<TRIPOS>MOLECULE
BUN
   32    33     1     0     0
SMALL
bcc


@<TRIPOS>ATOM
      1 O2          1.2700    2.3130   -0.7720 o         1 BUN     -0.525100
      2 C6          1.2300    1.1360   -0.3910 c         1 BUN      0.594900
      3 C7          2.1150    0.6640    0.6990 ca        1 BUN     -0.235600
      4 C12         1.7560   -0.3350    1.6240 ca        1 BUN      0.209100
      5 O4          0.5020   -0.8860    1.5300 oh        1 BUN     -0.493100
      6 C11         2.6470   -0.7450    2.6290 ca        1 BUN     -0.318000
      7 C10         3.9070   -0.1420    2.7040 ca        1 BUN      0.188100
      8 O3          4.8360   -0.4930    3.6510 oh        1 BUN     -0.488100
      9 C9          4.2820    0.8690    1.8000 ca        1 BUN     -0.201000
     10 C8          3.3810    1.2600    0.8220 ca        1 BUN     -0.024000
     11 C5          0.3090    0.1450   -0.9750 ce        1 BUN     -0.218200
     12 C4          0.4100   -0.4520   -2.1670 cf        1 BUN     -0.067200
     13 C3          1.4540   -0.2930   -3.1670 ca        1 BUN     -0.058800
     14 C2          1.1240   -0.5290   -4.5120 ca        1 BUN     -0.120000
     15 C1          2.0990   -0.4010   -5.5040 ca        1 BUN      0.109100
     16 O1          1.7160   -0.6440   -6.8030 oh        1 BUN     -0.495100
     17 C13         2.7680    0.0570   -2.8310 ca        1 BUN     -0.111000
     18 C14         3.7480    0.1820   -3.8120 ca        1 BUN     -0.170000
     19 C           3.4190   -0.0440   -5.1500 ca        1 BUN      0.047100
     20 O           4.3240    0.0520   -6.1870 oh        1 BUN     -0.516100
     21 H3          0.4010   -1.5360    2.2420 ho        1 BUN      0.426000
     22 H4          2.3550   -1.5260    3.3450 ha        1 BUN      0.140000
     23 H5          4.4550   -1.1870    4.2090 ho        1 BUN      0.424000
     24 H6          5.2730    1.3340    1.8880 ha        1 BUN      0.159000
     25 H7          3.6490    2.0650    0.1160 ha        1 BUN      0.158000
     26 H8         -0.5430   -0.0910   -0.3090 ha        1 BUN      0.160000
     27 H9         -0.3880   -1.1600   -2.4640 ha        1 BUN      0.130000
     28 H10         0.1000   -0.8070   -4.8020 ha        1 BUN      0.154000
     29 H11         2.4820   -0.4830   -7.3750 ho        1 BUN      0.437000
     30 H12         3.0350    0.2380   -1.7780 ha        1 BUN      0.139000
     31 H13         4.7760    0.4590   -3.5370 ha        1 BUN      0.136000
     32 H14         5.1630    0.3640   -5.8190 ho        1 BUN      0.430000
@<TRIPOS>BOND
     1    1    2 2   
     2    2    3 1   
     3    2   11 1   
     4    3    4 ar  
     5    3   10 ar  
     6    4    5 1   
     7    4    6 ar  
     8    5   21 1   
     9    6    7 ar  
    10    6   22 1   
    11    7    8 1   
    12    7    9 ar  
    13    8   23 1   
    14    9   10 ar  
    15    9   24 1   
    16   10   25 1   
    17   11   12 2   
    18   11   26 1   
    19   12   13 1   
    20   12   27 1   
    21   13   14 ar  
    22   13   17 ar  
    23   14   15 ar  
    24   14   28 1   
    25   15   16 1   
    26   15   19 ar  
    27   16   29 1   
    28   17   18 ar  
    29   17   30 1   
    30   18   19 ar  
    31   18   31 1   
    32   19   20 1   
    33   20   32 1   
@<TRIPOS>SUBSTRUCTURE
     1 BUN         1 TEMP              0 ****  ****    0 ROOT
