@<TRIPOS>MOLECULE
BUP
   40    50     1     0     0
SMALL
bcc


@<TRIPOS>ATOM
      1 Br          0.0000    0.0000    0.0000 br        1 BUP     -0.216000
      2 C1          1.8900    0.0000    0.0000 c2        1 BUP     -0.331000
      3 N1          3.9560   -0.0000   -1.1960 n7        1 BUP     -0.380000
      4 P1          9.2470    3.6100    2.5820 p5        1 BUP      1.409000
      5 C2          2.5750    0.0000    1.1640 c2        1 BUP     -0.518000
      6 N2          3.9440   -0.0010    1.1460 n3        1 BUP      1.035000
      7 P2          9.8010    6.4990    2.9450 p5        1 BUP      1.494000
      8 C3          4.6140   -0.0010   -0.0220 c3        1 BUP      0.015000
      9 O3          5.6370    1.0860    2.4390 os        1 BUP     -0.180000
     10 P3          9.3780    9.0370    4.4160 p5        1 BUP      1.088500
     11 C4          2.6080   -0.0050   -1.2220 c3        1 BUP      0.267000
     12 O4          4.8440   -2.3620    3.0630 oh        1 BUP     -0.474000
     13 C5          6.6840   -0.7980    3.4950 DU        1 BUP      0.059000
     14 O5          6.3930   -1.2350    4.8240 oh        1 BUP     -0.363000
     15 C6          5.5790   -1.2640    2.5160 DU        1 BUP     -0.345000
     16 O6          7.9790    2.7070    2.9900 os        1 BUP     -0.583000
     17 C7          4.6870   -0.0000    2.4080 c3        1 BUP     -0.342000
     18 O7          8.9090    5.1610    2.8470 os        1 BUP     -0.965000
     19 C8          6.6380    0.7400    3.4120 DU        1 BUP      0.447000
     20 O8          9.5810    3.3920    1.0230 o         1 BUP     -0.648500
     21 C9          8.0000    1.2780    2.9690 c3        1 BUP      0.443000
     22 O9         10.4180    3.2130    3.3960 o         1 BUP     -0.648500
     23 O10         8.9760    7.6360    3.7310 os        1 BUP     -0.949000
     24 O11        10.1510    7.0200    1.4620 o         1 BUP     -0.626500
     25 O12        11.0540    6.2050    3.6740 o         1 BUP     -0.626500
     26 O13         9.5030   10.1720    3.2810 o         1 BUP     -0.564833
     27 O14         8.2430    9.4610    5.4760 o         1 BUP     -0.564833
     28 O15        10.6740    8.8910    5.1140 o         1 BUP     -0.564833
     29 HN1         3.0920    0.1720   -1.6700 DU        1 BUP      0.382000
     30 H2          3.5880   -0.1160    0.7970 DU        1 BUP     -0.299000
     31 HO4         4.7820   -1.9680    2.2080 DU        1 BUP      0.341000
     32 H5          5.6590   -0.6220    3.1900 DU        1 BUP     -0.077000
     33 HO5         6.0160   -1.8080    4.1780 ho        1 BUP      0.235000
     34 H6          6.6110   -1.2160    2.8410 DU        1 BUP      0.203000
     35 H7          5.3460   -0.4310    3.1520 DU        1 BUP      0.359000
     36 H8          6.4090   -0.0760    2.7380 DU        1 BUP     -0.197000
     37 H9          6.9660    0.9630    3.0440 h1        1 BUP     -0.310000
     38 H9A         7.1820    1.2160    3.6770 DU        1 BUP     -0.043000
     39 O1          2.0130   -0.0100   -2.2840 oh        1 BUP     -0.538000
     40 O2          5.8290    0.0040   -0.0150 o         1 BUP     -0.424000
@<TRIPOS>BOND
     1    1    2 1   
     2    2    5 1   
     3    2   11 1   
     4    3    8 1   
     5    3   11 1   
     6    3   29 1   
     7    4   16 1   
     8    4   18 1   
     9    4   20 1   
    10    4   22 1   
    11    5    6 1   
    12    5   30 1   
    13    6    8 1   
    14    6   17 1   
    15    7   18 1   
    16    7   23 1   
    17    7   24 1   
    18    7   25 1   
    19    8   30 1   
    20    8   40 1   
    21    9   17 1   
    22    9   19 1   
    23   10   23 1   
    24   10   26 1   
    25   10   27 1   
    26   10   28 1   
    27   11   29 1   
    28   11   39 1   
    29   12   15 1   
    30   12   31 1   
    31   13   14 1   
    32   13   15 1   
    33   13   19 1   
    34   13   32 1   
    35   13   34 1   
    36   13   36 1   
    37   14   33 1   
    38   15   17 1   
    39   15   31 1   
    40   15   32 1   
    41   15   34 1   
    42   16   21 1   
    43   17   35 1   
    44   19   21 1   
    45   19   36 1   
    46   19   38 1   
    47   21   37 1   
    48   21   38 1   
    49   29   39 1   
    50   32   35 1   
@<TRIPOS>SUBSTRUCTURE
     1 BUP         1 TEMP              0 ****  ****    0 ROOT
