@<TRIPOS>MOLECULE
BUQ
   14    13     1     0     0
SMALL
bcc


@<TRIPOS>ATOM
      1 C1         -2.1210    0.3290    0.7770 c3        1 BUQ     -0.204100
      2 C2         -0.6100    0.3340    0.7700 c         1 BUQ      0.567100
      3 O2          0.0020    0.4720    1.8100 o         1 BUQ     -0.534100
      4 C3          0.1290    0.2810   -0.5340 c3        1 BUQ     -0.190400
      5 C4          1.5040   -0.4720   -0.3390 c3        1 BUQ      0.137400
      6 O5          2.1500   -0.6190   -1.6090 oh        1 BUQ     -0.607800
      7 H11        -2.4480    0.5140    1.6880 hc        1 BUQ      0.064700
      8 H12        -2.4520    1.0200    0.1640 hc        1 BUQ      0.064700
      9 H13        -2.4470   -0.5530    0.4830 hc        1 BUQ      0.064700
     10 H31        -0.4200   -0.2050   -1.2060 hc        1 BUQ      0.079700
     11 H32         0.2970    1.1900   -0.8490 hc        1 BUQ      0.079700
     12 H41         1.3350   -1.3780    0.0570 h1        1 BUQ      0.036200
     13 H42         2.0900    0.0540    0.2740 h1        1 BUQ      0.036200
     14 HO51        2.9900   -0.9670   -1.4870 ho        1 BUQ      0.404000
@<TRIPOS>BOND
     1    1    2 1   
     2    1    7 1   
     3    1    8 1   
     4    1    9 1   
     5    2    3 2   
     6    2    4 1   
     7    4    5 1   
     8    4   10 1   
     9    4   11 1   
    10    5    6 1   
    11    5   12 1   
    12    5   13 1   
    13    6   14 1   
@<TRIPOS>SUBSTRUCTURE
     1 BUQ         1 TEMP              0 ****  ****    0 ROOT
