@<TRIPOS>MOLECULE
BUQ
   14    13     1     0     0
SMALL
bcc


@<TRIPOS>ATOM
      1 C1         -0.7800    0.0000    2.3130 c3        1 BUQ     -0.204100
      2 C2          0.1240    0.0000    1.1210 c         1 BUQ      0.567100
      3 O2          1.3550    0.0000    1.2270 o         1 BUQ     -0.534100
      4 C3         -0.5820   -0.0000   -0.2030 c3        1 BUQ     -0.190400
      5 C4          0.3900   -0.0000   -1.3690 c3        1 BUQ      0.137400
      6 O5         -0.3930   -0.0000   -2.5530 oh        1 BUQ     -0.607800
      7 H11        -1.4310   -0.9070    2.2920 hc        1 BUQ      0.064700
      8 H12        -0.1870    0.0000    3.2600 hc        1 BUQ      0.064700
      9 H13        -1.4310    0.9070    2.2920 hc        1 BUQ      0.064700
     10 H31        -1.2450   -0.9030   -0.2670 hc        1 BUQ      0.079700
     11 H32        -1.2450    0.9030   -0.2670 hc        1 BUQ      0.079700
     12 H41         1.0430    0.9130   -1.3340 h1        1 BUQ      0.035700
     13 H42         1.0430   -0.9130   -1.3340 h1        1 BUQ      0.035700
     14 HO51        0.2280   -0.0000   -3.2910 ho        1 BUQ      0.404000
@<TRIPOS>BOND
     1    1    2 1   
     2    1    7 1   
     3    1    8 1   
     4    1    9 1   
     5    2    3 2   
     6    2    4 1   
     7    4    5 1   
     8    4   10 1   
     9    4   11 1   
    10    5    6 1   
    11    5   12 1   
    12    5   13 1   
    13    6   14 1   
@<TRIPOS>SUBSTRUCTURE
     1 BUQ         1 TEMP              0 ****  ****    0 ROOT
