@<TRIPOS>MOLECULE
BUQ
   14    13     1     0     0
SMALL
bcc


@<TRIPOS>ATOM
      1 C1          0.0380   -0.0000   -0.0460 c3        1 BUQ     -0.204100
      2 C2          1.5280   -0.0000    0.0840 c         1 BUQ      0.567100
      3 O2          2.0930   -0.0000    1.1820 o         1 BUQ     -0.534100
      4 C3          2.2720    0.0000   -1.2180 c3        1 BUQ     -0.190400
      5 C4          3.7770    0.0000   -1.0170 c3        1 BUQ      0.137400
      6 O5          4.3620    0.0000   -2.3100 oh        1 BUQ     -0.607800
      7 H11        -0.2920    0.9070   -0.6080 hc        1 BUQ      0.064700
      8 H12        -0.2920   -0.9070   -0.6080 hc        1 BUQ      0.064700
      9 H13        -0.4480   -0.0000    0.9600 hc        1 BUQ      0.064700
     10 H31         1.9730   -0.9030   -1.8140 hc        1 BUQ      0.079700
     11 H32         1.9730    0.9030   -1.8140 hc        1 BUQ      0.079700
     12 H41         4.0950   -0.9130   -0.4460 h1        1 BUQ      0.035700
     13 H42         4.0950    0.9130   -0.4460 h1        1 BUQ      0.035700
     14 HO51        5.3170    0.0000   -2.1780 ho        1 BUQ      0.404000
@<TRIPOS>BOND
     1    1    2 1   
     2    1    7 1   
     3    1    8 1   
     4    1    9 1   
     5    2    3 2   
     6    2    4 1   
     7    4    5 1   
     8    4   10 1   
     9    4   11 1   
    10    5    6 1   
    11    5   12 1   
    12    5   13 1   
    13    6   14 1   
@<TRIPOS>SUBSTRUCTURE
     1 BUQ         1 TEMP              0 ****  ****    0 ROOT
