@<TRIPOS>MOLECULE
BUR
   54    56     1     0     0
SMALL
bcc


@<TRIPOS>ATOM
      1 FAE         0.5570   -0.3970    1.3680 f         1 BUR     -0.217633
      2 CBF         1.4930   -0.2080    0.4030 c3        1 BUR      0.817700
      3 FAF         2.6930    0.0220    0.9930 f         1 BUR     -0.217633
      4 FAG         1.5760   -1.3250   -0.3600 f         1 BUR     -0.217633
      5 OAW         1.1270    0.8120   -0.4880 os        1 BUR     -0.364900
      6 CAZ         1.0470    2.1110    0.0170 ca        1 BUR      0.052100
      7 CAQ         2.0220    3.0330   -0.3780 ca        1 BUR     -0.095000
      8 CAO         1.8900    4.3690   -0.0160 ca        1 BUR     -0.155500
      9 CAR        -0.0560    2.5070    0.7810 ca        1 BUR     -0.095000
     10 CAP        -0.1820    3.8380    1.1540 ca        1 BUR     -0.155500
     11 CAY         0.7880    4.7940    0.7580 ca        1 BUR      0.079600
     12 NAT         0.5770    6.1410    1.1030 n         1 BUR     -0.465100
     13 CAX         1.6170    7.0740    1.2980 c         1 BUR      0.767100
     14 OAD         2.8000    6.8200    0.9830 o         1 BUR     -0.609100
     15 NAU         1.2600    8.3060    1.9000 n         1 BUR     -0.437100
     16 CBA         2.1110    9.4250    1.8320 ca        1 BUR     -0.072700
     17 CAL         3.5080    9.3380    1.9900 ca        1 BUR     -0.076000
     18 CAJ         4.2770   10.5010    1.9820 ca        1 BUR     -0.253300
     19 CAK         3.6410   11.7410    1.8200 ca        1 BUR      0.405200
     20 NAS         2.3110   11.8790    1.6670 nb        1 BUR     -0.686000
     21 CBC         1.5690   10.7500    1.6650 ca        1 BUR      0.581600
     22 OAV         0.1920   10.8010    1.4550 os        1 BUR     -0.393400
     23 CBB        -0.4650   12.0150    1.6870 ca        1 BUR      0.112100
     24 CAM        -0.3430   12.6220    2.9440 ca        1 BUR     -0.136000
     25 CAH        -1.0910   13.7600    3.2310 ca        1 BUR     -0.119000
     26 CAI        -1.9540   14.2760    2.2670 ca        1 BUR     -0.135000
     27 CAN        -2.0680   13.6620    1.0210 ca        1 BUR     -0.122000
     28 CBD        -1.3250   12.5200    0.6890 ca        1 BUR     -0.056300
     29 CBE        -1.4600   11.8670   -0.6620 c3        1 BUR     -0.000700
     30 CAC        -1.9740   10.4380   -0.4970 c3        1 BUR     -0.086767
     31 CAA        -2.4410   12.6070   -1.5680 c3        1 BUR     -0.086767
     32 CAB        -0.1070   11.8480   -1.3670 c3        1 BUR     -0.086767
     33 H1          2.8810    2.7010   -0.9820 ha        1 BUR      0.157000
     34 H2          2.6630    5.0890   -0.3340 ha        1 BUR      0.159000
     35 H3         -0.8080    1.7630    1.0870 ha        1 BUR      0.157000
     36 H4         -1.0520    4.1390    1.7580 ha        1 BUR      0.159000
     37 H5         -0.3040    6.3260    1.5320 hn        1 BUR      0.315500
     38 H6          0.2880    8.5460    1.9180 hn        1 BUR      0.321500
     39 H7          3.9920    8.3530    2.1070 ha        1 BUR      0.178000
     40 H8          5.3670   10.4470    2.1020 ha        1 BUR      0.152000
     41 H9          4.2140   12.6850    1.8080 h4        1 BUR      0.030100
     42 H10         0.3480   12.2020    3.6880 ha        1 BUR      0.144000
     43 H11        -0.9990   14.2450    4.2140 ha        1 BUR      0.136000
     44 H12        -2.5480   15.1750    2.4860 ha        1 BUR      0.134000
     45 H13        -2.7610   14.1060    0.2890 ha        1 BUR      0.139000
     46 H14        -2.1120    9.9680   -1.5010 hc        1 BUR      0.038367
     47 H15        -1.2490    9.8220    0.0850 hc        1 BUR      0.038367
     48 H16        -2.9550   10.4400    0.0360 hc        1 BUR      0.038367
     49 H17        -2.1050   13.6570   -1.7400 hc        1 BUR      0.038367
     50 H18        -2.4940   12.0910   -2.5580 hc        1 BUR      0.038367
     51 H19        -3.4650   12.6140   -1.1240 hc        1 BUR      0.038367
     52 H20        -0.2070   11.3620   -2.3670 hc        1 BUR      0.038367
     53 H21         0.2680   12.8900   -1.5090 hc        1 BUR      0.038367
     54 H22         0.6420   11.2770   -0.7670 hc        1 BUR      0.038367
@<TRIPOS>BOND
     1    1    2 1   
     2    2    3 1   
     3    2    4 1   
     4    2    5 1   
     5    5    6 1   
     6    6    7 ar  
     7    6    9 ar  
     8    7    8 ar  
     9    7   33 1   
    10    8   11 ar  
    11    8   34 1   
    12    9   10 ar  
    13    9   35 1   
    14   10   11 ar  
    15   10   36 1   
    16   11   12 1   
    17   12   13 1   
    18   12   37 1   
    19   13   14 2   
    20   13   15 1   
    21   15   16 1   
    22   15   38 1   
    23   16   17 ar  
    24   16   21 ar  
    25   17   18 ar  
    26   17   39 1   
    27   18   19 ar  
    28   18   40 1   
    29   19   20 ar  
    30   19   41 1   
    31   20   21 ar  
    32   21   22 1   
    33   22   23 1   
    34   23   24 ar  
    35   23   28 ar  
    36   24   25 ar  
    37   24   42 1   
    38   25   26 ar  
    39   25   43 1   
    40   26   27 ar  
    41   26   44 1   
    42   27   28 ar  
    43   27   45 1   
    44   28   29 1   
    45   29   30 1   
    46   29   31 1   
    47   29   32 1   
    48   30   46 1   
    49   30   47 1   
    50   30   48 1   
    51   31   49 1   
    52   31   50 1   
    53   31   51 1   
    54   32   52 1   
    55   32   53 1   
    56   32   54 1   
@<TRIPOS>SUBSTRUCTURE
     1 BUR         1 TEMP              0 ****  ****    0 ROOT
