@<TRIPOS>MOLECULE
BUR
   54    56     1     0     0
SMALL
bcc


@<TRIPOS>ATOM
      1 FAE         0.5560   -0.3960    1.3780 f         1 BUR     -0.217633
      2 CBF         1.4880   -0.2080    0.4090 c3        1 BUR      0.817700
      3 FAF         2.6900    0.0220    0.9930 f         1 BUR     -0.217633
      4 FAG         1.5670   -1.3250   -0.3540 f         1 BUR     -0.217633
      5 OAW         1.1180    0.8120   -0.4810 os        1 BUR     -0.364900
      6 CAZ         1.0410    2.1110    0.0220 ca        1 BUR      0.052100
      7 CAQ         2.0140    3.0320   -0.3790 ca        1 BUR     -0.095000
      8 CAO         1.8850    4.3690   -0.0170 ca        1 BUR     -0.156000
      9 CAR        -0.0580    2.5080    0.7920 ca        1 BUR     -0.095000
     10 CAP        -0.1810    3.8390    1.1650 ca        1 BUR     -0.156000
     11 CAY         0.7870    4.7940    0.7630 ca        1 BUR      0.079600
     12 NAT         0.5780    6.1420    1.1080 ns        1 BUR     -0.465100
     13 CAX         1.6200    7.0760    1.2960 c         1 BUR      0.767100
     14 OAD         2.8010    6.8200    0.9750 o         1 BUR     -0.609100
     15 NAU         1.2660    8.3080    1.8980 ns        1 BUR     -0.437100
     16 CBA         2.1160    9.4270    1.8240 ca        1 BUR     -0.072700
     17 CAL         3.5140    9.3390    1.9750 ca        1 BUR     -0.076000
     18 CAJ         4.2830   10.5030    1.9610 ca        1 BUR     -0.253300
     19 CAK         3.6470   11.7420    1.8010 ca        1 BUR      0.405200
     20 NAS         2.3160   11.8800    1.6540 nb        1 BUR     -0.686000
     21 CBC         1.5740   10.7520    1.6580 ca        1 BUR      0.581600
     22 OAV         0.1960   10.8030    1.4540 os        1 BUR     -0.393400
     23 CBB        -0.4600   12.0170    1.6870 ca        1 BUR      0.112100
     24 CAM        -0.3320   12.6280    2.9410 ca        1 BUR     -0.136000
     25 CAH        -1.0770   13.7660    3.2290 ca        1 BUR     -0.119000
     26 CAI        -1.9440   14.2800    2.2670 ca        1 BUR     -0.135000
     27 CAN        -2.0650   13.6640    1.0230 ca        1 BUR     -0.122000
     28 CBD        -1.3240   12.5200    0.6910 ca        1 BUR     -0.056300
     29 CBE        -1.4660   11.8630   -0.6570 c3        1 BUR     -0.000700
     30 CAC        -1.9790   10.4350   -0.4870 c3        1 BUR     -0.086767
     31 CAA        -2.4510   12.6010   -1.5610 c3        1 BUR     -0.086767
     32 CAB        -0.1160   11.8420   -1.3690 c3        1 BUR     -0.086767
     33 H1          2.8690    2.7000   -0.9870 ha        1 BUR      0.157000
     34 H2          2.6560    5.0880   -0.3400 ha        1 BUR      0.159000
     35 H3         -0.8080    1.7650    1.1030 ha        1 BUR      0.157000
     36 H4         -1.0480    4.1410    1.7740 ha        1 BUR      0.159000
     37 H5         -0.3010    6.3280    1.5410 hn        1 BUR      0.315500
     38 H6          0.2940    8.5490    1.9210 hn        1 BUR      0.321500
     39 H7          3.9990    8.3550    2.0910 ha        1 BUR      0.178000
     40 H8          5.3740   10.4480    2.0750 ha        1 BUR      0.152000
     41 H9          4.2210   12.6860    1.7830 h4        1 BUR      0.030100
     42 H10         0.3630   12.2090    3.6830 ha        1 BUR      0.144000
     43 H11        -0.9800   14.2540    4.2090 ha        1 BUR      0.136000
     44 H12        -2.5380   15.1800    2.4870 ha        1 BUR      0.134000
     45 H13        -2.7610   14.1050    0.2940 ha        1 BUR      0.139000
     46 H14        -2.9570   10.4380    0.0510 hc        1 BUR      0.038367
     47 H15        -2.1220    9.9630   -1.4880 hc        1 BUR      0.038367
     48 H16        -1.2520    9.8200    0.0940 hc        1 BUR      0.038367
     49 H17        -3.4720   12.6090   -1.1120 hc        1 BUR      0.038367
     50 H18        -2.5080   12.0820   -2.5490 hc        1 BUR      0.038367
     51 H19        -2.1150   13.6510   -1.7380 hc        1 BUR      0.038367
     52 H20         0.2590   12.8830   -1.5160 hc        1 BUR      0.038367
     53 H21        -0.2210   11.3540   -2.3670 hc        1 BUR      0.038367
     54 H22         0.6360   11.2730   -0.7710 hc        1 BUR      0.038367
@<TRIPOS>BOND
     1    1    2 1   
     2    2    3 1   
     3    2    4 1   
     4    2    5 1   
     5    5    6 1   
     6    6    7 ar  
     7    6    9 ar  
     8    7    8 ar  
     9    7   33 1   
    10    8   11 ar  
    11    8   34 1   
    12    9   10 ar  
    13    9   35 1   
    14   10   11 ar  
    15   10   36 1   
    16   11   12 1   
    17   12   13 1   
    18   12   37 1   
    19   13   14 2   
    20   13   15 1   
    21   15   16 1   
    22   15   38 1   
    23   16   17 ar  
    24   16   21 ar  
    25   17   18 ar  
    26   17   39 1   
    27   18   19 ar  
    28   18   40 1   
    29   19   20 ar  
    30   19   41 1   
    31   20   21 ar  
    32   21   22 1   
    33   22   23 1   
    34   23   24 ar  
    35   23   28 ar  
    36   24   25 ar  
    37   24   42 1   
    38   25   26 ar  
    39   25   43 1   
    40   26   27 ar  
    41   26   44 1   
    42   27   28 ar  
    43   27   45 1   
    44   28   29 1   
    45   29   30 1   
    46   29   31 1   
    47   29   32 1   
    48   30   46 1   
    49   30   47 1   
    50   30   48 1   
    51   31   49 1   
    52   31   50 1   
    53   31   51 1   
    54   32   52 1   
    55   32   53 1   
    56   32   54 1   
@<TRIPOS>SUBSTRUCTURE
     1 BUR         1 TEMP              0 ****  ****    0 ROOT
