@<TRIPOS>MOLECULE
BV5
   45    46     1     0     0
SMALL
bcc


@<TRIPOS>ATOM
      1 C1          1.4100    1.6600    0.6840 ca        1 BV5      0.032000
      2 C2          2.5220    1.0500    1.2780 ca        1 BV5     -0.155000
      3 C3          2.3560    0.1860    2.3470 ca        1 BV5      0.027000
      4 C4          1.0740   -0.1030    2.8800 ca        1 BV5     -0.532500
      5 C5         -0.0290    0.5000    2.2200 ca        1 BV5      0.277100
      6 C6          0.1250    1.3830    1.1510 ca        1 BV5     -0.194000
      7 O7         -1.2540    0.0670    2.6910 os        1 BV5     -0.450900
      8 C8         -2.4370    0.8370    2.5080 c3        1 BV5      0.853700
      9 F9         -2.8320    0.7610    1.2180 f         1 BV5     -0.181967
     10 F10        -3.3290    0.2230    3.3130 f         1 BV5     -0.181967
     11 F11        -2.2470    2.1210    2.8750 f         1 BV5     -0.181967
     12 S12         0.9650   -1.0020    4.2130 sy        1 BV5      1.493200
     13 O13         2.1470   -1.6190    4.5720 o         1 BV5     -0.569300
     14 O14         0.0970   -0.5590    5.1850 o         1 BV5     -0.569300
     15 N15        -0.0580   -2.4650    3.5110 n4        1 BV5     -0.616700
     16 C16         0.7110   -3.6900    3.1270 c         1 BV5      0.554100
     17 O17         0.8800   -3.8490    1.9250 o         1 BV5     -0.431100
     18 C18         1.2030   -4.5510    4.2550 c3        1 BV5     -0.155400
     19 C19         1.6640   -5.8990    3.7310 c3        1 BV5     -0.077400
     20 C20         2.1860   -6.7790    4.8570 c3        1 BV5     -0.064700
     21 C21         2.3120   -8.2130    4.3580 c3        1 BV5     -0.077400
     22 C22         2.9070   -9.1160    5.4380 c3        1 BV5      0.165800
     23 N23         4.1620   -8.6150    5.9600 n3        1 BV5     -0.822200
     24 C24         4.0900   -7.2460    6.4280 c3        1 BV5      0.165800
     25 C25         3.5310   -6.2900    5.3730 c3        1 BV5     -0.077400
     26 H1          1.5460    2.3570   -0.1630 ha        1 BV5      0.181000
     27 H2          3.5350    1.2610    0.8930 ha        1 BV5      0.183000
     28 H6         -0.7560    1.8520    0.6810 ha        1 BV5      0.186000
     29 H3          3.2440   -0.2890    2.8100 ha        1 BV5      0.181000
     30 H15        -0.5730   -2.1330    2.6910 hn        1 BV5      0.462300
     31 H181        2.0660   -4.0130    4.7470 hc        1 BV5      0.107200
     32 H182        0.3960   -4.6940    5.0220 hc        1 BV5      0.107200
     33 H191        0.8050   -6.4130    3.2240 hc        1 BV5      0.068200
     34 H192        2.4670   -5.7510    2.9610 hc        1 BV5      0.068200
     35 H20         1.4470   -6.7630    5.7070 hc        1 BV5      0.048700
     36 H211        2.9610   -8.2360    3.4440 hc        1 BV5      0.049700
     37 H212        1.3040   -8.6110    4.0760 hc        1 BV5      0.049700
     38 H251        3.4250   -5.2770    5.8380 hc        1 BV5      0.049700
     39 H252        4.2540   -6.2060    4.5200 hc        1 BV5      0.049700
     40 H221        2.1310   -9.2510    6.2490 h1        1 BV5      0.035450
     41 H222        3.1120  -10.1300    4.9900 h1        1 BV5      0.035450
     42 H23         4.5020   -9.2150    6.6890 hn        1 BV5      0.376800
     43 H241        5.1380   -6.9250    6.6900 h1        1 BV5      0.035450
     44 H242        3.4580   -7.1460    7.3600 h1        1 BV5      0.035450
     45 H152       -0.7510   -2.7250    4.2140 hn        1 BV5      0.462300
@<TRIPOS>BOND
     1    1    2 ar  
     2    1    6 ar  
     3    1   26 1   
     4    2    3 ar  
     5    2   27 1   
     6    3    4 ar  
     7    3   29 1   
     8    4    5 ar  
     9    4   12 1   
    10    5    6 ar  
    11    5    7 1   
    12    6   28 1   
    13    7    8 1   
    14    8    9 1   
    15    8   10 1   
    16    8   11 1   
    17   12   13 2   
    18   12   14 2   
    19   12   15 1   
    20   15   16 1   
    21   15   30 1   
    22   15   45 1   
    23   16   17 2   
    24   16   18 1   
    25   18   19 1   
    26   18   31 1   
    27   18   32 1   
    28   19   20 1   
    29   19   33 1   
    30   19   34 1   
    31   20   21 1   
    32   20   25 1   
    33   20   35 1   
    34   21   22 1   
    35   21   36 1   
    36   21   37 1   
    37   22   23 1   
    38   22   40 1   
    39   22   41 1   
    40   23   24 1   
    41   23   42 1   
    42   24   25 1   
    43   24   43 1   
    44   24   44 1   
    45   25   38 1   
    46   25   39 1   
@<TRIPOS>SUBSTRUCTURE
     1 BV5         1 TEMP              0 ****  ****    0 ROOT
