@<TRIPOS>MOLECULE
BV5
   45    46     1     0     0
SMALL
bcc


@<TRIPOS>ATOM
      1 C1          1.3150    1.5770    0.5510 ca        1 BV5      0.032000
      2 C2          2.4440    0.9870    1.1350 ca        1 BV5     -0.155000
      3 C3          2.3050    0.1510    2.2290 ca        1 BV5      0.027000
      4 C4          1.0370   -0.1290    2.7990 ca        1 BV5     -0.532500
      5 C5         -0.0830    0.4520    2.1490 ca        1 BV5      0.277100
      6 C6          0.0430    1.3060    1.0540 ca        1 BV5     -0.194000
      7 O7         -1.2950    0.0260    2.6590 os        1 BV5     -0.450900
      8 C8         -2.4860    0.7860    2.4820 c3        1 BV5      0.853700
      9 F9         -2.9090    0.6750    1.2040 f         1 BV5     -0.181967
     10 F10        -3.3560    0.1900    3.3240 f         1 BV5     -0.181967
     11 F11        -2.2930    2.0800    2.8110 f         1 BV5     -0.181967
     12 S12         0.9620   -0.9940    4.1570 sy        1 BV5      1.493200
     13 O13         2.1550   -1.5960    4.5050 o         1 BV5     -0.569300
     14 O14         0.1150   -0.5280    5.1370 o         1 BV5     -0.569300
     15 N15        -0.0700   -2.4780    3.5170 ny        1 BV5     -0.616700
     16 C16         0.6960   -3.7110    3.1490 c         1 BV5      0.554100
     17 O17         0.8380   -3.9010    1.9480 o         1 BV5     -0.431100
     18 C18         1.2190   -4.5380    4.2870 c3        1 BV5     -0.155400
     19 C19         1.6710   -5.8990    3.7900 c3        1 BV5     -0.077400
     20 C20         2.2270   -6.7450    4.9260 c3        1 BV5     -0.064700
     21 C21         2.3450   -8.1920    4.4650 c3        1 BV5     -0.077400
     22 C22         2.9730   -9.0620    5.5540 c3        1 BV5      0.165800
     23 N23         4.2390   -8.5420    6.0280 n7        1 BV5     -0.822200
     24 C24         4.1740   -7.1610    6.4580 c3        1 BV5      0.165800
     25 C25         3.5830   -6.2370    5.3920 c3        1 BV5     -0.077400
     26 H1          1.4280    2.2510   -0.3170 ha        1 BV5      0.181000
     27 H2          3.4460    1.1920    0.7210 ha        1 BV5      0.183000
     28 H6         -0.8510    1.7600    0.5920 ha        1 BV5      0.186000
     29 H3          3.2050   -0.3080    2.6840 ha        1 BV5      0.181000
     30 H15        -0.6040   -2.1700    2.7010 hn        1 BV5      0.462300
     31 H181        0.4310   -4.6630    5.0780 hc        1 BV5      0.107200
     32 H182        2.0920   -3.9850    4.7440 hc        1 BV5      0.107200
     33 H191        2.4530   -5.7700    2.9950 hc        1 BV5      0.068200
     34 H192        0.8010   -6.4300    3.3200 hc        1 BV5      0.068200
     35 H20         1.5110   -6.7060    5.7950 hc        1 BV5      0.048700
     36 H211        2.9690   -8.2390    3.5350 hc        1 BV5      0.049700
     37 H212        1.3310   -8.6010    4.2220 hc        1 BV5      0.049700
     38 H251        4.2830   -6.1750    4.5180 hc        1 BV5      0.049700
     39 H252        3.4860   -5.2110    5.8300 hc        1 BV5      0.049700
     40 H221        3.1690  -10.0880    5.1300 h1        1 BV5      0.035450
     41 H222        2.2190   -9.1760    6.3890 h1        1 BV5      0.035450
     42 H23         4.6000   -9.1200    6.7640 hn        1 BV5      0.376800
     43 H241        5.2270   -6.8290    6.6830 h1        1 BV5      0.035450
     44 H242        3.5670   -7.0350    7.4040 h1        1 BV5      0.035450
     45 H152       -0.7450   -2.7230    4.2430 hn        1 BV5      0.462300
@<TRIPOS>BOND
     1    1    2 ar  
     2    1    6 ar  
     3    1   26 1   
     4    2    3 ar  
     5    2   27 1   
     6    3    4 ar  
     7    3   29 1   
     8    4    5 ar  
     9    4   12 1   
    10    5    6 ar  
    11    5    7 1   
    12    6   28 1   
    13    7    8 1   
    14    8    9 1   
    15    8   10 1   
    16    8   11 1   
    17   12   13 2   
    18   12   14 2   
    19   12   15 1   
    20   15   16 1   
    21   15   30 1   
    22   15   45 1   
    23   16   17 2   
    24   16   18 1   
    25   18   19 1   
    26   18   31 1   
    27   18   32 1   
    28   19   20 1   
    29   19   33 1   
    30   19   34 1   
    31   20   21 1   
    32   20   25 1   
    33   20   35 1   
    34   21   22 1   
    35   21   36 1   
    36   21   37 1   
    37   22   23 1   
    38   22   40 1   
    39   22   41 1   
    40   23   24 1   
    41   23   42 1   
    42   24   25 1   
    43   24   43 1   
    44   24   44 1   
    45   25   38 1   
    46   25   39 1   
@<TRIPOS>SUBSTRUCTURE
     1 BV5         1 TEMP              0 ****  ****    0 ROOT
