@<TRIPOS>MOLECULE
BV5
   45    46     1     0     0
SMALL
bcc


@<TRIPOS>ATOM
      1 C1          1.3290    1.5800    0.5590 ca        1 BV5      0.032000
      2 C2          2.4620    0.9650    1.1070 ca        1 BV5     -0.155000
      3 C3          2.3390    0.1310    2.2050 ca        1 BV5      0.027000
      4 C4          1.0840   -0.1220    2.8140 ca        1 BV5     -0.532500
      5 C5         -0.0430    0.4840    2.2000 ca        1 BV5      0.277100
      6 C6          0.0670    1.3370    1.1020 ca        1 BV5     -0.194000
      7 O7         -1.2480    0.0850    2.7470 os        1 BV5     -0.450900
      8 C8         -2.4260    0.8710    2.6080 c3        1 BV5      0.853700
      9 F9         -2.8920    0.7710    1.3430 f         1 BV5     -0.181967
     10 F10        -3.2830    0.2930    3.4760 f         1 BV5     -0.181967
     11 F11        -2.1950    2.1600    2.9310 f         1 BV5     -0.181967
     12 S12         1.0320   -0.9860    4.1730 sy        1 BV5      1.493200
     13 O13         2.2220   -1.6150    4.4840 o         1 BV5     -0.569300
     14 O14         0.2270   -0.5030    5.1790 o         1 BV5     -0.569300
     15 N15        -0.0520   -2.4470    3.5650 n4        1 BV5     -0.616700
     16 C16         0.6750   -3.6950    3.1730 c         1 BV5      0.554100
     17 O17         0.7740   -3.8880    1.9680 o         1 BV5     -0.431100
     18 C18         1.2140   -4.5360    4.2940 c3        1 BV5     -0.155400
     19 C19         1.6200   -5.9060    3.7830 c3        1 BV5     -0.077400
     20 C20         2.1920   -6.7650    4.9000 c3        1 BV5     -0.064700
     21 C21         2.2630   -8.2140    4.4360 c3        1 BV5     -0.077400
     22 C22         2.9050   -9.0990    5.5040 c3        1 BV5      0.165800
     23 N23         4.1970   -8.6070    5.9380 n3        1 BV5     -0.822200
     24 C24         4.1770   -7.2260    6.3700 c3        1 BV5      0.165800
     25 C25         3.5740   -6.2880    5.3230 c3        1 BV5     -0.077400
     26 H1          1.4300    2.2530   -0.3120 ha        1 BV5      0.181000
     27 H2          3.4550    1.1480    0.6620 ha        1 BV5      0.183000
     28 H6         -0.8300    1.8110    0.6680 ha        1 BV5      0.186000
     29 H3          3.2430   -0.3490    2.6310 ha        1 BV5      0.181000
     30 H15        -0.7100   -2.6770    4.3110 hn        1 BV5      0.462300
     31 H181        0.4490   -4.6430    5.1090 hc        1 BV5      0.107200
     32 H182        2.1120   -4.0020    4.7230 hc        1 BV5      0.107200
     33 H191        2.3790   -5.7930    2.9630 hc        1 BV5      0.068200
     34 H192        0.7240   -6.4170    3.3400 hc        1 BV5      0.068200
     35 H20         1.5050   -6.7110    5.7920 hc        1 BV5      0.048700
     36 H211        1.2330   -8.6000    4.2250 hc        1 BV5      0.049700
     37 H212        2.8560   -8.2740    3.4870 hc        1 BV5      0.049700
     38 H251        3.5130   -5.2610    5.7650 hc        1 BV5      0.049700
     39 H252        4.2460   -6.2410    4.4270 hc        1 BV5      0.049700
     40 H221        3.0650  -10.1280    5.0740 h1        1 BV5      0.035450
     41 H222        2.1760   -9.1970    6.3630 h1        1 BV5      0.035450
     42 H23         4.5680   -9.1940    6.6620 hn        1 BV5      0.376800
     43 H241        5.2440   -6.9170    6.5610 h1        1 BV5      0.035450
     44 H242        3.6030   -7.0870    7.3350 h1        1 BV5      0.035450
     45 H152       -0.6050   -2.1260    2.7660 hn        1 BV5      0.462300
@<TRIPOS>BOND
     1    1    2 ar  
     2    1    6 ar  
     3    1   26 1   
     4    2    3 ar  
     5    2   27 1   
     6    3    4 ar  
     7    3   29 1   
     8    4    5 ar  
     9    4   12 1   
    10    5    6 ar  
    11    5    7 1   
    12    6   28 1   
    13    7    8 1   
    14    8    9 1   
    15    8   10 1   
    16    8   11 1   
    17   12   13 2   
    18   12   14 2   
    19   12   15 1   
    20   15   16 1   
    21   15   30 1   
    22   15   45 1   
    23   16   17 2   
    24   16   18 1   
    25   18   19 1   
    26   18   31 1   
    27   18   32 1   
    28   19   20 1   
    29   19   33 1   
    30   19   34 1   
    31   20   21 1   
    32   20   25 1   
    33   20   35 1   
    34   21   22 1   
    35   21   36 1   
    36   21   37 1   
    37   22   23 1   
    38   22   40 1   
    39   22   41 1   
    40   23   24 1   
    41   23   42 1   
    42   24   25 1   
    43   24   43 1   
    44   24   44 1   
    45   25   38 1   
    46   25   39 1   
@<TRIPOS>SUBSTRUCTURE
     1 BV5         1 TEMP              0 ****  ****    0 ROOT
