@<TRIPOS>MOLECULE
BV7
   25    25     1     0     0
SMALL
bcc


@<TRIPOS>ATOM
      1 C1         -0.0430    0.0650    0.1300 c3        1 BV7     -0.073900
      2 C2          1.4800    0.0890    0.0270 c3        1 BV7      0.162800
      3 N3          2.1570   -0.1040    1.2960 n3        1 BV7     -0.818200
      4 C4          1.6720   -1.2360    2.0630 c3        1 BV7      0.162800
      5 C5          0.1520   -1.2830    2.2000 c3        1 BV7     -0.073900
      6 C6         -0.5240   -1.1900    0.8420 c3        1 BV7     -0.066700
      7 C7         -2.0390   -1.1880    0.9680 c3        1 BV7     -0.062400
      8 C8         -2.5940   -2.5220    1.4030 c3        1 BV7     -0.195400
      9 C9         -4.1230   -2.5750    1.2340 c         1 BV7      0.908600
     10 O10        -4.6310   -2.1180    0.1690 o         1 BV7     -0.852300
     11 O11        -4.7980   -3.0980    2.1680 o         1 BV7     -0.852300
     12 H11C       -0.4030    0.9690    0.6840 hc        1 BV7      0.047950
     13 H12C       -0.4710    0.1050   -0.9050 hc        1 BV7      0.047950
     14 H21C        1.7910   -0.6880   -0.7350 h1        1 BV7      0.013950
     15 H22C        1.8060    1.0930   -0.3690 h1        1 BV7      0.013950
     16 H6         -0.2170   -2.0860    0.2300 hc        1 BV7      0.038700
     17 H3          3.1420   -0.2120    1.1320 hn        1 BV7      0.341800
     18 H41C        2.1310   -1.1570    3.0890 h1        1 BV7      0.013950
     19 H42C        2.0130   -2.2180    1.6170 h1        1 BV7      0.013950
     20 H51C       -0.1980   -0.4400    2.8510 hc        1 BV7      0.047950
     21 H52C       -0.1350   -2.2430    2.7000 hc        1 BV7      0.047950
     22 H71C       -2.4950   -0.9240   -0.0250 hc        1 BV7      0.047700
     23 H72C       -2.3520   -0.3950    1.6970 hc        1 BV7      0.047700
     24 H81C       -2.1560   -3.3420    0.7790 hc        1 BV7      0.018700
     25 H82C       -2.3340   -2.7270    2.4710 hc        1 BV7      0.018700
@<TRIPOS>BOND
     1    1    2 1   
     2    1    6 1   
     3    1   12 1   
     4    1   13 1   
     5    2    3 1   
     6    2   14 1   
     7    2   15 1   
     8    3    4 1   
     9    3   17 1   
    10    4    5 1   
    11    4   18 1   
    12    4   19 1   
    13    5    6 1   
    14    5   20 1   
    15    5   21 1   
    16    6    7 1   
    17    6   16 1   
    18    7    8 1   
    19    7   22 1   
    20    7   23 1   
    21    8    9 1   
    22    8   24 1   
    23    8   25 1   
    24    9   10 1   
    25    9   11 1   
@<TRIPOS>SUBSTRUCTURE
     1 BV7         1 TEMP              0 ****  ****    0 ROOT
