@<TRIPOS>MOLECULE
BV7
   25    25     1     0     0
SMALL
bcc


@<TRIPOS>ATOM
      1 C1         -0.0540    0.0820    0.1460 c3        1 BV7     -0.073900
      2 C2          1.4680    0.1080    0.0250 c3        1 BV7      0.162800
      3 N3          2.1600   -0.1080    1.2820 n7        1 BV7     -0.818200
      4 C4          1.6830   -1.2540    2.0340 c3        1 BV7      0.162800
      5 C5          0.1650   -1.3020    2.1890 c3        1 BV7     -0.073900
      6 C6         -0.5270   -1.1860    0.8410 c3        1 BV7     -0.066700
      7 C7         -2.0410   -1.1850    0.9860 c3        1 BV7     -0.062400
      8 C8         -2.5910   -2.5260    1.4050 c3        1 BV7     -0.195400
      9 C9         -4.1220   -2.5770    1.2530 c         1 BV7      0.908600
     10 O10        -4.6420   -2.1040    0.2010 o         1 BV7     -0.852300
     11 O11        -4.7860   -3.1120    2.1870 o         1 BV7     -0.852300
     12 H11C       -0.4070    0.9770    0.7210 hc        1 BV7      0.047950
     13 H12C       -0.4950    0.1410   -0.8820 hc        1 BV7      0.047950
     14 H21C        1.7680   -0.6550   -0.7540 h1        1 BV7      0.013950
     15 H22C        1.7890    1.1190   -0.3560 h1        1 BV7      0.013950
     16 H6         -0.2290   -2.0700    0.2100 hc        1 BV7      0.038700
     17 H3          3.1420   -0.2140    1.1040 hn        1 BV7      0.341800
     18 H41C        2.1560   -1.1930    3.0560 h1        1 BV7      0.013950
     19 H42C        2.0190   -2.2280    1.5670 h1        1 BV7      0.013950
     20 H51C       -0.1760   -0.4720    2.8600 hc        1 BV7      0.047950
     21 H52C       -0.1160   -2.2720    2.6760 hc        1 BV7      0.047950
     22 H71C       -2.3440   -0.4050    1.7320 hc        1 BV7      0.047700
     23 H72C       -2.5090   -0.9050    0.0030 hc        1 BV7      0.047700
     24 H81C       -2.1600   -3.3360    0.7630 hc        1 BV7      0.018700
     25 H82C       -2.3190   -2.7490    2.4670 hc        1 BV7      0.018700
@<TRIPOS>BOND
     1    1    2 1   
     2    1    6 1   
     3    1   12 1   
     4    1   13 1   
     5    2    3 1   
     6    2   14 1   
     7    2   15 1   
     8    3    4 1   
     9    3   17 1   
    10    4    5 1   
    11    4   18 1   
    12    4   19 1   
    13    5    6 1   
    14    5   20 1   
    15    5   21 1   
    16    6    7 1   
    17    6   16 1   
    18    7    8 1   
    19    7   22 1   
    20    7   23 1   
    21    8    9 1   
    22    8   24 1   
    23    8   25 1   
    24    9   10 1   
    25    9   11 1   
@<TRIPOS>SUBSTRUCTURE
     1 BV7         1 TEMP              0 ****  ****    0 ROOT
