@<TRIPOS>MOLECULE
BV7
   25    25     1     0     0
SMALL
bcc


@<TRIPOS>ATOM
      1 C1         -0.0370    0.0240    0.0830 c3        1 BV7     -0.073900
      2 C2          1.4870    0.0470   -0.0090 c3        1 BV7      0.162800
      3 N3          2.1540   -0.0930    1.2720 n3        1 BV7     -0.818200
      4 C4          1.6640   -1.1940    2.0820 c3        1 BV7      0.162800
      5 C5          0.1430   -1.2370    2.2090 c3        1 BV7     -0.073900
      6 C6         -0.5220   -1.2020    0.8420 c3        1 BV7     -0.066700
      7 C7         -2.0380   -1.1960    0.9560 c3        1 BV7     -0.062400
      8 C8         -2.5950   -2.5110    1.4430 c3        1 BV7     -0.195400
      9 C9         -4.1230   -2.5750    1.2630 c         1 BV7      0.908600
     10 O10        -4.6210   -2.1680    0.1730 o         1 BV7     -0.852300
     11 O11        -4.8050   -3.0540    2.2140 o         1 BV7     -0.852300
     12 H11C       -0.4560    0.0210   -0.9550 hc        1 BV7      0.047950
     13 H12C       -0.4020    0.9500    0.5970 hc        1 BV7      0.047950
     14 H21C        1.8150    1.0340   -0.4430 h1        1 BV7      0.013950
     15 H22C        1.8050   -0.7600   -0.7350 h1        1 BV7      0.013950
     16 H6         -0.2100   -2.1210    0.2700 hc        1 BV7      0.038700
     17 H3          3.1400   -0.2070    1.1210 hn        1 BV7      0.341800
     18 H41C        2.0100   -2.1930    1.6790 h1        1 BV7      0.013950
     19 H42C        2.1150   -1.0710    3.1070 h1        1 BV7      0.013950
     20 H51C       -0.1460   -2.1770    2.7460 hc        1 BV7      0.047950
     21 H52C       -0.2130   -0.3690    2.8220 hc        1 BV7      0.047950
     22 H71C       -2.3570   -0.3730    1.6480 hc        1 BV7      0.047700
     23 H72C       -2.4870   -0.9760   -0.0510 hc        1 BV7      0.047700
     24 H81C       -2.1500   -3.3570    0.8590 hc        1 BV7      0.018700
     25 H82C       -2.3440   -2.6690    2.5220 hc        1 BV7      0.018700
@<TRIPOS>BOND
     1    1    2 1   
     2    1    6 1   
     3    1   12 1   
     4    1   13 1   
     5    2    3 1   
     6    2   14 1   
     7    2   15 1   
     8    3    4 1   
     9    3   17 1   
    10    4    5 1   
    11    4   18 1   
    12    4   19 1   
    13    5    6 1   
    14    5   20 1   
    15    5   21 1   
    16    6    7 1   
    17    6   16 1   
    18    7    8 1   
    19    7   22 1   
    20    7   23 1   
    21    8    9 1   
    22    8   24 1   
    23    8   25 1   
    24    9   10 1   
    25    9   11 1   
@<TRIPOS>SUBSTRUCTURE
     1 BV7         1 TEMP              0 ****  ****    0 ROOT
