@<TRIPOS>MOLECULE
BVB
   28    37     1     0     0
SMALL
bcc


@<TRIPOS>ATOM
      1 OAA         0.0000    0.0000    0.0000 oh        1 BVB     -0.299000
      2 OAB         4.1130    0.0010    2.3870 oh        1 BVB     -0.311000
      3 CAD         5.5280   -0.0020   -2.4720 c2        1 BVB     -0.171000
      4 CAE         4.1860   -0.0010   -2.4750 c2        1 BVB     -0.281000
      5 CAF         7.5770   -0.0020   -6.0630 c3        1 BVB      0.097000
      6 CAG         5.3520   -0.0020   -6.9660 c2        1 BVB     -0.082000
      7 CAH         7.0660   -0.0020   -4.7830 c3        1 BVB      0.127000
      8 CAI         4.8270   -0.0020   -5.6920 c2        1 BVB     -0.009000
      9 CAJ         2.0520    0.0000    1.2020 c2        1 BVB     -0.257000
     10 CAK         2.0490   -0.0000   -1.2010 c2        1 BVB     -0.057000
     11 CAL         4.1390   -0.0010    0.0120 c2        1 BVB     -0.197000
     12 CAM         1.3590    0.0000    0.0000 DU        1 BVB      0.604000
     13 CAN         3.4390   -0.0000    1.2070 c3        1 BVB      0.099000
     14 CAO         6.7250   -0.0020   -7.1540 c2        1 BVB      0.123000
     15 CAP         5.6820   -0.0020   -4.5870 c2        1 BVB      0.432000
     16 CAQ         3.4460   -0.0010   -1.2010 c2        1 BVB      0.068000
     17 HOAA        0.6990   -0.0420   -0.6320 DU        1 BVB      0.299000
     18 HOAB        3.2950    0.1660    1.9480 DU        1 BVB      0.304000
     19 HAD         5.3290    0.1710   -1.4210 ha        1 BVB      0.258000
     20 HAE         5.0640   -0.5190   -2.8410 DU        1 BVB      0.199000
     21 HAF         6.8040   -0.1790   -5.3250 DU        1 BVB      0.052000
     22 HAG         6.4090   -0.0020   -6.7270 ha        1 BVB      0.053000
     23 HAH         6.3990   -0.0020   -5.6360 DU        1 BVB     -0.623000
     24 HAI         5.7540   -0.0020   -5.1300 ha        1 BVB     -0.111000
     25 HAJ         2.4500   -0.0000    0.1940 DU        1 BVB     -0.011000
     26 HAK         1.8750   -0.0010   -0.1320 DU        1 BVB     -0.408000
     27 HAL         3.3010    0.0230   -0.6730 ha        1 BVB      0.026000
     28 Br          7.4350   -0.0030   -8.9060 br        1 BVB      0.077000
@<TRIPOS>BOND
     1    1   12 1   
     2    1   17 1   
     3    2   13 1   
     4    2   18 1   
     5    3    4 1   
     6    3   19 1   
     7    3   20 1   
     8    4   16 1   
     9    4   20 1   
    10    5    7 1   
    11    5   14 1   
    12    5   21 1   
    13    5   23 1   
    14    6    8 1   
    15    6   14 1   
    16    6   22 1   
    17    7   15 1   
    18    7   21 1   
    19    7   23 1   
    20    8   15 1   
    21    8   24 1   
    22    9   12 1   
    23    9   13 1   
    24    9   25 1   
    25   10   12 1   
    26   10   16 1   
    27   10   26 1   
    28   11   13 1   
    29   11   16 1   
    30   11   27 1   
    31   12   17 1   
    32   12   25 1   
    33   13   18 1   
    34   14   28 1   
    35   15   23 1   
    36   21   23 1   
    37   25   26 1   
@<TRIPOS>SUBSTRUCTURE
     1 BVB         1 TEMP              0 ****  ****    0 ROOT
