@<TRIPOS>MOLECULE
BVB
   28    21     1     0     0
SMALL
bcc


@<TRIPOS>ATOM
      1 OAA        -3.2370    1.0720    2.5230 oh        1 BVB     -0.248500
      2 OAB         0.7400   -0.6150    4.5140 oh        1 BVB     -0.248500
      3 BR         -0.4470   -2.4680   -5.5520 br        1 BVB      0.051000
      4 CAD         1.4770    0.9500   -0.9860 c1        1 BVB     -0.114500
      5 CAE         1.2370    1.3040    0.2920 c1        1 BVB     -0.114500
      6 CAF         0.0620   -0.1230   -3.9800 c1        1 BVB     -0.114500
      7 CAG         0.2840   -2.1970   -2.7920 c1        1 BVB     -0.104000
      8 CAH         0.3670    0.5730   -2.8220 c1        1 BVB     -0.114500
      9 CAI         0.5890   -1.5010   -1.6330 c1        1 BVB     -0.144500
     10 CAJ        -1.1600    0.3100    3.5020 c1        1 BVB     -0.247500
     11 CAK        -1.2290    0.9250    1.1820 c1        1 BVB     -0.144500
     12 CAL         0.8310    0.1830    2.1670 c1        1 BVB     -0.247500
     13 CAM        -1.8700    0.7630    2.4010 c1        1 BVB      0.116500
     14 CAN         0.1900    0.0210    3.3850 c1        1 BVB      0.116500
     15 CAO         0.0200   -1.5090   -3.9650 c1        1 BVB     -0.163000
     16 CAP         0.6310   -0.1150   -1.6480 c1        1 BVB     -0.007000
     17 CAQ         0.1210    0.6350    1.0650 c1        1 BVB     -0.007000
     18 HOAA       -3.7040    0.3200    2.6150 ho        1 BVB      0.221500
     19 HOAB        1.3710   -0.0980    4.8670 ho        1 BVB      0.221500
     20 HAD         2.1960    1.3820   -1.4850 ha        1 BVB      0.137000
     21 HAE         1.7820    1.9910    0.7190 ha        1 BVB      0.137000
     22 HAF        -0.1240    0.3620   -4.8070 ha        1 BVB      0.137000
     23 HAG         0.2540   -3.1730   -2.7810 ha        1 BVB      0.147000
     24 HAH         0.3970    1.5490   -2.8320 ha        1 BVB      0.137000
     25 HAI         0.7750   -1.9860   -0.8070 ha        1 BVB      0.153500
     26 HAJ        -1.6150    0.1810    4.3560 ha        1 BVB      0.146500
     27 HAK        -1.7240    1.2640    0.4120 ha        1 BVB      0.153500
     28 HAL         1.7870    0.0000    2.0900 ha        1 BVB      0.146500
@<TRIPOS>BOND
     1    1   13 1   
     2    1   18 1   
     3    2   14 1   
     4    2   19 1   
     5    3   15 1   
     6    4    5 1   
     7    4   20 1   
     8    5   21 1   
     9    6    8 1   
    10    6   22 1   
    11    7   15 1   
    12    7   23 1   
    13    8   24 1   
    14    9   16 1   
    15    9   25 1   
    16   10   13 1   
    17   10   26 1   
    18   11   17 1   
    19   11   27 1   
    20   12   14 1   
    21   12   28 1   
@<TRIPOS>SUBSTRUCTURE
     1 BVB         1 TEMP              0 ****  ****    0 ROOT
