@<TRIPOS>MOLECULE
BVB
   28    29     1     0     0
SMALL
bcc


@<TRIPOS>ATOM
      1 OAA         6.0620    2.4190   -0.3050 oh        1 BVB     -0.495600
      2 OAB         5.7740   -2.3310    0.1920 oh        1 BVB     -0.495600
      3 CAD         0.8050   -0.5170   -0.1500 ce        1 BVB     -0.102200
      4 CAE         1.6990    0.4370    0.1570 cf        1 BVB     -0.101200
      5 CAF        -2.8370   -1.3750    0.0580 ca        1 BVB     -0.103500
      6 CAG        -2.6320    1.0330   -0.0260 ca        1 BVB     -0.103500
      7 CAH        -1.4520   -1.4930   -0.0110 ca        1 BVB     -0.119500
      8 CAI        -1.2460    0.9120   -0.0920 ca        1 BVB     -0.119500
      9 CAJ         5.9540    0.0050   -0.0590 ca        1 BVB     -0.241000
     10 CAK         3.9450    1.4030   -0.0720 ca        1 BVB     -0.210000
     11 CAL         3.7370   -1.0000    0.1770 ca        1 BVB     -0.210000
     12 CAM         5.3390    1.2600   -0.1460 ca        1 BVB      0.160100
     13 CAN         5.1310   -1.1180    0.1060 ca        1 BVB      0.160100
     14 CAO        -3.4330   -0.1100    0.0510 ca        1 BVB     -0.024900
     15 CAP        -0.6370   -0.3510   -0.0800 ca        1 BVB     -0.044800
     16 CAQ         3.1430    0.2660    0.0840 ca        1 BVB      0.012200
     17 HOAA        7.0010    2.1850   -0.3410 ho        1 BVB      0.422500
     18 HOAB        5.1010   -3.0180    0.3120 ho        1 BVB      0.422500
     19 HAD         1.1410   -1.5170   -0.4800 ha        1 BVB      0.129000
     20 HAE         1.3700    1.4400    0.4850 ha        1 BVB      0.134000
     21 HAF        -3.4570   -2.2830    0.1160 ha        1 BVB      0.147500
     22 HAG        -3.0890    2.0350   -0.0370 ha        1 BVB      0.147500
     23 HAH        -0.9910   -2.4920   -0.0070 ha        1 BVB      0.138500
     24 HAI        -0.6290    1.8210   -0.1620 ha        1 BVB      0.138500
     25 HAJ         7.0430   -0.1110   -0.1140 ha        1 BVB      0.154000
     26 HAK         3.5010    2.4060   -0.1430 ha        1 BVB      0.145000
     27 HAL         3.1170   -1.8970    0.3170 ha        1 BVB      0.145000
     28 BR         -5.2950    0.0510    0.1430 br        1 BVB     -0.086100
@<TRIPOS>BOND
     1    1   12 1   
     2    1   17 1   
     3    2   13 1   
     4    2   18 1   
     5    3    4 2   
     6    3   15 1   
     7    3   19 1   
     8    4   16 1   
     9    4   20 1   
    10    5    7 ar  
    11    5   14 ar  
    12    5   21 1   
    13    6    8 ar  
    14    6   14 ar  
    15    6   22 1   
    16    7   15 ar  
    17    7   23 1   
    18    8   15 ar  
    19    8   24 1   
    20    9   12 ar  
    21    9   13 ar  
    22    9   25 1   
    23   10   12 ar  
    24   10   16 ar  
    25   10   26 1   
    26   11   13 ar  
    27   11   16 ar  
    28   11   27 1   
    29   14   28 1   
@<TRIPOS>SUBSTRUCTURE
     1 BVB         1 TEMP              0 ****  ****    0 ROOT
