@<TRIPOS>MOLECULE
BVC
   15    15     1     0     0
SMALL
bcc


@<TRIPOS>ATOM
      1 C1          0.1490   -0.0940    0.0400 cc        1 BVC     -0.189100
      2 S2          1.8080   -0.1600    0.0080 ss        1 BVC      0.245200
      3 C3          1.9730   -0.0790    1.6410 cc        1 BVC     -0.179100
      4 C4          0.7360   -0.0080    2.2770 cd        1 BVC     -0.250300
      5 C5         -0.3360   -0.0170    1.3310 cd        1 BVC     -0.131000
      6 C6          0.5340    0.0070    3.7330 c3        1 BVC      0.209100
      7 N7          0.3410    1.4140    4.2370 n4        1 BVC     -0.847600
      8 H1         -0.4710   -0.1210   -0.8590 h4        1 BVC      0.202000
      9 H3          2.9370   -0.1070    2.1520 h4        1 BVC      0.186000
     10 H5         -1.3930    0.0100    1.6040 ha        1 BVC      0.164000
     11 H61         1.4260   -0.4230    4.2740 hx        1 BVC      0.111700
     12 H62        -0.3910   -0.5770    4.0180 hx        1 BVC      0.111700
     13 HN71        1.1730    1.9740    4.0310 hn        1 BVC      0.455800
     14 HN72        0.1760    1.4120    5.2460 hn        1 BVC      0.455800
     15 H73        -0.4600    1.8430    3.7630 hn        1 BVC      0.455800
@<TRIPOS>BOND
     1    1    2 1   
     2    1    5 2   
     3    1    8 1   
     4    2    3 1   
     5    3    4 2   
     6    3    9 1   
     7    4    5 1   
     8    4    6 1   
     9    5   10 1   
    10    6    7 1   
    11    6   11 1   
    12    6   12 1   
    13    7   13 1   
    14    7   14 1   
    15    7   15 1   
@<TRIPOS>SUBSTRUCTURE
     1 BVC         1 TEMP              0 ****  ****    0 ROOT
