@<TRIPOS>MOLECULE
BVC
   15    15     1     0     0
SMALL
bcc


@<TRIPOS>ATOM
      1 C1          0.1450   -0.0920    0.0410 cc        1 BVC     -0.189100
      2 S2          1.8040   -0.1580    0.0050 ss        1 BVC      0.245200
      3 C3          1.9720   -0.0780    1.6380 cc        1 BVC     -0.179100
      4 C4          0.7360   -0.0070    2.2770 cd        1 BVC     -0.250300
      5 C5         -0.3380   -0.0160    1.3320 cd        1 BVC     -0.131000
      6 C6          0.5360    0.0060    3.7330 c3        1 BVC      0.209100
      7 N7          0.3430    1.4120    4.2380 nz        1 BVC     -0.847600
      8 H1         -0.4770   -0.1180   -0.8570 h4        1 BVC      0.202000
      9 H3          2.9370   -0.1070    2.1470 h4        1 BVC      0.186000
     10 H5         -1.3950    0.0100    1.6070 ha        1 BVC      0.164000
     11 H61         1.4300   -0.4230    4.2720 hx        1 BVC      0.111700
     12 H62        -0.3870   -0.5780    4.0190 hx        1 BVC      0.111700
     13 HN71        1.1740    1.9740    4.0310 hn        1 BVC      0.455800
     14 HN72       -0.4590    1.8410    3.7650 hn        1 BVC      0.455800
     15 H73         0.1790    1.4100    5.2480 hn        1 BVC      0.455800
@<TRIPOS>BOND
     1    1    2 1   
     2    1    5 2   
     3    1    8 1   
     4    2    3 1   
     5    3    4 2   
     6    3    9 1   
     7    4    5 1   
     8    4    6 1   
     9    5   10 1   
    10    6    7 1   
    11    6   11 1   
    12    6   12 1   
    13    7   13 1   
    14    7   14 1   
    15    7   15 1   
@<TRIPOS>SUBSTRUCTURE
     1 BVC         1 TEMP              0 ****  ****    0 ROOT
