@<TRIPOS>MOLECULE
BVC
   14    14     1     0     0
SMALL
bcc


@<TRIPOS>ATOM
      1 C1          1.4870    1.1010   -0.2580 cc        1 BVC     -0.165100
      2 S2          1.5690   -0.0740    0.9270 ss        1 BVC      0.019200
      3 C3         -0.0520   -0.4610    0.8150 cc        1 BVC     -0.181100
      4 C4         -0.6940    0.3040   -0.1360 cd        1 BVC     -0.146300
      5 C5          0.2140    1.2220   -0.7640 cd        1 BVC     -0.151000
      6 C6         -2.1340    0.2460   -0.5170 c3        1 BVC      0.214100
      7 N7         -2.9700   -0.7040    0.1670 n3        1 BVC     -0.900800
      8 H1          2.3510    1.6850   -0.5700 h4        1 BVC      0.171000
      9 H3         -0.5090   -1.2300    1.4350 h4        1 BVC      0.166000
     10 H5         -0.0960    1.9180   -1.5460 ha        1 BVC      0.155000
     11 H61        -2.1930    0.0220   -1.6230 h1        1 BVC      0.062700
     12 H62        -2.5780    1.2730   -0.3580 h1        1 BVC      0.062700
     13 HN71       -2.6430   -1.6390    0.0210 hn        1 BVC      0.346800
     14 HN72       -2.9870   -0.5220    1.1510 hn        1 BVC      0.346800
@<TRIPOS>BOND
     1    1    2 1   
     2    1    5 2   
     3    1    8 1   
     4    2    3 1   
     5    3    4 2   
     6    3    9 1   
     7    4    5 1   
     8    4    6 1   
     9    5   10 1   
    10    6    7 1   
    11    6   11 1   
    12    6   12 1   
    13    7   13 1   
    14    7   14 1   
@<TRIPOS>SUBSTRUCTURE
     1 BVC         1 TEMP              0 ****  ****    0 ROOT
