@<TRIPOS>MOLECULE
BVC
   15    15     1     0     0
SMALL
bcc


@<TRIPOS>ATOM
      1 C1          0.1370   -0.0920    0.0420 cc        1 BVC     -0.189100
      2 S2          1.7950   -0.1630    0.0020 ss        1 BVC      0.245200
      3 C3          1.9680   -0.0830    1.6340 cc        1 BVC     -0.179100
      4 C4          0.7340   -0.0080    2.2770 cd        1 BVC     -0.250300
      5 C5         -0.3420   -0.0140    1.3350 cd        1 BVC     -0.131000
      6 C6          0.5390    0.0070    3.7330 c3        1 BVC      0.209100
      7 N7          0.3500    1.4140    4.2380 n4        1 BVC     -0.847600
      8 H1         -0.4870   -0.1170   -0.8540 h4        1 BVC      0.202000
      9 H3          2.9350   -0.1140    2.1410 h4        1 BVC      0.186000
     10 H5         -1.3980    0.0160    1.6130 ha        1 BVC      0.164000
     11 H61         1.4330   -0.4250    4.2700 hx        1 BVC      0.111700
     12 H62        -0.3850   -0.5750    4.0220 hx        1 BVC      0.111700
     13 HN71        1.1830    1.9730    4.0280 hn        1 BVC      0.455800
     14 HN72       -0.4520    1.8440    3.7670 hn        1 BVC      0.455800
     15 H73         0.1900    1.4120    5.2480 hn        1 BVC      0.455800
@<TRIPOS>BOND
     1    1    2 1   
     2    1    5 2   
     3    1    8 1   
     4    2    3 1   
     5    3    4 2   
     6    3    9 1   
     7    4    5 1   
     8    4    6 1   
     9    5   10 1   
    10    6    7 1   
    11    6   11 1   
    12    6   12 1   
    13    7   13 1   
    14    7   14 1   
    15    7   15 1   
@<TRIPOS>SUBSTRUCTURE
     1 BVC         1 TEMP              0 ****  ****    0 ROOT
