@<TRIPOS>MOLECULE
BVC
   14    10     1     0     0
SMALL
bcc


@<TRIPOS>ATOM
      1 C1         -0.7100    0.2530   -2.4140 c1        1 BVC     -0.206400
      2 S2          0.8270    0.3440   -2.4010 ss        1 BVC      0.101800
      3 C3          1.2820    0.3310   -0.9290 c1        1 BVC     -0.206400
      4 C4          0.0750    0.2360   -0.0820 cg        1 BVC     -0.134500
      5 C5         -1.1730    0.1870   -1.0150 cg        1 BVC     -0.134500
      6 C6          0.0500    0.2090    1.3900 c2        1 BVC      0.295100
      7 N7          0.3230   -1.1030    1.8460 nh        1 BVC     -0.502100
      8 H1         -1.2980    0.2390   -3.2360 DU        1 BVC      0.168000
      9 H3          2.1740    0.3760   -0.6240 DU        1 BVC      0.168000
     10 H5         -2.0730    0.1260   -0.7330 DU        1 BVC      0.168000
     11 H61        -0.8310    0.4850    1.7050 h4        1 BVC     -0.054700
     12 H62         0.7540    0.8480    1.7520 h4        1 BVC     -0.054700
     13 HN71        1.0410   -1.0740    2.4970 hn        1 BVC      0.195700
     14 HN72       -0.4410   -1.4580    2.2440 hn        1 BVC      0.195700
@<TRIPOS>BOND
     1    1    2 1   
     2    1    5 3   
     3    2    3 1   
     4    3    4 3   
     5    4    5 1   
     6    6    7 2   
     7    6   11 1   
     8    6   12 1   
     9    7   13 1   
    10    7   14 1   
@<TRIPOS>SUBSTRUCTURE
     1 BVC         1 TEMP              0 ****  ****    0 ROOT
