@<TRIPOS>MOLECULE
BVD
   32    33     1     0     0
SMALL
bcc


@<TRIPOS>ATOM
      1 O5'         0.2110   -1.5290    0.1520 oh        1 BVD     -0.592800
      2 C5'         1.5510   -1.0940    0.2370 c3        1 BVD      0.116400
      3 C4'         1.7810   -0.2530    1.4910 c3        1 BVD      0.097100
      4 O4'         1.5140   -1.0610    2.6500 os        1 BVD     -0.430600
      5 C1'         2.6960   -1.2550    3.4370 c3        1 BVD      0.316500
      6 N1          3.0960   -2.6660    3.4300 n         1 BVD     -0.378000
      7 C6          2.5760   -3.5020    4.4040 cc        1 BVD      0.068600
      8 C2          3.8190   -3.2320    2.3420 c         1 BVD      0.810500
      9 O2          4.2450   -2.5380    1.3930 o         1 BVD     -0.650500
     10 N3          4.0790   -4.6090    2.3610 n         1 BVD     -0.582500
     11 C4          3.6080   -5.4720    3.3640 c         1 BVD      0.719700
     12 O4          3.8850   -6.6800    3.2830 o         1 BVD     -0.606500
     13 C5          2.8080   -4.8510    4.4430 cd        1 BVD     -0.240200
     14 C5A         2.3200   -5.7480    5.4610 cf        1 BVD     -0.048000
     15 C5B         1.6670   -5.4900    6.5990 c2        1 BVD     -0.153300
     16 BR          1.1350   -3.8650    7.3180 br        1 BVD     -0.092700
     17 C2'         3.7570   -0.2570    2.9380 c3        1 BVD     -0.138400
     18 C3'         3.2300    0.2580    1.5920 c3        1 BVD      0.124100
     19 O3'         3.1810    1.6730    1.5580 oh        1 BVD     -0.590800
     20 HO5'        0.0130   -2.0020    0.9710 ho        1 BVD      0.409000
     21 H5'1        2.2500   -1.9740    0.2290 h1        1 BVD      0.062200
     22 H5'2        1.7130   -0.4650   -0.6780 h1        1 BVD      0.062200
     23 H4'         1.0410    0.5940    1.5410 h1        1 BVD      0.103700
     24 H1'         2.3820   -1.0160    4.4990 h2        1 BVD      0.091700
     25 H6          1.9560   -3.0070    5.1850 h4        1 BVD      0.190000
     26 HN3         4.6060   -4.9810    1.6000 hn        1 BVD      0.356500
     27 H5A         2.5430   -6.8170    5.2390 ha        1 BVD      0.168000
     28 H5B         1.3740   -6.3200    7.2590 h4        1 BVD      0.158000
     29 H2'1        4.7660   -0.7190    2.8220 hc        1 BVD      0.082200
     30 H2'2        3.8300    0.5850    3.6710 hc        1 BVD      0.082200
     31 H3'         3.8550   -0.1380    0.7450 h1        1 BVD      0.077700
     32 HO3'        4.0910    1.9810    1.4730 ho        1 BVD      0.408000
@<TRIPOS>BOND
     1    1    2 1   
     2    1   20 1   
     3    2    3 1   
     4    2   21 1   
     5    2   22 1   
     6    3    4 1   
     7    3   18 1   
     8    3   23 1   
     9    4    5 1   
    10    5    6 1   
    11    5   17 1   
    12    5   24 1   
    13    6    7 1   
    14    6    8 1   
    15    7   13 2   
    16    7   25 1   
    17    8    9 2   
    18    8   10 1   
    19   10   11 1   
    20   10   26 1   
    21   11   12 2   
    22   11   13 1   
    23   13   14 1   
    24   14   15 2   
    25   14   27 1   
    26   15   16 1   
    27   15   28 1   
    28   17   18 1   
    29   17   29 1   
    30   17   30 1   
    31   18   19 1   
    32   18   31 1   
    33   19   32 1   
@<TRIPOS>SUBSTRUCTURE
     1 BVD         1 TEMP              0 ****  ****    0 ROOT
