@<TRIPOS>MOLECULE
BVD
   32    32     1     0     0
SMALL
bcc


@<TRIPOS>ATOM
      1 O5'        -2.7450    2.2090    0.0630 oh        1 BVD     -0.316000
      2 C5'        -1.3300    2.1540    0.1040 c3        1 BVD     -0.030000
      3 C4'        -0.8610    2.0840    1.5700 c3        1 BVD     -0.064000
      4 O4'        -0.9850    0.5850    2.1090 os        1 BVD     -0.275000
      5 C1'         0.0710   -0.0380    1.6880 c3        1 BVD      0.149000
      6 N1         -0.1970   -0.6830    0.3880 n         1 BVD     -0.274000
      7 C6          0.8930   -0.9790   -0.4970 c2        1 BVD      0.065000
      8 C2         -1.5410   -1.1880    0.0900 c2        1 BVD      0.402000
      9 O2         -2.4730   -0.8280    0.7480 o         1 BVD     -0.351000
     10 N3         -1.7610   -2.0660   -1.0700 n         1 BVD     -0.362000
     11 C4         -0.6800   -2.3750   -1.9510 c2        1 BVD      0.360000
     12 O4         -0.8810   -3.0400   -2.9510 o         1 BVD     -0.331000
     13 C5          0.6660   -1.8220   -1.6890 c2        1 BVD     -0.223000
     14 C5A         1.8490   -2.1700   -2.6360 c2        1 BVD     -0.045000
     15 C5B         2.3730   -3.4090   -2.6310 c1        1 BVD     -0.278000
     16 BR          1.6660   -4.7370   -1.4620 br        1 BVD      0.023000
     17 C2'         1.1410    1.0510    1.5320 c3        1 BVD     -0.195000
     18 C3'         0.3830    2.3960    1.6490 c3        1 BVD      0.008000
     19 O3'         0.6720    3.0340    2.9740 oh        1 BVD     -0.310000
     20 HO5'       -2.9930    2.8800   -0.4170 ho        1 BVD      0.215000
     21 H5'1       -0.9430    2.9910   -0.3410 h1        1 BVD      0.090000
     22 H5'2       -1.0100    1.3260   -0.3920 h1        1 BVD      0.090000
     23 H4'        -1.4050    2.7000    2.1340 h1        1 BVD      0.136000
     24 H1'         0.3630   -0.7180    2.3580 h2        1 BVD      0.176000
     25 H6          1.8110   -0.6000   -0.3130 h4        1 BVD      0.178000
     26 HN3        -2.6040   -2.3780   -1.2520 hn        1 BVD      0.271000
     27 H5A         2.2130   -1.4870   -3.2380 ha        1 BVD      0.168000
     28 H5B         3.1200   -3.6300   -3.2290 ha        1 BVD      0.159000
     29 H2'1        1.5670    0.9800    0.6630 hc        1 BVD      0.130000
     30 H2'2        1.8080    0.9750    2.2430 hc        1 BVD      0.130000
     31 H3'         0.6390    3.0070    0.9030 h1        1 BVD      0.092000
     32 HO3'        1.1740    3.7780    2.8480 ho        1 BVD      0.210000
@<TRIPOS>BOND
     1    1    2 1   
     2    1   20 1   
     3    2    3 1   
     4    2   21 1   
     5    2   22 1   
     6    3    4 1   
     7    3   18 1   
     8    3   23 1   
     9    4    5 1   
    10    5    6 1   
    11    5   17 1   
    12    5   24 1   
    13    6    7 1   
    14    6    8 1   
    15    7   13 1   
    16    7   25 1   
    17    8    9 1   
    18    8   10 1   
    19   10   11 1   
    20   10   26 1   
    21   11   12 1   
    22   11   13 1   
    23   13   14 1   
    24   14   15 1   
    25   14   27 1   
    26   15   28 1   
    27   17   18 1   
    28   17   29 1   
    29   17   30 1   
    30   18   19 1   
    31   18   31 1   
    32   19   32 1   
@<TRIPOS>SUBSTRUCTURE
     1 BVD         1 TEMP              0 ****  ****    0 ROOT
