@<TRIPOS>MOLECULE
BVD
   32    33     1     0     0
SMALL
bcc


@<TRIPOS>ATOM
      1 O5'        -1.0400    2.4520    4.3360 oh        1 BVD     -0.592800
      2 C5'        -0.1730    1.3630    4.5710 c3        1 BVD      0.116400
      3 C4'        -0.9040    0.0310    4.4170 c3        1 BVD      0.097100
      4 O4'        -1.3860   -0.0840    3.0660 os        1 BVD     -0.432600
      5 C1'        -0.7470   -1.1630    2.3730 c3        1 BVD      0.316500
      6 N1          0.0900   -0.6530    1.2820 n         1 BVD     -0.381000
      7 C6         -0.4960   -0.4500    0.0430 cc        1 BVD      0.058600
      8 C2          1.4010   -0.1510    1.5130 c         1 BVD      0.810500
      9 O2          1.9510   -0.2160    2.6340 o         1 BVD     -0.651500
     10 N3          2.0970    0.4050    0.4320 n         1 BVD     -0.584500
     11 C4          1.5490    0.5630   -0.8550 c         1 BVD      0.724700
     12 O4          2.2740    1.0710   -1.7260 o         1 BVD     -0.605500
     13 C5          0.1580    0.1050   -1.0270 cd        1 BVD     -0.216200
     14 C5A        -0.5350    0.2330   -2.2930 cf        1 BVD     -0.088000
     15 C5B        -0.0130    0.7270   -3.4210 c2        1 BVD     -0.112300
     16 BR         -0.9550    0.8620   -5.0160 br        1 BVD     -0.081700
     17 C2'        -0.0250   -2.0280    3.4230 c3        1 BVD     -0.137400
     18 C3'         0.0150   -1.1720    4.6960 c3        1 BVD      0.124100
     19 O3'        -0.5240   -1.8660    5.8060 oh        1 BVD     -0.590800
     20 HO5'       -1.4200    2.3280    3.4560 ho        1 BVD      0.409000
     21 H5'1        0.7070    1.4040    3.8730 h1        1 BVD      0.062700
     22 H5'2        0.1720    1.4870    5.6320 h1        1 BVD      0.062700
     23 H4'        -1.8240    0.0060    5.0640 h1        1 BVD      0.103700
     24 H1'        -1.5920   -1.7380    1.8860 h2        1 BVD      0.087700
     25 H6         -1.5490   -0.7860   -0.0470 h4        1 BVD      0.170000
     26 HN3         3.0260    0.7250    0.6100 hn        1 BVD      0.356500
     27 H5A        -1.5830   -0.1220   -2.2710 ha        1 BVD      0.132000
     28 H5B         1.0210    1.0960   -3.5010 h4        1 BVD      0.188000
     29 H2'1       -0.6280   -2.9550    3.5990 hc        1 BVD      0.082700
     30 H2'2        1.0040   -2.3250    3.1070 hc        1 BVD      0.082700
     31 H3'         1.0660   -0.8340    4.9110 h1        1 BVD      0.078700
     32 HO3'        0.1330   -2.5210    6.0720 ho        1 BVD      0.409000
@<TRIPOS>BOND
     1    1    2 1   
     2    1   20 1   
     3    2    3 1   
     4    2   21 1   
     5    2   22 1   
     6    3    4 1   
     7    3   18 1   
     8    3   23 1   
     9    4    5 1   
    10    5    6 1   
    11    5   17 1   
    12    5   24 1   
    13    6    7 1   
    14    6    8 1   
    15    7   13 2   
    16    7   25 1   
    17    8    9 2   
    18    8   10 1   
    19   10   11 1   
    20   10   26 1   
    21   11   12 2   
    22   11   13 1   
    23   13   14 1   
    24   14   15 2   
    25   14   27 1   
    26   15   16 1   
    27   15   28 1   
    28   17   18 1   
    29   17   29 1   
    30   17   30 1   
    31   18   19 1   
    32   18   31 1   
    33   19   32 1   
@<TRIPOS>SUBSTRUCTURE
     1 BVD         1 TEMP              0 ****  ****    0 ROOT
