@<TRIPOS>MOLECULE
BVD
   32    33     1     0     0
SMALL
bcc


@<TRIPOS>ATOM
      1 O5'         0.1290   -1.4640    0.2480 oh        1 BVD     -0.592800
      2 C5'         1.4870   -1.0800    0.2710 c3        1 BVD      0.116400
      3 C4'         1.8020   -0.2350    1.5040 c3        1 BVD      0.097100
      4 O4'         1.5540   -1.0210    2.6830 os        1 BVD     -0.430600
      5 C1'         2.7600   -1.2510    3.4210 c3        1 BVD      0.316500
      6 N1          3.1070   -2.6770    3.4150 n         1 BVD     -0.378000
      7 C6          2.5990   -3.4820    4.4200 cc        1 BVD      0.068600
      8 C2          3.7610   -3.2810    2.3040 c         1 BVD      0.810500
      9 O2          4.1720   -2.6140    1.3300 o         1 BVD     -0.650500
     10 N3          3.9690   -4.6670    2.3290 n         1 BVD     -0.582500
     11 C4          3.5100   -5.5010    3.3610 c         1 BVD      0.719700
     12 O4          3.7370   -6.7190    3.2830 o         1 BVD     -0.606500
     13 C5          2.7810   -4.8380    4.4650 cd        1 BVD     -0.240200
     14 C5A         2.3040   -5.7050    5.5140 cf        1 BVD     -0.048000
     15 C5B         1.7130   -5.4110    6.6770 c2        1 BVD     -0.153300
     16 BR          1.2760   -3.7590    7.3990 br        1 BVD     -0.092700
     17 C2'         3.8360   -0.2990    2.8660 c3        1 BVD     -0.138400
     18 C3'         3.2720    0.2210    1.5370 c3        1 BVD      0.124100
     19 O3'         3.2750    1.6360    1.4900 oh        1 BVD     -0.590800
     20 HO5'       -0.0510   -1.9210    1.0800 ho        1 BVD      0.409000
     21 H5'1        1.6340   -0.4670   -0.6570 h1        1 BVD      0.062200
     22 H5'2        2.1520   -1.9860    0.2430 h1        1 BVD      0.062200
     23 H4'         1.0980    0.6390    1.5760 h1        1 BVD      0.103700
     24 H1'         2.5010   -0.9900    4.4930 h2        1 BVD      0.091700
     25 H6          2.0310   -2.9550    5.2210 h4        1 BVD      0.190000
     26 HN3         4.4490   -5.0670    1.5500 hn        1 BVD      0.356500
     27 H5A         2.4760   -6.7840    5.2950 ha        1 BVD      0.168000
     28 H5B         1.4160   -6.2220    7.3580 h4        1 BVD      0.158000
     29 H2'1        4.8220   -0.8010    2.7130 hc        1 BVD      0.082200
     30 H2'2        3.9730    0.5470    3.5860 hc        1 BVD      0.082200
     31 H3'         3.8450   -0.2070    0.6700 h1        1 BVD      0.077700
     32 HO3'        4.1910    1.9090    1.3620 ho        1 BVD      0.408000
@<TRIPOS>BOND
     1    1    2 1   
     2    1   20 1   
     3    2    3 1   
     4    2   21 1   
     5    2   22 1   
     6    3    4 1   
     7    3   18 1   
     8    3   23 1   
     9    4    5 1   
    10    5    6 1   
    11    5   17 1   
    12    5   24 1   
    13    6    7 1   
    14    6    8 1   
    15    7   13 2   
    16    7   25 1   
    17    8    9 2   
    18    8   10 1   
    19   10   11 1   
    20   10   26 1   
    21   11   12 2   
    22   11   13 1   
    23   13   14 1   
    24   14   15 2   
    25   14   27 1   
    26   15   16 1   
    27   15   28 1   
    28   17   18 1   
    29   17   29 1   
    30   17   30 1   
    31   18   19 1   
    32   18   31 1   
    33   19   32 1   
@<TRIPOS>SUBSTRUCTURE
     1 BVD         1 TEMP              0 ****  ****    0 ROOT
