@<TRIPOS>MOLECULE
BVD
   32    33     1     0     0
SMALL
bcc


@<TRIPOS>ATOM
      1 O5'         0.2360   -1.5200    0.1310 oh        1 BVD     -0.592800
      2 C5'         1.5760   -1.0880    0.2290 c3        1 BVD      0.116400
      3 C4'         1.7960   -0.2490    1.4860 c3        1 BVD      0.097100
      4 O4'         1.5180   -1.0590    2.6410 os        1 BVD     -0.430600
      5 C1'         2.6920   -1.2560    3.4390 c3        1 BVD      0.316500
      6 N1          3.0910   -2.6680    3.4330 n         1 BVD     -0.378000
      7 C6          2.5610   -3.5040    4.4010 cc        1 BVD      0.068600
      8 C2          3.8220   -3.2330    2.3510 c         1 BVD      0.810500
      9 O2          4.2580   -2.5380    1.4070 o         1 BVD     -0.650500
     10 N3          4.0800   -4.6100    2.3700 ns        1 BVD     -0.582500
     11 C4          3.5990   -5.4750    3.3670 c         1 BVD      0.719700
     12 O4          3.8750   -6.6830    3.2870 o         1 BVD     -0.606500
     13 C5          2.7910   -4.8540    4.4400 cd        1 BVD     -0.240200
     14 C5A         2.2930   -5.7520    5.4530 cf        1 BVD     -0.048000
     15 C5B         1.6330   -5.4950    6.5860 c2        1 BVD     -0.153300
     16 Br          1.0990   -3.8700    7.3040 br        1 BVD     -0.092700
     17 C2'         3.7590   -0.2580    2.9510 c3        1 BVD     -0.138400
     18 C3'         3.2450    0.2590    1.6010 c3        1 BVD      0.124100
     19 O3'         3.1980    1.6740    1.5700 oh        1 BVD     -0.590800
     20 HO5'        0.0300   -1.9950    0.9470 ho        1 BVD      0.409000
     21 H5'1        2.2740   -1.9680    0.2250 h1        1 BVD      0.062200
     22 H5'2        1.7470   -0.4570   -0.6840 h1        1 BVD      0.062200
     23 H4'         1.0570    0.5990    1.5320 h1        1 BVD      0.103700
     24 H1'         2.3690   -1.0190    4.4980 h2        1 BVD      0.091700
     25 H6          1.9350   -3.0100    5.1780 h4        1 BVD      0.190000
     26 HN3         4.6130   -4.9820    1.6120 hn        1 BVD      0.356500
     27 H5A         2.5160   -6.8210    5.2300 ha        1 BVD      0.168000
     28 H5B         1.3320   -6.3250    7.2420 h4        1 BVD      0.158000
     29 H2'1        4.7690   -0.7220    2.8430 hc        1 BVD      0.082200
     30 H2'2        3.8270    0.5820    3.6870 hc        1 BVD      0.082200
     31 H3'         3.8770   -0.1360    0.7590 h1        1 BVD      0.077700
     32 HO3'        4.1090    1.9810    1.4930 ho        1 BVD      0.408000
@<TRIPOS>BOND
     1    1    2 1   
     2    1   20 1   
     3    2    3 1   
     4    2   21 1   
     5    2   22 1   
     6    3    4 1   
     7    3   18 1   
     8    3   23 1   
     9    4    5 1   
    10    5    6 1   
    11    5   17 1   
    12    5   24 1   
    13    6    7 1   
    14    6    8 1   
    15    7   13 2   
    16    7   25 1   
    17    8    9 2   
    18    8   10 1   
    19   10   11 1   
    20   10   26 1   
    21   11   12 2   
    22   11   13 1   
    23   13   14 1   
    24   14   15 2   
    25   14   27 1   
    26   15   16 1   
    27   15   28 1   
    28   17   18 1   
    29   17   29 1   
    30   17   30 1   
    31   18   19 1   
    32   18   31 1   
    33   19   32 1   
@<TRIPOS>SUBSTRUCTURE
     1 BVD         1 TEMP              0 ****  ****    0 ROOT
