@<TRIPOS>MOLECULE
BVF
   16    16     1     0     0
SMALL
bcc


@<TRIPOS>ATOM
      1 C1         -0.0110   -0.2260    0.0290 ca        1 BVF      0.436200
      2 C2          1.3890   -0.1260   -0.0090 ca        1 BVF     -0.296300
      3 C3          2.0750    0.0240    1.2030 ca        1 BVF     -0.005300
      4 C4          1.3440    0.0650    2.3900 ca        1 BVF     -0.301300
      5 C5         -0.0780   -0.0580    2.3400 ca        1 BVF      0.628200
      6 N6         -0.7490   -0.1870    1.1470 nb        1 BVF     -0.727000
      7 N7         -0.8010   -0.1210    3.5410 nv        1 BVF     -0.925500
      8 C8          3.5520    0.1240    1.2250 c3        1 BVF     -0.061800
      9 H1         -0.5910   -0.3390   -0.9060 h4        1 BVF      0.019100
     10 H2          1.9270   -0.1630   -0.9640 ha        1 BVF      0.142000
     11 H4          1.8590    0.1780    3.3530 ha        1 BVF      0.140000
     12 HN71       -1.7890   -0.0170    3.4600 hn        1 BVF      0.401800
     13 HN72       -0.3980    0.4100    4.2790 hn        1 BVF      0.401800
     14 H81         3.9280    0.6520    0.3140 hc        1 BVF      0.049033
     15 H82         3.9990   -0.9020    1.2440 hc        1 BVF      0.049033
     16 H83         3.9050    0.6780    2.1290 hc        1 BVF      0.049033
@<TRIPOS>BOND
     1    1    2 ar  
     2    1    6 ar  
     3    1    9 1   
     4    2    3 ar  
     5    2   10 1   
     6    3    4 ar  
     7    3    8 1   
     8    4    5 ar  
     9    4   11 1   
    10    5    6 ar  
    11    5    7 1   
    12    7   12 1   
    13    7   13 1   
    14    8   14 1   
    15    8   15 1   
    16    8   16 1   
@<TRIPOS>SUBSTRUCTURE
     1 BVF         1 TEMP              0 ****  ****    0 ROOT
