@<TRIPOS>MOLECULE
BVF
   16    13     1     0     0
SMALL
bcc


@<TRIPOS>ATOM
      1 C1         -1.2570    0.0100   -1.5560 c1        1 BVF      0.354300
      2 C2          0.1290    0.0100   -1.5560 c1        1 BVF     -0.173500
      3 C3          0.8110    0.0100   -0.3730 c1        1 BVF      0.028900
      4 C4          0.1270    0.0100    0.8070 c1        1 BVF     -0.178500
      5 C5         -1.2590    0.0100    0.8050 c1        1 BVF      0.162800
      6 N6         -1.9390    0.0100   -0.3760 n1        1 BVF     -0.526800
      7 N7         -1.9700    0.0110    2.0320 n3        1 BVF     -0.788400
      8 C8          2.3230   -0.0210   -0.3720 c3        1 BVF     -0.096000
      9 H1         -1.7450    0.0100   -2.4010 ha        1 BVF      0.098500
     10 H2          0.6170    0.0100   -2.4010 ha        1 BVF      0.084500
     11 H4          0.6140    0.0100    1.6540 ha        1 BVF      0.082500
     12 HN71       -1.5160   -0.0090    2.8220 hn        1 BVF      0.401800
     13 HN72       -2.8820    0.0120    2.0300 hn        1 BVF      0.401800
     14 H81         2.6540    0.1860   -1.2670 hc        1 BVF      0.049367
     15 H82         2.6300   -0.9100   -0.1100 hc        1 BVF      0.049367
     16 H83         2.6620    0.6400    0.2610 hc        1 BVF      0.049367
@<TRIPOS>BOND
     1    1    6 3   
     2    1    9 1   
     3    2    3 3   
     4    2   10 1   
     5    3    8 1   
     6    4    5 3   
     7    4   11 1   
     8    5    7 1   
     9    7   12 1   
    10    7   13 1   
    11    8   14 1   
    12    8   15 1   
    13    8   16 1   
@<TRIPOS>SUBSTRUCTURE
     1 BVF         1 TEMP              0 ****  ****    0 ROOT
