@<TRIPOS>MOLECULE
BVF
   17    17     1     0     0
SMALL
bcc


@<TRIPOS>ATOM
      1 C1         -0.0000   -0.0550   -0.0290 ca        1 BVF      0.443200
      2 C2          1.4110   -0.0390   -0.0230 ca        1 BVF     -0.191300
      3 C3          2.0870    0.0020    1.2000 ca        1 BVF      0.001700
      4 C4          1.3310    0.0270    2.3880 ca        1 BVF     -0.209300
      5 C5         -0.0710    0.0080    2.2680 ca        1 BVF      0.437200
      6 N6         -0.7460   -0.0330    1.0840 nb        1 BVF     -0.653000
      7 N7         -0.8980    0.0340    3.4950 n4        1 BVF     -0.818300
      8 C8          3.5650    0.0070    1.2570 c3        1 BVF     -0.082800
      9 H1         -0.5720   -0.0880   -0.9800 h4        1 BVF      0.069100
     10 H2          1.9650   -0.0570   -0.9750 ha        1 BVF      0.187000
     11 H4          1.8410    0.0620    3.3630 ha        1 BVF      0.168000
     12 HN71       -0.6760   -0.7900    4.0630 hn        1 BVF      0.472133
     13 HN72       -0.6840    0.8870    4.0220 hn        1 BVF      0.472133
     14 H81         3.9500   -1.0420    1.1690 hc        1 BVF      0.077700
     15 H82         3.9370    0.4380    2.2190 hc        1 BVF      0.077700
     16 H83         3.9910    0.6050    0.4120 hc        1 BVF      0.077700
     17 H73        -1.9010    0.0240    3.2600 hn        1 BVF      0.472133
@<TRIPOS>BOND
     1    1    2 ar  
     2    1    6 ar  
     3    1    9 1   
     4    2    3 ar  
     5    2   10 1   
     6    3    4 ar  
     7    3    8 1   
     8    4    5 ar  
     9    4   11 1   
    10    5    6 ar  
    11    5    7 1   
    12    7   12 1   
    13    7   13 1   
    14    7   17 1   
    15    8   14 1   
    16    8   15 1   
    17    8   16 1   
@<TRIPOS>SUBSTRUCTURE
     1 BVF         1 TEMP              0 ****  ****    0 ROOT
