@<TRIPOS>MOLECULE
BVF
   16    16     1     0     0
SMALL
bcc


@<TRIPOS>ATOM
      1 C1         -0.0050   -0.2340    0.0260 ca        1 BVF      0.436200
      2 C2          1.3930   -0.1280   -0.0080 ca        1 BVF     -0.296300
      3 C3          2.0750    0.0270    1.2050 ca        1 BVF     -0.005300
      4 C4          1.3410    0.0670    2.3900 ca        1 BVF     -0.301300
      5 C5         -0.0800   -0.0620    2.3370 ca        1 BVF      0.628200
      6 N6         -0.7470   -0.1970    1.1420 nb        1 BVF     -0.727000
      7 N7         -0.8060   -0.1270    3.5360 nh        1 BVF     -0.925500
      8 C8          3.5520    0.1340    1.2310 c3        1 BVF     -0.061800
      9 H1         -0.5830   -0.3520   -0.9100 h4        1 BVF      0.019100
     10 H2          1.9340   -0.1640   -0.9620 ha        1 BVF      0.142000
     11 H4          1.8530    0.1840    3.3540 ha        1 BVF      0.140000
     12 HN71       -0.4060    0.4070    4.2740 hn        1 BVF      0.401800
     13 HN72       -1.7940   -0.0270    3.4520 hn        1 BVF      0.401800
     14 H81         3.9290    0.6530    0.3160 hc        1 BVF      0.049033
     15 H82         3.9000    0.7000    2.1300 hc        1 BVF      0.049033
     16 H83         4.0040   -0.8900    1.2640 hc        1 BVF      0.049033
@<TRIPOS>BOND
     1    1    2 ar  
     2    1    6 ar  
     3    1    9 1   
     4    2    3 ar  
     5    2   10 1   
     6    3    4 ar  
     7    3    8 1   
     8    4    5 ar  
     9    4   11 1   
    10    5    6 ar  
    11    5    7 1   
    12    7   12 1   
    13    7   13 1   
    14    8   14 1   
    15    8   15 1   
    16    8   16 1   
@<TRIPOS>SUBSTRUCTURE
     1 BVF         1 TEMP              0 ****  ****    0 ROOT
