@<TRIPOS>MOLECULE
BVF
   16    16     1     0     0
SMALL
bcc


@<TRIPOS>ATOM
      1 C1         -0.0810    1.7250    0.0070 ca        1 BVF      0.436200
      2 C2          1.1820    1.1140   -0.0050 ca        1 BVF     -0.296300
      3 C3          1.2410   -0.2850   -0.0010 ca        1 BVF     -0.005300
      4 C4          0.0500   -1.0100    0.0190 ca        1 BVF     -0.301300
      5 C5         -1.1940   -0.3090    0.0450 ca        1 BVF      0.628200
      6 N6         -1.2480    1.0640    0.0220 nb        1 BVF     -0.727000
      7 N7         -2.3870   -1.0380    0.1700 nh        1 BVF     -0.925500
      8 C8          2.5470   -0.9840   -0.0030 c3        1 BVF     -0.061800
      9 H1         -0.1720    2.8270   -0.0020 h4        1 BVF      0.019100
     10 H2          2.0960    1.7200   -0.0210 ha        1 BVF      0.142000
     11 H4          0.0700   -2.1080    0.0270 ha        1 BVF      0.140000
     12 HN71       -3.2270   -0.5310   -0.0050 hn        1 BVF      0.401800
     13 HN72       -2.3560   -1.9320   -0.2650 hn        1 BVF      0.401800
     14 H81         2.9250   -1.0790    1.0460 hc        1 BVF      0.049033
     15 H82         2.4560   -2.0090   -0.4380 hc        1 BVF      0.049033
     16 H83         3.3020   -0.4110   -0.5970 hc        1 BVF      0.049033
@<TRIPOS>BOND
     1    1    2 ar  
     2    1    6 ar  
     3    1    9 1   
     4    2    3 ar  
     5    2   10 1   
     6    3    4 ar  
     7    3    8 1   
     8    4    5 ar  
     9    4   11 1   
    10    5    6 ar  
    11    5    7 1   
    12    7   12 1   
    13    7   13 1   
    14    8   14 1   
    15    8   15 1   
    16    8   16 1   
@<TRIPOS>SUBSTRUCTURE
     1 BVF         1 TEMP              0 ****  ****    0 ROOT
