@<TRIPOS>MOLECULE
BVG
   13    10     1     0     0
SMALL
bcc


@<TRIPOS>ATOM
      1 O7         -1.9800    0.0000   -1.5590 oh        1 BVG     -0.559800
      2 C6         -0.5700    0.0000   -1.5590 c3        1 BVG      0.134100
      3 C4         -0.0650    0.0000   -0.1330 ce        1 BVG      0.395000
      4 N5         -0.8340    0.0000    0.9830 n1        1 BVG     -0.316900
      5 N3          1.2340    0.0000    0.2520 ne        1 BVG     -0.594200
      6 C2          1.2690    0.0000    1.5880 c1        1 BVG      0.049400
      7 C1         -0.0220    0.0000    2.0440 c1        1 BVG     -0.171000
      8 HO7        -2.2760   -0.0000   -2.3960 ho        1 BVG      0.401000
      9 H61        -0.2440    0.7970   -2.0190 h1        1 BVG      0.029700
     10 H62        -0.2440   -0.7970   -2.0190 h1        1 BVG      0.029700
     11 HN3         1.9580    0.0000   -0.3030 DU        1 BVG      0.201000
     12 H2          2.0730    0.0000    2.1410 DU        1 BVG      0.201000
     13 H1         -0.3000    0.0000    2.9800 DU        1 BVG      0.201000
@<TRIPOS>BOND
     1    1    2 1   
     2    1    8 1   
     3    2    3 1   
     4    2    9 1   
     5    2   10 1   
     6    3    4 2   
     7    3    5 1   
     8    4    7 2   
     9    5    6 2   
    10    6    7 2   
@<TRIPOS>SUBSTRUCTURE
     1 BVG         1 TEMP              0 ****  ****    0 ROOT
