@<TRIPOS>MOLECULE
BVG
   13    13     1     0     0
SMALL
bcc


@<TRIPOS>ATOM
      1 O7          2.3900    0.4890   -0.0010 oh        1 BVG     -0.616800
      2 C6          1.6000   -0.6930    0.0010 c3        1 BVG      0.110100
      3 C4          0.1520   -0.3120    0.0000 cc        1 BVG      0.377800
      4 N5         -0.8810   -1.2000    0.0010 nd        1 BVG     -0.669000
      5 N3         -0.3240    1.0070   -0.0000 na        1 BVG     -0.286900
      6 C2         -1.7130    0.9400   -0.0000 cc        1 BVG     -0.260600
      7 C1         -2.0380   -0.4320    0.0000 cd        1 BVG      0.291200
      8 HO7         3.3090    0.1970   -0.0020 ho        1 BVG      0.415000
      9 H61         1.8230   -1.3030   -0.9170 h1        1 BVG      0.052700
     10 H62         1.8230   -1.3010    0.9200 h1        1 BVG      0.052700
     11 HN3         0.2410    1.8150   -0.0010 hn        1 BVG      0.313700
     12 H2         -2.3410    1.8270   -0.0010 h4        1 BVG      0.177000
     13 H1         -3.0250   -0.8920    0.0010 h4        1 BVG      0.042100
@<TRIPOS>BOND
     1    1    2 1   
     2    1    8 1   
     3    2    3 1   
     4    2    9 1   
     5    2   10 1   
     6    3    4 2   
     7    3    5 1   
     8    4    7 1   
     9    5    6 1   
    10    5   11 1   
    11    6    7 2   
    12    6   12 1   
    13    7   13 1   
@<TRIPOS>SUBSTRUCTURE
     1 BVG         1 TEMP              0 ****  ****    0 ROOT
