@<TRIPOS>MOLECULE
BVL
   47    37     1     0     0
SMALL
bcc


@<TRIPOS>ATOM
      1 C2         -0.4600    3.4690    3.5430 c1        1 BVL     -0.119500
      2 C4          1.4150    4.6080    4.4690 c1        1 BVL      0.083000
      3 C5          1.6410    5.2490    3.2740 c1        1 BVL     -0.219000
      4 C6          0.8260    5.0090    2.2080 c1        1 BVL     -0.191500
      5 O24         0.7410    2.0640    1.2460 o         1 BVL     -0.301000
      6 C9         -0.0430    2.0220    0.2920 c1        1 BVL      0.325000
      7 C8         -1.1920    2.9980    0.2230 c2        1 BVL     -0.206000
      8 C7         -1.3040    4.0070    1.1850 c1        1 BVL     -0.076000
      9 C1         -0.2350    4.1160    2.3300 c1        1 BVL      0.027500
     10 C3          0.3450    3.7060    4.5930 c1        1 BVL     -0.119500
     11 O25         2.2190    4.8690    5.5510 oh        1 BVL     -0.251000
     12 C10         0.0670    0.8930   -0.7380 c1        1 BVL     -0.204000
     13 C11         0.7020    1.1190   -1.9390 c1        1 BVL      0.027500
     14 O23         1.3270    2.3780   -2.1910 o         1 BVL     -0.251000
     15 C12         0.7320    0.1110   -2.9180 c1        1 BVL     -0.191500
     16 C13         0.1150   -1.1240   -2.6720 c1        1 BVL      0.141000
     17 O21         0.2000   -2.1550   -3.6200 o         1 BVL     -0.204000
     18 C22         0.3200   -1.6910   -4.9990 c3        1 BVL     -0.078000
     19 C14        -0.5300   -1.3530   -1.4520 c1        1 BVL     -0.130000
     20 C15        -0.5600   -0.3640   -0.4890 c2        1 BVL     -0.023000
     21 C16        -1.2080   -2.7120   -1.1810 c2        1 BVL     -0.083000
     22 C17        -0.2410   -3.6300   -0.4590 c2        1 BVL     -0.174000
     23 C18        -0.5560   -4.9500   -0.2770 c1        1 BVL     -0.112000
     24 C20        -1.9200   -5.5140   -0.8160 c2        1 BVL     -0.183000
     25 C19         0.3900   -5.8440    0.4300 c3        1 BVL     -0.180000
     26 H2         -1.2220    2.8250    3.6320 ha        1 BVL      0.158500
     27 H5          2.3840    5.8740    3.1890 ha        1 BVL      0.133000
     28 H6          0.9820    5.4520    1.3820 ha        1 BVL      0.136500
     29 H8         -1.8380    2.9280   -0.4740 ha        1 BVL      0.159000
     30 H7         -2.0860    4.6740    1.1440 ha        1 BVL      0.126000
     31 H3          0.1780    3.2310    5.4820 ha        1 BVL      0.158500
     32 HO25        2.9960    4.3680    5.4850 ho        1 BVL      0.217000
     33 HO23        2.1190    2.2590   -2.3830 ho        1 BVL      0.222000
     34 H12         1.1710    0.2650   -3.7480 ha        1 BVL      0.136500
     35 H22         0.1950   -2.4370   -5.6000 h1        1 BVL      0.086333
     36 H22A       -0.3220   -1.0520   -5.1670 h1        1 BVL      0.086333
     37 H22B        1.2240   -1.2970   -5.1400 h1        1 BVL      0.086333
     38 H15        -0.9960   -0.5200    0.3340 ha        1 BVL      0.163000
     39 H16        -1.9490   -2.5820   -0.6620 ha        1 BVL      0.104500
     40 H16A       -1.4610   -3.1010   -1.9910 ha        1 BVL      0.104500
     41 H17         0.6770   -3.2520   -0.0950 ha        1 BVL      0.128000
     42 H20        -2.0330   -6.3870   -0.5230 ha        1 BVL      0.080667
     43 H20A       -1.9150   -5.4980   -1.7810 ha        1 BVL      0.080667
     44 H20B       -2.7060   -4.9230   -0.4600 ha        1 BVL      0.080667
     45 H19         0.9190   -6.3390   -0.2230 hc        1 BVL      0.080667
     46 H19A        1.0070   -5.2870    1.0140 hc        1 BVL      0.080667
     47 H19B       -0.1130   -6.4780    0.9930 hc        1 BVL      0.080667
@<TRIPOS>BOND
     1    1   10 1   
     2    1   26 1   
     3    2    3 1   
     4    2   11 1   
     5    3   27 1   
     6    4    9 1   
     7    4   28 1   
     8    5    6 1   
     9    6    7 1   
    10    7    8 1   
    11    7   29 1   
    12    8   30 1   
    13   10   31 1   
    14   11   32 1   
    15   12   20 1   
    16   13   15 1   
    17   14   33 1   
    18   15   34 1   
    19   16   19 1   
    20   17   18 1   
    21   18   35 1   
    22   18   36 1   
    23   18   37 1   
    24   19   20 1   
    25   20   38 1   
    26   21   22 1   
    27   21   39 1   
    28   21   40 1   
    29   22   23 1   
    30   22   41 1   
    31   23   25 1   
    32   24   42 1   
    33   24   43 1   
    34   24   44 1   
    35   25   45 1   
    36   25   46 1   
    37   25   47 1   
@<TRIPOS>SUBSTRUCTURE
     1 BVL         1 TEMP              0 ****  ****    0 ROOT
