@<TRIPOS>MOLECULE
BVL
   47    46     1     0     0
SMALL
bcc


@<TRIPOS>ATOM
      1 C2          1.2820    1.6430    4.5130 c1        1 BVL      0.235000
      2 C4          0.9000    0.4400    2.3670 c2        1 BVL      0.078000
      3 C5          2.0190    0.7030    1.6740 c2        1 BVL     -0.242000
      4 C6          0.9930   -1.3310   -1.1780 cu        1 BVL     -0.122500
      5 O24         4.0430   -1.5670   -4.0570 o         1 BVL     -0.411000
      6 C9          4.4010   -0.9670   -3.0170 c2        1 BVL      0.357000
      7 C8          3.5130   -0.7690   -1.8770 c2        1 BVL     -0.258000
      8 C1          1.1040   -1.8380   -2.4130 cu        1 BVL     -0.122500
      9 C3          0.5020    1.1000    3.6010 c2        1 BVL     -0.487000
     10 O25         0.0090   -0.4900    1.8490 oh        1 BVL     -0.283000
     11 C10         5.7660   -0.4210   -2.8960 c2        1 BVL     -0.356000
     12 C11         6.7030   -0.5570   -3.9430 c2        1 BVL      0.310000
     13 O23         6.5020   -1.1820   -5.1180 oh        1 BVL     -0.242000
     14 C12         8.0260   -0.0010   -3.8290 c2        1 BVL     -0.352000
     15 C13         8.3950    0.6520   -2.6880 c2        1 BVL      0.150000
     16 O21         9.6070    1.2360   -2.4880 os        1 BVL     -0.186000
     17 C22        10.5640    1.1380   -3.5440 c3        1 BVL     -0.088000
     18 C14         7.4480    0.8230   -1.5250 c3        1 BVL     -0.066000
     19 C15         6.1200    0.2290   -1.7210 c1        1 BVL     -0.116000
     20 C16         8.0580    0.2900   -0.2640 c2        1 BVL     -0.065000
     21 C17         8.2280    1.0090    0.8070 c1        1 BVL     -0.163000
     22 C18         8.3940    1.7140    1.8960 c2        1 BVL     -0.045000
     23 C20         9.6460    2.4630    2.1750 c3        1 BVL     -0.179000
     24 C19         7.3370    1.8090    2.9370 c3        1 BVL     -0.179000
     25 H2          0.7000   -2.3520   -3.2620 ha        1 BVL      0.207500
     26 H5          2.7220    1.4830    1.9890 ha        1 BVL      0.141500
     27 H6          2.2710    0.1640    0.7500 ha        1 BVL      0.141500
     28 H8          0.4310   -1.1280   -0.2830 ha        1 BVL      0.207500
     29 H7          3.9490   -0.2350   -1.0100 ha        1 BVL      0.186000
     30 H3         -0.5970    1.1610    3.7680 ha        1 BVL      0.200000
     31 HO25       -0.3930   -0.9560    2.5940 ho        1 BVL      0.217000
     32 HO23        5.5940   -1.5480   -5.1780 ho        1 BVL      0.290000
     33 H12         8.7000   -0.1270   -4.6890 ha        1 BVL      0.160000
     34 H22        10.1790    1.6380   -4.4650 h1        1 BVL      0.094667
     35 H22A       11.4540    1.6810   -3.1360 h1        1 BVL      0.094667
     36 H22B       10.8090    0.0680   -3.7480 h1        1 BVL      0.094667
     37 H15         7.2640    1.9400   -1.4170 hc        1 BVL      0.168000
     38 H16         5.1450    0.6510    0.6000 ha        1 BVL      0.000500
     39 H16A        8.3380   -0.7770   -0.2890 ha        1 BVL      0.142000
     40 H17         4.6870    0.7200    1.0990 ha        1 BVL      0.000500
     41 H20         9.4240    3.5570    2.2520 hc        1 BVL      0.085167
     42 H20A       10.0820    2.1230    3.1470 hc        1 BVL      0.085167
     43 H20B       10.4060    2.3110    1.3700 hc        1 BVL      0.085167
     44 H19         7.1320    2.8820    3.1740 hc        1 BVL      0.085167
     45 H19A        6.3860    1.3300    2.5970 hc        1 BVL      0.085167
     46 H19B        7.6810    1.3000    3.8720 hc        1 BVL      0.085167
     47 C7          2.2580   -1.1900   -1.8490 cu        1 BVL     -0.026000
@<TRIPOS>BOND
     1    1    9 1   
     2    2    3 1   
     3    2    9 1   
     4    2   10 1   
     5    3   26 1   
     6    3   27 1   
     7    4    8 1   
     8    4   28 1   
     9    4   47 1   
    10    5    6 1   
    11    6    7 1   
    12    6   11 1   
    13    7   29 1   
    14    7   47 1   
    15    8   25 1   
    16    8   47 1   
    17    9   30 1   
    18   10   31 1   
    19   11   12 1   
    20   11   19 1   
    21   12   13 1   
    22   12   14 1   
    23   13   32 1   
    24   14   15 1   
    25   14   33 1   
    26   15   16 1   
    27   15   18 1   
    28   16   17 1   
    29   17   34 1   
    30   17   35 1   
    31   17   36 1   
    32   18   19 1   
    33   18   20 1   
    34   18   37 1   
    35   20   21 1   
    36   20   39 1   
    37   21   22 1   
    38   22   23 1   
    39   22   24 1   
    40   23   41 1   
    41   23   42 1   
    42   23   43 1   
    43   24   44 1   
    44   24   45 1   
    45   24   46 1   
    46   38   40 1   
@<TRIPOS>SUBSTRUCTURE
     1 BVL         1 TEMP              0 ****  ****    0 ROOT
