@<TRIPOS>MOLECULE
BVL
   47    48     1     0     0
SMALL
bcc


@<TRIPOS>ATOM
      1 C2          4.7270    0.9120   -1.1960 ca        1 BVL     -0.067500
      2 C4          5.9590   -0.7320    0.0600 ca        1 BVL      0.141100
      3 C5          4.8720   -0.8980    0.9310 ca        1 BVL     -0.192000
      4 C6          3.7140   -0.1550    0.7250 ca        1 BVL     -0.067500
      5 O24         0.2380    3.3480   -0.7950 o         1 BVL     -0.584100
      6 C9          0.0780    2.2050   -0.3250 c         1 BVL      0.595900
      7 C8          1.2270    1.3370   -0.0210 ce        1 BVL     -0.266200
      8 C1          3.6230    0.7550   -0.3370 ca        1 BVL     -0.119800
      9 C3          5.8890    0.1780   -1.0100 ca        1 BVL     -0.192000
     10 O25         7.1340   -1.4310    0.1960 oh        1 BVL     -0.493100
     11 C10        -1.2620    1.6720   -0.0310 ca        1 BVL     -0.287600
     12 C11        -2.3640    2.5160    0.2150 ca        1 BVL      0.231100
     13 O23        -2.3230    3.8810    0.2090 oh        1 BVL     -0.503100
     14 C12        -3.6300    1.9770    0.5210 ca        1 BVL     -0.263000
     15 C13        -3.7960    0.5950    0.5480 ca        1 BVL      0.188100
     16 O21        -4.9940   -0.0190    0.8430 os        1 BVL     -0.323900
     17 C22        -6.1090    0.8380    1.0730 c3        1 BVL      0.110700
     18 C14        -2.7140   -0.2780    0.2650 ca        1 BVL     -0.146300
     19 C15        -1.4740    0.2830   -0.0110 ca        1 BVL     -0.030000
     20 C16        -2.9020   -1.7540    0.2960 c3        1 BVL      0.007100
     21 C17        -2.1830   -2.4640   -0.7900 c2        1 BVL     -0.178200
     22 C18        -1.9020   -3.7760   -0.7580 c2        1 BVL     -0.123400
     23 C20        -1.2040   -4.4500   -1.8790 c3        1 BVL     -0.058900
     24 C19        -2.2640   -4.6410    0.3920 c3        1 BVL     -0.058900
     25 H2          4.6680    1.6290   -2.0300 ha        1 BVL      0.139000
     26 H5          4.9350   -1.6070    1.7680 ha        1 BVL      0.146000
     27 H6          2.8650   -0.2830    1.4150 ha        1 BVL      0.139000
     28 H8          1.0440    0.5250    0.6980 ha        1 BVL      0.140000
     29 H7          2.5550    2.3850   -1.2950 ha        1 BVL      0.146000
     30 H3          6.7530    0.2940   -1.6790 ha        1 BVL      0.146000
     31 HO25        7.0510   -2.0120    0.9660 ho        1 BVL      0.422000
     32 HO23       -1.4490    4.1870   -0.0860 ho        1 BVL      0.459000
     33 H12        -4.4560    2.6720    0.7250 ha        1 BVL      0.159000
     34 H22        -6.9480    0.1210    1.2620 h1        1 BVL      0.049367
     35 H22A       -5.9290    1.4810    1.9680 h1        1 BVL      0.049367
     36 H22B       -6.3170    1.4640    0.1720 h1        1 BVL      0.049367
     37 H15        -0.6330   -0.3950   -0.2400 ha        1 BVL      0.146000
     38 H16        -2.5580   -2.1360    1.3000 hc        1 BVL      0.064700
     39 H16A       -3.9990   -1.9990    0.2180 hc        1 BVL      0.064700
     40 H17        -1.9040   -1.8520   -1.6630 ha        1 BVL      0.127000
     41 H20        -0.2740   -4.9490   -1.5090 hc        1 BVL      0.041033
     42 H20A       -1.8660   -5.2350   -2.3250 hc        1 BVL      0.041033
     43 H20B       -0.9220   -3.7290   -2.6850 hc        1 BVL      0.041033
     44 H19        -3.3370   -4.4940    0.6700 hc        1 BVL      0.041033
     45 H19A       -2.1050   -5.7200    0.1520 hc        1 BVL      0.041033
     46 H19B       -1.6370   -4.3810    1.2830 hc        1 BVL      0.041033
     47 C7          2.4320    1.5480   -0.5790 cf        1 BVL     -0.014200
@<TRIPOS>BOND
     1    1    8 ar  
     2    1    9 ar  
     3    1   25 1   
     4    2    3 ar  
     5    2    9 ar  
     6    2   10 1   
     7    3    4 ar  
     8    3   26 1   
     9    4    8 ar  
    10    4   27 1   
    11    5    6 2   
    12    6    7 1   
    13    6   11 1   
    14    7   28 1   
    15    7   47 2   
    16    8   47 1   
    17    9   30 1   
    18   10   31 1   
    19   11   12 ar  
    20   11   19 ar  
    21   12   13 1   
    22   12   14 ar  
    23   13   32 1   
    24   14   15 ar  
    25   14   33 1   
    26   15   16 1   
    27   15   18 ar  
    28   16   17 1   
    29   17   34 1   
    30   17   35 1   
    31   17   36 1   
    32   18   19 ar  
    33   18   20 1   
    34   19   37 1   
    35   20   21 1   
    36   20   38 1   
    37   20   39 1   
    38   21   22 2   
    39   21   40 1   
    40   22   23 1   
    41   22   24 1   
    42   23   41 1   
    43   23   42 1   
    44   23   43 1   
    45   24   44 1   
    46   24   45 1   
    47   24   46 1   
    48   29   47 1   
@<TRIPOS>SUBSTRUCTURE
     1 BVL         1 TEMP              0 ****  ****    0 ROOT
