@<TRIPOS>MOLECULE
BVL
   47    45     1     0     0
SMALL
bcc


@<TRIPOS>ATOM
      1 C2          0.8380    0.2540    0.7670 c1        1 BVL     -0.097000
      2 C4          1.7510    0.1990    3.0380 c2        1 BVL      0.034000
      3 C5          3.0620    0.1320    2.7450 c2        1 BVL     -0.231000
      4 C6          0.9580    0.1540   -0.4820 c1        1 BVL     -0.074000
      5 O24         4.1320   -1.5050   -5.0390 o         1 BVL     -0.366000
      6 C9          4.2870   -0.8590   -3.9820 c2        1 BVL      0.426000
      7 C8          3.1710   -0.5310   -3.1560 c1        1 BVL     -0.138000
      8 C1          1.0370    0.0480   -1.7900 c2        1 BVL      0.019000
      9 C3          0.6800    0.3600    2.0660 c2        1 BVL     -0.070000
     10 O25         1.3900    0.1620    4.3780 oh        1 BVL     -0.268000
     11 C10         5.6040   -0.3850   -3.5420 c2        1 BVL     -0.367000
     12 C11         6.7450   -0.5260   -4.3650 c2        1 BVL      0.316000
     13 O23         6.7910   -1.1320   -5.5650 oh        1 BVL     -0.235000
     14 C12         8.0130    0.0090   -3.9570 c2        1 BVL     -0.358000
     15 C13         8.1370    0.6160   -2.7370 c2        1 BVL      0.162000
     16 O21         9.2740    1.1980   -2.2780 os        1 BVL     -0.181000
     17 C22        10.4260    1.1520   -3.1240 c3        1 BVL     -0.089000
     18 C14         6.9750    0.7300   -1.7780 c3        1 BVL     -0.070000
     19 C15         5.7040    0.1980   -2.2850 c1        1 BVL     -0.091000
     20 C16         7.3150    0.0720   -0.4730 c2        1 BVL     -0.071000
     21 C17         7.4830    0.7280    0.6370 c1        1 BVL     -0.162000
     22 C18         7.6490    1.3650    1.7680 c2        1 BVL     -0.040000
     23 C20         8.9760    1.8640    2.2100 c3        1 BVL     -0.181500
     24 C19         6.5160    1.6310    2.6930 c3        1 BVL     -0.181500
     25 H2          0.1300    0.2080   -2.4090 ha        1 BVL      0.157000
     26 H5          3.4190    0.2150    1.7100 ha        1 BVL      0.139000
     27 H6          3.8240    0.0080    3.5240 ha        1 BVL      0.139000
     28 H8          4.4480    1.5600    0.3030 ha        1 BVL      0.000250
     29 H7          4.7950    1.1470   -0.1100 ha        1 BVL      0.000250
     30 H3         -0.3220    0.5940    2.4750 ha        1 BVL      0.142000
     31 HO25        0.4670   -0.1200    4.4310 ho        1 BVL      0.211000
     32 HO23        5.9140   -1.4820   -5.8240 ho        1 BVL      0.286000
     33 H12         8.8530   -0.0910   -4.6600 ha        1 BVL      0.163000
     34 H22        10.2230    1.6840   -4.0840 h1        1 BVL      0.097000
     35 H22A       11.2050    1.6880   -2.5250 h1        1 BVL      0.097000
     36 H22B       10.7260    0.0930   -3.3120 h1        1 BVL      0.097000
     37 H15         6.7930    1.8400   -1.6060 hc        1 BVL      0.172000
     38 H16         5.4680   -0.9470    1.1210 ha        1 BVL      0.000250
     39 H16A        7.3920   -1.0280   -0.5060 ha        1 BVL      0.145000
     40 H17         5.0950   -1.3280    1.5410 ha        1 BVL      0.000250
     41 H20         8.9260    2.9680    2.3850 hc        1 BVL      0.087000
     42 H20A        9.2670    1.3690    3.1700 hc        1 BVL      0.087000
     43 H20B        9.7680    1.6600    1.4500 hc        1 BVL      0.087000
     44 H19         5.5690    1.1580    2.3280 hc        1 BVL      0.087000
     45 H19A        6.7510    1.2250    3.7080 hc        1 BVL      0.087000
     46 H19B        6.3530    2.7340    2.7830 hc        1 BVL      0.087000
     47 C7          2.2020   -0.2630   -2.5010 c1        1 BVL     -0.054000
@<TRIPOS>BOND
     1    1    4 1   
     2    1    9 1   
     3    2    3 1   
     4    2    9 1   
     5    2   10 1   
     6    3   26 1   
     7    3   27 1   
     8    4    8 1   
     9    5    6 1   
    10    6    7 1   
    11    6   11 1   
    12    7   47 1   
    13    8   25 1   
    14    8   47 1   
    15    9   30 1   
    16   10   31 1   
    17   11   12 1   
    18   11   19 1   
    19   12   13 1   
    20   12   14 1   
    21   13   32 1   
    22   14   15 1   
    23   14   33 1   
    24   15   16 1   
    25   15   18 1   
    26   16   17 1   
    27   17   34 1   
    28   17   35 1   
    29   17   36 1   
    30   18   19 1   
    31   18   20 1   
    32   18   37 1   
    33   20   21 1   
    34   20   39 1   
    35   21   22 1   
    36   22   23 1   
    37   22   24 1   
    38   23   41 1   
    39   23   42 1   
    40   23   43 1   
    41   24   44 1   
    42   24   45 1   
    43   24   46 1   
    44   28   29 1   
    45   38   40 1   
@<TRIPOS>SUBSTRUCTURE
     1 BVL         1 TEMP              0 ****  ****    0 ROOT
