@<TRIPOS>MOLECULE
BVP
   35    34     1     0     0
SMALL
bcc


@<TRIPOS>ATOM
      1 O3'        -3.1780    1.1270   -1.3090 oh        1 BVP     -0.650800
      2 C3'        -1.8360    1.1320   -1.3130 c3        1 BVP      0.110100
      3 C2'        -1.3090    1.1230    0.1100 c3        1 BVP     -0.122400
      4 C1'        -0.8270   -0.0990    0.2940 c3        1 BVP      0.305500
      5 O4'        -0.3930   -0.6340   -1.1400 os        1 BVP     -0.436600
      6 C4'        -1.2870   -0.1920   -1.9840 c3        1 BVP      0.060100
      7 C5'        -0.6590    0.1140   -3.2930 c3        1 BVP      0.227400
      8 O5'        -0.7460   -1.0380   -4.1460 os        1 BVP     -0.568200
      9 P          -0.2520   -0.9120   -5.6440 p5        1 BVP      1.347900
     10 O1P        -0.7820    0.3720   -6.2450 o         1 BVP     -0.923833
     11 O2P         1.2430   -0.8960   -5.6760 o         1 BVP     -0.923833
     12 O3P        -0.7710   -2.1150   -6.4600 o         1 BVP     -0.923833
     13 N1          0.2920   -0.0560    1.1570 n         1 BVP     -0.369000
     14 C6          0.0970   -0.0280    2.5780 c2        1 BVP      0.024500
     15 C5          1.2670   -0.0830    3.4890 c1        1 BVP     -0.208900
     16 C5A         1.0690    0.0740    5.0050 c1        1 BVP     -0.099000
     17 C5B         1.1560   -0.9830    5.7950 c1        1 BVP     -0.099000
     18 BR          1.5210   -2.6770    5.0610 br        1 BVP     -0.051000
     19 C4          2.6500   -0.1590    2.9220 c2        1 BVP      0.699300
     20 O4          3.6010   -0.2030    3.6590 o         1 BVP     -0.647300
     21 N3          2.8440   -0.1370    1.4980 n         1 BVP     -0.601500
     22 C2          1.6750   -0.1260    0.5930 c         1 BVP      0.760100
     23 O2          1.8350   -0.1920   -0.5870 o         1 BVP     -0.672100
     24 H3'        -3.4820    1.9570   -1.4580 ho        1 BVP      0.480000
     25 H1         -1.4910    1.9420   -1.8080 h1        1 BVP      0.147700
     26 H2'1       -2.0580    1.3070    0.7650 hc        1 BVP      0.053200
     27 H2'2       -0.6040    1.7800    0.2110 hc        1 BVP      0.053200
     28 H1'        -1.5100   -0.6690    0.6670 h2        1 BVP      0.086700
     29 H4'        -2.0280   -0.8620   -2.0960 h1        1 BVP      0.044700
     30 H5'1       -1.1320    0.8760   -3.7160 h1        1 BVP     -0.001800
     31 H5'2        0.2790    0.3470   -3.1560 h1        1 BVP     -0.001800
     32 H6         -0.7760    0.0170    2.9330 h4        1 BVP      0.309000
     33 H5A         0.8790    0.9600    5.3880 ha        1 BVP      0.134500
     34 H5B         1.0310   -0.8850    6.7520 ha        1 BVP      0.134500
     35 HN3         3.6820   -0.1810    1.1530 hn        1 BVP      0.322500
@<TRIPOS>BOND
     1    1    2 1   
     2    1   24 1   
     3    2    3 1   
     4    2    6 1   
     5    2   25 1   
     6    3    4 1   
     7    3   26 1   
     8    3   27 1   
     9    4    5 1   
    10    4   13 1   
    11    4   28 1   
    12    5    6 1   
    13    6    7 1   
    14    6   29 1   
    15    7    8 1   
    16    7   30 1   
    17    7   31 1   
    18    8    9 1   
    19    9   10 1   
    20    9   11 1   
    21    9   12 1   
    22   13   14 1   
    23   13   22 1   
    24   14   15 2   
    25   14   32 1   
    26   15   19 2   
    27   16   17 3   
    28   16   33 1   
    29   17   34 1   
    30   19   20 1   
    31   19   21 1   
    32   21   22 1   
    33   21   35 1   
    34   22   23 2   
@<TRIPOS>SUBSTRUCTURE
     1 BVP         1 TEMP              0 ****  ****    0 ROOT
