@<TRIPOS>MOLECULE
BVP
   35    36     1     0     0
SMALL
bcc


@<TRIPOS>ATOM
      1 O3'        -4.4270    1.8260   -0.3820 oh        1 BVP     -0.650800
      2 C3'        -3.0480    1.5580   -0.2640 c3        1 BVP      0.106100
      3 C2'        -2.2570    2.3370   -1.3150 c3        1 BVP     -0.120400
      4 C1'        -0.9890    2.7930   -0.5640 c3        1 BVP      0.302500
      5 O4'        -1.3040    2.8180    0.8240 os        1 BVP     -0.437600
      6 C4'        -2.4920    2.0300    1.0970 c3        1 BVP      0.061100
      7 C5'        -2.1030    0.8870    2.0660 c3        1 BVP      0.225400
      8 O5'        -3.1080   -0.0170    2.2590 os        1 BVP     -0.567200
      9 P          -3.1430   -1.4390    1.2680 p5        1 BVP      1.348900
     10 O1P        -4.2710   -1.0090    0.3630 o         1 BVP     -0.923500
     11 O2P        -1.8060   -1.3250    0.5500 o         1 BVP     -0.923500
     12 O3P        -3.3260   -2.5720    2.2180 o         1 BVP     -0.923500
     13 N1          0.1850    1.9360   -0.8290 n         1 BVP     -0.366000
     14 C6          0.1670    0.5760   -0.6000 cc        1 BVP      0.092600
     15 C5          1.2780   -0.2280   -0.7870 cd        1 BVP     -0.292200
     16 C5A         1.1330   -1.6490   -0.5320 cf        1 BVP     -0.022000
     17 C5B         2.0870   -2.5530   -0.7800 c2        1 BVP     -0.200300
     18 BR          1.9160   -4.3850   -0.4720 br        1 BVP     -0.156700
     19 C4          2.5410    0.3720   -1.2110 c         1 BVP      0.725700
     20 O4          3.6360   -0.1900   -1.4230 o         1 BVP     -0.678500
     21 N3          2.5260    1.7710   -1.4110 n         1 BVP     -0.598500
     22 C2          1.3880    2.5670   -1.2220 c         1 BVP      0.794500
     23 O2          1.4730    3.8030   -1.4420 o         1 BVP     -0.704500
     24 H3'        -4.8640    0.9880   -0.1180 ho        1 BVP      0.478000
     25 H1         -2.8780    0.4340   -0.3640 h1        1 BVP      0.151700
     26 H2'1       -2.0360    1.7020   -2.2040 hc        1 BVP      0.054200
     27 H2'2       -2.8230    3.2400   -1.6520 hc        1 BVP      0.054200
     28 H1'        -0.6890    3.8510   -0.8260 h2        1 BVP      0.088700
     29 H4'        -3.2100    2.7360    1.5900 h1        1 BVP      0.049700
     30 H5'1       -1.1660    0.3910    1.6880 h1        1 BVP     -0.002300
     31 H5'2       -1.8650    1.3830    3.0540 h1        1 BVP     -0.002300
     32 H6         -0.8130    0.0970   -0.2450 h4        1 BVP      0.314000
     33 H5A         0.1270   -1.9240   -0.1030 ha        1 BVP      0.250000
     34 H5B         3.0740   -2.3070   -1.1860 h4        1 BVP      0.149000
     35 HN3         3.3620    2.2350   -1.6830 hn        1 BVP      0.323500
@<TRIPOS>BOND
     1    1    2 1   
     2    1   24 1   
     3    2    3 1   
     4    2    6 1   
     5    2   25 1   
     6    3    4 1   
     7    3   26 1   
     8    3   27 1   
     9    4    5 1   
    10    4   13 1   
    11    4   28 1   
    12    5    6 1   
    13    6    7 1   
    14    6   29 1   
    15    7    8 1   
    16    7   30 1   
    17    7   31 1   
    18    8    9 1   
    19    9   10 1   
    20    9   11 1   
    21    9   12 1   
    22   13   14 1   
    23   13   22 1   
    24   14   15 2   
    25   14   32 1   
    26   15   16 1   
    27   15   19 1   
    28   16   17 2   
    29   16   33 1   
    30   17   18 1   
    31   17   34 1   
    32   19   20 2   
    33   19   21 1   
    34   21   22 1   
    35   21   35 1   
    36   22   23 2   
@<TRIPOS>SUBSTRUCTURE
     1 BVP         1 TEMP              0 ****  ****    0 ROOT
