@<TRIPOS>MOLECULE
BW2
   54    56     1     0     0
SMALL
bcc


@<TRIPOS>ATOM
      1 O22         3.6510   -2.1350   -0.0740 oh        1 BW2     -0.568100
      2 C22         3.0800   -0.9110   -0.1220 c         1 BW2      0.654100
      3 O23         3.7790    0.0510    0.2390 o         1 BW2     -0.632000
      4 C21         1.6590   -0.9040   -0.5930 c3        1 BW2     -0.150400
      5 C20         1.3770    0.1960   -1.5940 c3        1 BW2     -0.089400
      6 C18         0.9520    1.5340   -1.0050 c3        1 BW2     -0.014500
      7 N           1.8790    2.0010    0.0860 n4        1 BW2     -0.650800
      8 C17         1.6060    3.4240    0.4670 c         1 BW2      0.588700
      9 O17         1.5490    4.2630   -0.4200 o         1 BW2     -0.409100
     10 C11         1.4720    3.6850    1.9230 ca        1 BW2     -0.046600
     11 C12         2.5370    3.4210    2.7950 ca        1 BW2     -0.089500
     12 C13         2.3830    3.6690    4.1520 ca        1 BW2      0.004500
     13 C14         1.1730    4.1780    4.6690 ca        1 BW2     -0.459500
     14 C15         0.1360    4.4730    3.7650 ca        1 BW2      0.004500
     15 C16         0.2740    4.2230    2.3990 ca        1 BW2     -0.089500
     16 S10         1.0100    4.4550    6.2610 sy        1 BW2      1.456200
     17 O2         -0.0260    5.2980    6.6040 o         1 BW2     -0.568300
     18 O1          2.2230    4.5030    6.9290 o         1 BW2     -0.568300
     19 N9          0.3840    2.7800    6.9080 n4        1 BW2     -0.544300
     20 C6         -0.5600    2.1550    6.0050 ca        1 BW2     -0.174400
     21 C5         -0.1050    1.3940    4.9260 ca        1 BW2      0.012000
     22 C4A        -1.0140    0.9440    3.9720 ca        1 BW2     -0.271600
     23 C8A        -2.4220    1.1700    4.1050 ca        1 BW2      0.309400
     24 N1         -3.3200    0.8600    3.1330 nc        1 BW2     -0.701100
     25 C2         -2.8370    0.3030    1.9680 cd        1 BW2      0.775800
     26 N2         -3.6830    0.0950    0.9070 nh        1 BW2     -0.874800
     27 N3         -1.4960   -0.1260    1.8340 n         1 BW2     -0.470400
     28 C4         -0.5250    0.3100    2.7420 c         1 BW2      0.753100
     29 O4          0.6830    0.1680    2.4450 o         1 BW2     -0.701500
     30 C8         -2.8640    1.8240    5.3090 ca        1 BW2     -0.132000
     31 C7         -1.9630    2.3090    6.2180 ca        1 BW2     -0.063000
     32 C19        -0.5170    1.5260   -0.4540 c         1 BW2      0.923600
     33 O19        -1.3100    0.6520   -0.8810 o         1 BW2     -0.809300
     34 O20        -0.7790    2.3970    0.4210 o         1 BW2     -0.809300
     35 H211        1.0000   -0.8020    0.3160 hc        1 BW2      0.107700
     36 H212        1.4300   -1.9010   -1.0630 hc        1 BW2      0.107700
     37 H201        2.2670    0.3390   -2.2630 hc        1 BW2      0.096200
     38 H202        0.5070   -0.1290   -2.2370 hc        1 BW2      0.096200
     39 H18         0.9800    2.3140   -1.8250 hx        1 BW2      0.120700
     40 HN          2.8560    1.8950   -0.2290 hn        1 BW2      0.475800
     41 H12         3.4930    3.0210    2.4170 ha        1 BW2      0.194500
     42 H13         3.2300    3.4760    4.8390 ha        1 BW2      0.178000
     43 H15        -0.8120    4.9070    4.1390 ha        1 BW2      0.178000
     44 H16        -0.5650    4.4050    1.6970 ha        1 BW2      0.194500
     45 HN9         1.1650    2.1450    7.0760 hn        1 BW2      0.451800
     46 H5          0.9650    1.1660    4.7780 ha        1 BW2      0.154000
     47 HN21       -3.2910   -0.0170   -0.0090 hn        1 BW2      0.478300
     48 HN22        4.5670   -2.0690    0.2520 ho        1 BW2      0.461000
     49 HN3        -1.1810   -0.4590    0.9370 hn        1 BW2      0.365500
     50 H8         -3.9480    1.9440    5.4800 ha        1 BW2      0.182000
     51 H7         -2.3290    2.8310    7.1190 ha        1 BW2      0.155000
     52 HN31        1.7380    1.3870    0.9060 hn        1 BW2      0.475800
     53 H92        -0.0800    2.9250    7.8080 hn        1 BW2      0.451800
     54 H23        -4.6220    0.4170    0.9810 hn        1 BW2      0.478300
@<TRIPOS>BOND
     1    1    2 1   
     2    1   48 1   
     3    2    3 2   
     4    2    4 1   
     5    4    5 1   
     6    4   35 1   
     7    4   36 1   
     8    5    6 1   
     9    5   37 1   
    10    5   38 1   
    11    6    7 1   
    12    6   32 1   
    13    6   39 1   
    14    7    8 1   
    15    7   40 1   
    16    7   52 1   
    17    8    9 2   
    18    8   10 1   
    19   10   11 ar  
    20   10   15 ar  
    21   11   12 ar  
    22   11   41 1   
    23   12   13 ar  
    24   12   42 1   
    25   13   14 ar  
    26   13   16 1   
    27   14   15 ar  
    28   14   43 1   
    29   15   44 1   
    30   16   17 2   
    31   16   18 2   
    32   16   19 1   
    33   19   20 1   
    34   19   45 1   
    35   19   53 1   
    36   20   21 ar  
    37   20   31 ar  
    38   21   22 ar  
    39   21   46 1   
    40   22   23 ar  
    41   22   28 1   
    42   23   24 1   
    43   23   30 ar  
    44   24   25 2   
    45   25   26 1   
    46   25   27 1   
    47   26   47 1   
    48   26   54 1   
    49   27   28 1   
    50   27   49 1   
    51   28   29 2   
    52   30   31 ar  
    53   30   50 1   
    54   31   51 1   
    55   32   33 1   
    56   32   34 1   
@<TRIPOS>SUBSTRUCTURE
     1 BW2         1 TEMP              0 ****  ****    0 ROOT
