@<TRIPOS>MOLECULE
BW2
   51    46     1     0     0
SMALL
bcc


@<TRIPOS>ATOM
      1 O22         7.7610    0.6300   -6.5880 o         1 BW2     -0.606000
      2 C22         6.6030    0.2410   -6.4470 c2        1 BW2      0.324000
      3 O23         5.6710    0.7740   -7.1190 o         1 BW2     -0.606000
      4 C21         6.3040   -0.9860   -5.5430 c3        1 BW2     -0.213000
      5 C20         5.2850   -0.5810   -4.4560 c3        1 BW2     -0.130000
      6 C18         4.3140   -1.7480   -4.1950 c3        1 BW2     -0.083000
      7 N           3.0830   -1.2310   -3.8010 n         1 BW2     -0.266000
      8 C17         2.0260   -2.1220   -3.3510 c2        1 BW2      0.317000
      9 O17         1.6970   -3.0500   -4.0350 o         1 BW2     -0.378000
     10 C11         1.1960   -1.7490   -2.1430 c2        1 BW2     -0.029000
     11 C12         1.7630   -1.7550   -0.8910 c2        1 BW2     -0.130000
     12 C13         0.9850   -1.4420    0.2360 c1        1 BW2     -0.032000
     13 C14        -0.3980   -1.1180    0.0780 c1        1 BW2     -0.887000
     14 C15        -0.9650   -1.1130   -1.1770 c1        1 BW2     -0.035000
     15 C16        -0.1860   -1.4250   -2.3000 c1        1 BW2     -0.129000
     16 S10        -1.4260   -0.8450    1.5240 s4        1 BW2      2.084800
     17 O2         -1.0880   -1.7330    2.5710 o         1 BW2     -0.551400
     18 O1         -2.7430   -1.2110    1.2800 o         1 BW2     -0.551400
     19 N9         -1.3170    0.7760    2.0300 n2        1 BW2     -0.807000
     20 C6         -2.3210    1.3210    2.8800 c2        1 BW2      0.107000
     21 C5         -3.6620    1.0500    2.8410 c2        1 BW2     -0.127000
     22 C4A        -4.5460    1.5960    3.8650 c1        1 BW2     -0.130000
     23 C8A        -4.0430    2.3640    4.8450 c1        1 BW2      0.007000
     24 N1         -4.8980    2.9100    5.8110 n1        1 BW2     -0.230000
     25 C2         -6.1950    2.6700    5.7550 c1        1 BW2      0.175000
     26 N2         -7.0600    3.2530    6.7790 n3        1 BW2     -0.311000
     27 N3         -6.7160    1.8790    4.7440 n2        1 BW2     -0.345000
     28 C4         -5.9020    1.3510    3.8150 c1        1 BW2      0.352000
     29 O4         -6.3540    0.6680    2.9460 o         1 BW2     -0.342000
     30 C8         -2.6470    2.6480    4.8890 c1        1 BW2     -0.095000
     31 C7         -1.7960    2.1280    3.9100 c1        1 BW2     -0.143000
     32 C19         4.8660   -2.6200   -3.1080 c2        1 BW2      0.320000
     33 O19         6.1100   -3.0500   -3.1780 o         1 BW2     -0.588000
     34 O20         4.1520   -2.8690   -2.0550 o         1 BW2     -0.588000
     35 H211        7.1410   -1.2940   -5.1140 hc        1 BW2      0.060000
     36 H212        5.9460   -1.6800   -6.0660 hc        1 BW2      0.060000
     37 H201        5.7580   -0.3600   -3.6320 hc        1 BW2      0.094500
     38 H202        4.7910    0.1830   -4.7530 hc        1 BW2      0.094500
     39 H18         4.1980   -2.2900   -5.0430 h1        1 BW2      0.109000
     40 HN          2.9210   -0.3080   -3.8690 hn        1 BW2      0.202000
     41 H12         2.7190   -1.9790   -0.7830 ha        1 BW2      0.238000
     42 H13         1.3960   -1.4000    1.1130 ha        1 BW2      0.145000
     43 H15        -1.8570   -0.9030   -1.2800 ha        1 BW2      0.142000
     44 H16        -0.5900   -1.4220   -3.1890 ha        1 BW2      0.154000
     45 HN9        -0.6040    1.3650    1.6620 hn        1 BW2      0.249000
     46 H5         -4.0130    0.4130    2.1830 ha        1 BW2      0.182000
     47 HN21       -7.8800    2.9650    6.8730 hn        1 BW2      0.188500
     48 HN22       -6.8100    3.8670    7.1990 hn        1 BW2      0.188500
     49 HN3        -7.6080    1.7160    4.7090 hn        1 BW2      0.244000
     50 H8         -2.2780    3.2160    5.6160 ha        1 BW2      0.148000
     51 H7         -0.7840    2.3010    3.9630 ha        1 BW2      0.146000
@<TRIPOS>BOND
     1    1    2 1   
     2    2    3 1   
     3    2    4 1   
     4    4    5 1   
     5    4   35 1   
     6    4   36 1   
     7    5    6 1   
     8    5   37 1   
     9    5   38 1   
    10    6    7 1   
    11    6   32 1   
    12    6   39 1   
    13    7    8 1   
    14    7   40 1   
    15    8    9 1   
    16    8   10 1   
    17   10   11 1   
    18   10   15 1   
    19   11   12 1   
    20   11   41 1   
    21   12   42 1   
    22   13   14 1   
    23   13   16 1   
    24   14   43 1   
    25   15   44 1   
    26   16   17 1   
    27   16   18 1   
    28   19   20 1   
    29   19   45 1   
    30   20   21 1   
    31   20   31 1   
    32   21   22 1   
    33   21   46 1   
    34   22   28 1   
    35   23   24 1   
    36   23   30 1   
    37   25   26 1   
    38   25   27 1   
    39   26   47 1   
    40   26   48 1   
    41   27   49 1   
    42   28   29 1   
    43   30   50 1   
    44   31   51 1   
    45   32   33 1   
    46   32   34 1   
@<TRIPOS>SUBSTRUCTURE
     1 BW2         1 TEMP              0 ****  ****    0 ROOT
