@<TRIPOS>MOLECULE
BW2
   52    54     1     0     0
SMALL
bcc


@<TRIPOS>ATOM
      1 O22         0.0590   -1.7470   -0.0560 o         1 BW2     -0.609000
      2 C22         0.8790   -0.8280   -0.2350 c         1 BW2      0.659100
      3 O23         1.6340   -0.6210    0.8780 oh        1 BW2     -0.603100
      4 C21         1.0260   -0.0290   -1.4850 c3        1 BW2     -0.185400
      5 C20         2.3090    0.7590   -1.6370 c3        1 BW2     -0.072400
      6 C18         2.1590    2.2450   -1.2840 c3        1 BW2     -0.083300
      7 N           1.8080    2.4630    0.1090 ns        1 BW2     -0.520900
      8 C17         2.6190    3.2130    0.9400 c         1 BW2      0.640700
      9 O17         3.8440    3.3660    0.7430 o         1 BW2     -0.609100
     10 C11         1.9910    3.7360    2.2000 ca        1 BW2     -0.066600
     11 C12         2.7140    3.6420    3.3960 ca        1 BW2     -0.122500
     12 C13         2.1300    4.0470    4.5910 ca        1 BW2     -0.026000
     13 C14         0.8220    4.5500    4.6210 ca        1 BW2     -0.379500
     14 C15         0.1410    4.7060    3.4070 ca        1 BW2     -0.026000
     15 C16         0.7140    4.3040    2.2020 ca        1 BW2     -0.122500
     16 S10         0.0780    4.9180    6.0820 sy        1 BW2      1.517200
     17 O2         -1.0480    5.7300    5.8390 o         1 BW2     -0.664300
     18 O1          1.0190    5.4470    6.9970 o         1 BW2     -0.664300
     19 N9         -0.3660    3.4570    6.6500 nu        1 BW2     -0.788500
     20 C6         -0.9570    2.4440    5.8670 ca        1 BW2      0.062600
     21 C5         -0.1850    1.3880    5.3680 ca        1 BW2     -0.047000
     22 C4A        -0.7500    0.4580    4.4900 ca        1 BW2     -0.226600
     23 C8A        -2.1150    0.5350    4.1070 ca        1 BW2      0.239400
     24 N1         -2.6720   -0.3150    3.1650 nc        1 BW2     -0.711100
     25 C2         -1.8520   -1.1930    2.5440 cd        1 BW2      0.699800
     26 N2         -2.3970   -2.0820    1.5990 nv        1 BW2     -0.888800
     27 N3         -0.4820   -1.3340    2.8510 ns        1 BW2     -0.491400
     28 C4          0.1030   -0.5710    3.8740 c         1 BW2      0.721100
     29 O4          1.2860   -0.7940    4.1910 o         1 BW2     -0.627500
     30 C8         -2.9070    1.5610    4.6970 ca        1 BW2     -0.145000
     31 C7         -2.3400    2.4890    5.5450 ca        1 BW2     -0.085000
     32 C19         1.0710    2.8470   -2.2570 c         1 BW2      0.905600
     33 O19        -0.1090    2.9480   -1.8120 o         1 BW2     -0.817800
     34 O20         1.4600    3.1520   -3.4090 o         1 BW2     -0.817800
     35 H211        0.9160   -0.7450   -2.3450 hc        1 BW2      0.109200
     36 H212        0.1440    0.6820   -1.5380 hc        1 BW2      0.109200
     37 H201        2.6070    0.7410   -2.7220 hc        1 BW2      0.050700
     38 H202        3.1430    0.2890   -1.0540 hc        1 BW2      0.050700
     39 H18         3.1420    2.7530   -1.5060 h1        1 BW2      0.084700
     40 HN          0.8180    2.5860    0.2270 hn        1 BW2      0.318500
     41 H12         3.7410    3.2430    3.3740 ha        1 BW2      0.164500
     42 H13         2.7010    3.9730    5.5320 ha        1 BW2      0.151500
     43 H15        -0.8730    5.1460    3.4100 ha        1 BW2      0.151500
     44 H16         0.1530    4.4340    1.2600 ha        1 BW2      0.164500
     45 HN9        -0.1270    3.1670    7.5690 hn        1 BW2      0.451800
     46 H5          0.8830    1.2820    5.6250 ha        1 BW2      0.156000
     47 HN21       -1.7640   -2.4120    0.8990 hn        1 BW2      0.432300
     48 HN22       -3.2920   -1.8160    1.2500 hn        1 BW2      0.432300
     49 HN3         0.1220   -1.8660    2.2490 hn        1 BW2      0.366500
     50 H8         -3.9770    1.6240    4.4480 ha        1 BW2      0.151000
     51 H7         -2.9660    3.2960    5.9610 ha        1 BW2      0.147000
     52 HN31        2.2330    0.1320    0.7580 ho        1 BW2      0.462000
@<TRIPOS>BOND
     1    1    2 2   
     2    2    3 1   
     3    2    4 1   
     4    3   52 1   
     5    4    5 1   
     6    4   35 1   
     7    4   36 1   
     8    5    6 1   
     9    5   37 1   
    10    5   38 1   
    11    6    7 1   
    12    6   32 1   
    13    6   39 1   
    14    7    8 1   
    15    7   40 1   
    16    8    9 2   
    17    8   10 1   
    18   10   11 ar  
    19   10   15 ar  
    20   11   12 ar  
    21   11   41 1   
    22   12   13 ar  
    23   12   42 1   
    24   13   14 ar  
    25   13   16 1   
    26   14   15 ar  
    27   14   43 1   
    28   15   44 1   
    29   16   17 2   
    30   16   18 2   
    31   16   19 1   
    32   19   20 1   
    33   19   45 1   
    34   20   21 ar  
    35   20   31 ar  
    36   21   22 ar  
    37   21   46 1   
    38   22   23 ar  
    39   22   28 1   
    40   23   24 1   
    41   23   30 ar  
    42   24   25 2   
    43   25   26 1   
    44   25   27 1   
    45   26   47 1   
    46   26   48 1   
    47   27   28 1   
    48   27   49 1   
    49   28   29 2   
    50   30   31 ar  
    51   30   50 1   
    52   31   51 1   
    53   32   33 1   
    54   32   34 1   
@<TRIPOS>SUBSTRUCTURE
     1 BW2         1 TEMP              0 ****  ****    0 ROOT
