@<TRIPOS>MOLECULE
BW2
   51    53     1     0     0
SMALL
bcc


@<TRIPOS>ATOM
      1 O22         0.5030    4.3990   -7.4480 o         1 BW2     -0.889800
      2 C22         0.3830    3.1320   -7.5910 c         1 BW2      0.898600
      3 O23         1.2010    2.3670   -6.9900 o         1 BW2     -0.889800
      4 C21        -0.6710    2.5580   -8.5160 c3        1 BW2     -0.173400
      5 C20        -1.9970    2.3010   -7.8330 c3        1 BW2     -0.054400
      6 C18        -2.1480    0.8730   -7.2860 c3        1 BW2     -0.035300
      7 N          -1.1480    0.5710   -6.2820 n         1 BW2     -0.480900
      8 C17        -1.4500   -0.0160   -5.0980 c         1 BW2      0.644700
      9 O17        -2.6260   -0.2240   -4.6940 o         1 BW2     -0.680100
     10 C11        -0.3190   -0.3930   -4.1760 ca        1 BW2     -0.030600
     11 C12        -0.5480   -0.2910   -2.7950 ca        1 BW2     -0.121500
     12 C13         0.4510   -0.6270   -1.8930 ca        1 BW2     -0.028500
     13 C14         1.7060   -1.0760   -2.3360 ca        1 BW2     -0.404500
     14 C15         1.9060   -1.2090   -3.7170 ca        1 BW2     -0.028500
     15 C16         0.9110   -0.8700   -4.6340 ca        1 BW2     -0.121500
     16 S10         2.9190   -1.3990   -1.2390 sy        1 BW2      1.514200
     17 O2          3.8370   -2.3270   -1.7850 o         1 BW2     -0.682800
     18 O1          2.3720   -1.8060    0.0120 o         1 BW2     -0.682800
     19 N9          3.6310    0.0430   -0.9850 nh        1 BW2     -0.779500
     20 C6          3.9370    0.9390   -2.0300 ca        1 BW2      0.017600
     21 C5          3.0770    2.0000   -2.3400 ca        1 BW2     -0.029000
     22 C4A         3.2790    2.7530   -3.4980 ca        1 BW2     -0.247600
     23 C8A         4.3520    2.4680   -4.3890 ca        1 BW2      0.266400
     24 N1          4.4540    3.0410   -5.6350 nc        1 BW2     -0.747100
     25 C2          3.4020    3.8000   -6.0600 cd        1 BW2      0.749800
     26 N2          3.4150    4.2940   -7.3770 nh        1 BW2     -0.876800
     27 N3          2.3620    4.2400   -5.2150 n         1 BW2     -0.461400
     28 C4          2.2810    3.7610   -3.8980 c         1 BW2      0.723100
     29 O4          1.4090    4.2160   -3.1300 o         1 BW2     -0.653500
     30 C8          5.3070    1.4920   -3.9680 ca        1 BW2     -0.170000
     31 C7          5.0950    0.7450   -2.8320 ca        1 BW2     -0.086000
     32 C19        -2.1650   -0.1240   -8.4980 c         1 BW2      0.911600
     33 O19        -3.2300   -0.1360   -9.1800 o         1 BW2     -0.845300
     34 O20        -1.1580   -0.8430   -8.7420 o         1 BW2     -0.845300
     35 H211       -0.2870    1.5970   -8.9530 hc        1 BW2      0.049200
     36 H212       -0.8280    3.2880   -9.3530 hc        1 BW2      0.049200
     37 H201       -2.1520    3.0480   -7.0120 hc        1 BW2      0.034200
     38 H202       -2.8250    2.4280   -8.5800 hc        1 BW2      0.034200
     39 H18        -3.1650    0.7940   -6.7980 h1        1 BW2      0.065700
     40 HN         -0.1950    0.7140   -6.5620 hn        1 BW2      0.357500
     41 H12        -1.5350    0.0550   -2.4460 ha        1 BW2      0.166500
     42 H13         0.2640   -0.5470   -0.8090 ha        1 BW2      0.139000
     43 H15         2.8770   -1.5840   -4.0850 ha        1 BW2      0.139000
     44 H16         1.1040   -0.9680   -5.7160 ha        1 BW2      0.166500
     45 HN9         3.7330    0.4210   -0.0750 hn        1 BW2      0.440800
     46 H5          2.2010    2.2340   -1.7120 ha        1 BW2      0.149000
     47 HN21        3.9460    3.7250   -8.0020 hn        1 BW2      0.434300
     48 HN22        2.4920    4.5140   -7.7320 hn        1 BW2      0.434300
     49 HN3         1.5000    4.5480   -5.6630 hn        1 BW2      0.396500
     50 H8          6.1910    1.3050   -4.5940 ha        1 BW2      0.136000
     51 H7          5.8130   -0.0450   -2.5590 ha        1 BW2      0.130000
@<TRIPOS>BOND
     1    1    2 1   
     2    2    3 1   
     3    2    4 1   
     4    4    5 1   
     5    4   35 1   
     6    4   36 1   
     7    5    6 1   
     8    5   37 1   
     9    5   38 1   
    10    6    7 1   
    11    6   32 1   
    12    6   39 1   
    13    7    8 1   
    14    7   40 1   
    15    8    9 2   
    16    8   10 1   
    17   10   11 ar  
    18   10   15 ar  
    19   11   12 ar  
    20   11   41 1   
    21   12   13 ar  
    22   12   42 1   
    23   13   14 ar  
    24   13   16 1   
    25   14   15 ar  
    26   14   43 1   
    27   15   44 1   
    28   16   17 2   
    29   16   18 2   
    30   16   19 1   
    31   19   20 1   
    32   19   45 1   
    33   20   21 ar  
    34   20   31 ar  
    35   21   22 ar  
    36   21   46 1   
    37   22   23 ar  
    38   22   28 1   
    39   23   24 1   
    40   23   30 ar  
    41   24   25 2   
    42   25   26 1   
    43   25   27 1   
    44   26   47 1   
    45   26   48 1   
    46   27   28 1   
    47   27   49 1   
    48   28   29 2   
    49   30   31 ar  
    50   30   50 1   
    51   31   51 1   
    52   32   33 1   
    53   32   34 1   
@<TRIPOS>SUBSTRUCTURE
     1 BW2         1 TEMP              0 ****  ****    0 ROOT
