@<TRIPOS>MOLECULE
BWD
   22    22     1     0     0
SMALL
bcc


@<TRIPOS>ATOM
      1 N1         -0.7270   -0.4990    0.6670 n         1 BWD     -0.332000
      2 C2         -2.0830   -0.1460    0.4310 c         1 BWD      0.795500
      3 O2         -2.9510   -0.1710    1.3290 o         1 BWD     -0.633500
      4 N3         -2.4590    0.2050   -0.8780 n         1 BWD     -0.593500
      5 C4         -1.5650    0.2450   -1.9630 c         1 BWD      0.737700
      6 O4         -2.0200    0.5810   -3.0720 o         1 BWD     -0.639500
      7 C5         -0.1820   -0.1260   -1.6570 cc        1 BWD     -0.304500
      8 BR5         1.0940   -0.1520   -3.0070 br        1 BWD     -0.050700
      9 C6          0.1720   -0.4470   -0.3670 cd        1 BWD      0.138600
     10 C7         -0.2720   -0.7430    2.0330 c3        1 BWD      0.100000
     11 C8          0.4890    0.4170    2.7040 c3        1 BWD     -0.012500
     12 N8          1.5870    0.9100    1.8900 n3        1 BWD     -0.911800
     13 C9          0.9170   -0.1260    4.1200 c         1 BWD      0.897600
     14 O91         2.1440   -0.0880    4.4090 o         1 BWD     -0.822300
     15 O92        -0.0010   -0.5600    4.8620 o         1 BWD     -0.822300
     16 H3         -3.4110    0.4600   -1.0220 hn        1 BWD      0.341500
     17 H6          1.2200   -0.7020   -0.0980 h4        1 BWD      0.193000
     18 H71         0.3890   -1.6550    1.9990 h1        1 BWD      0.086700
     19 H72        -1.1700   -0.9650    2.6800 h1        1 BWD      0.086700
     20 H8         -0.2390    1.2580    2.8840 h1        1 BWD      0.053700
     21 H81         1.7740    1.8600    2.1480 hn        1 BWD      0.344800
     22 H82         2.4130    0.3790    2.1210 hn        1 BWD      0.344800
@<TRIPOS>BOND
     1    1    2 1   
     2    1    9 1   
     3    1   10 1   
     4    2    3 2   
     5    2    4 1   
     6    4    5 1   
     7    4   16 1   
     8    5    6 2   
     9    5    7 1   
    10    7    8 1   
    11    7    9 2   
    12    9   17 1   
    13   10   11 1   
    14   10   18 1   
    15   10   19 1   
    16   11   12 1   
    17   11   13 1   
    18   11   20 1   
    19   12   21 1   
    20   12   22 1   
    21   13   14 1   
    22   13   15 1   
@<TRIPOS>SUBSTRUCTURE
     1 BWD         1 TEMP              0 ****  ****    0 ROOT
