@<TRIPOS>MOLECULE
BWD
   23    23     1     0     0
SMALL
bcc


@<TRIPOS>ATOM
      1 N1         -0.3690    0.3150    0.4490 n         1 BWD     -0.378000
      2 C2          0.3040    1.3980    1.0700 c         1 BWD      0.810500
      3 O2          0.0710    2.5820    0.7150 o         1 BWD     -0.704500
      4 N3          1.2480    1.1250    2.0560 n         1 BWD     -0.575500
      5 C4          1.5870   -0.1850    2.4660 c         1 BWD      0.725700
      6 O4          2.4320   -0.3030    3.3630 o         1 BWD     -0.566500
      7 C5          0.8850   -1.2750    1.7640 cc        1 BWD     -0.240500
      8 BR5         1.2800   -3.0390    2.1810 br        1 BWD      0.010300
      9 C6         -0.0530   -0.9830    0.8140 cd        1 BWD      0.080600
     10 C7         -1.4730    0.5820   -0.4560 c3        1 BWD      0.087000
     11 C8         -1.0710    1.0080   -1.8670 c3        1 BWD     -0.111500
     12 N8         -0.6290    2.4250   -1.9620 n4        1 BWD     -0.824600
     13 C9         -2.3500    0.7700   -2.8420 c         1 BWD      0.946600
     14 O91        -2.9090   -0.3270   -2.6890 o         1 BWD     -0.747300
     15 O92        -2.5790    1.7200   -3.6270 o         1 BWD     -0.747300
     16 H3          1.6870    1.9050    2.5010 hn        1 BWD      0.360500
     17 H6         -0.6140   -1.7760    0.2750 h4        1 BWD      0.194000
     18 H71        -2.0860   -0.3650   -0.5800 h1        1 BWD      0.110700
     19 H72        -2.1340    1.3650    0.0180 h1        1 BWD      0.110700
     20 H8         -0.2560    0.3550   -2.2800 hx        1 BWD      0.097700
     21 H81        -1.0790    2.8200   -2.8150 hn        1 BWD      0.453800
     22 H82         0.3820    2.4960   -2.0290 hn        1 BWD      0.453800
     23 H83        -0.9390    2.9520   -1.1380 hn        1 BWD      0.453800
@<TRIPOS>BOND
     1    1    2 1   
     2    1    9 1   
     3    1   10 1   
     4    2    3 2   
     5    2    4 1   
     6    4    5 1   
     7    4   16 1   
     8    5    6 2   
     9    5    7 1   
    10    7    8 1   
    11    7    9 2   
    12    9   17 1   
    13   10   11 1   
    14   10   18 1   
    15   10   19 1   
    16   11   12 1   
    17   11   13 1   
    18   11   20 1   
    19   12   21 1   
    20   12   22 1   
    21   12   23 1   
    22   13   14 1   
    23   13   15 1   
@<TRIPOS>SUBSTRUCTURE
     1 BWD         1 TEMP              0 ****  ****    0 ROOT
