@<TRIPOS>MOLECULE
BWD
   22    19     1     0     0
SMALL
bcc


@<TRIPOS>ATOM
      1 N1          0.1100   -0.5600    0.3800 n2        1 BWD     -0.637900
      2 C2          1.4690   -0.6020    0.3620 c1        1 BWD      0.839900
      3 O2          2.0580   -0.7560   -0.6960 o         1 BWD     -0.591500
      4 N3          2.1720   -0.6150    1.5430 n2        1 BWD     -0.837800
      5 C4          1.5120   -0.5850    2.7270 c1        1 BWD      0.630900
      6 O4          2.1390   -0.6290    3.7780 o         1 BWD     -0.618900
      7 C5          0.1410   -0.5430    2.7470 cg        1 BWD     -0.441200
      8 BR5        -0.8050   -0.4670    4.4480 br        1 BWD      0.075000
      9 C6         -0.5570   -0.5300    1.5750 ce        1 BWD      0.583100
     10 C7         -0.6220   -0.5880   -0.8390 c3        1 BWD      0.187800
     11 C8         -0.6930    0.8190   -1.4320 c3        1 BWD     -0.012500
     12 N8         -2.0090    1.2750   -1.3840 n3        1 BWD     -0.911800
     13 C9         -0.2230    0.7830   -2.8880 c         1 BWD      0.897600
     14 O91         0.6670    1.6210   -3.3010 o         1 BWD     -0.822300
     15 O92        -0.7020   -0.0810   -3.6890 o         1 BWD     -0.822300
     16 H3          3.1120   -0.6370    1.5280 hn        1 BWD      0.499400
     17 H6         -1.5660   -0.5230    1.5870 h4        1 BWD      0.063800
     18 H71        -1.4830   -0.8960   -0.6740 h1        1 BWD      0.086700
     19 H72        -0.1800   -1.1850   -1.4710 h1        1 BWD      0.086700
     20 H8         -0.1160    1.4250   -0.9130 h1        1 BWD      0.053700
     21 H81        -2.0140    2.1260   -1.1860 hn        1 BWD      0.344800
     22 H82        -2.4080    1.1480   -2.2010 hn        1 BWD      0.344800
@<TRIPOS>BOND
     1    1    9 2   
     2    1   10 1   
     3    2    3 2   
     4    2    4 2   
     5    4   16 1   
     6    5    6 1   
     7    5    7 3   
     8    7    9 1   
     9    9   17 1   
    10   10   11 1   
    11   10   18 1   
    12   10   19 1   
    13   11   12 1   
    14   11   13 1   
    15   11   20 1   
    16   12   21 1   
    17   12   22 1   
    18   13   14 1   
    19   13   15 1   
@<TRIPOS>SUBSTRUCTURE
     1 BWD         1 TEMP              0 ****  ****    0 ROOT
