@<TRIPOS>MOLECULE
BWD
   23    23     1     0     0
SMALL
bcc


@<TRIPOS>ATOM
      1 N1         -0.3910    0.3580    0.4710 n         1 BWD     -0.378000
      2 C2          0.3610    1.4280    1.0200 c         1 BWD      0.810500
      3 O2          0.2110    2.6000    0.5890 o         1 BWD     -0.704500
      4 N3          1.2880    1.1510    2.0210 ns        1 BWD     -0.575500
      5 C4          1.5350   -0.1500    2.5140 c         1 BWD      0.725700
      6 O4          2.3740   -0.2710    3.4160 o         1 BWD     -0.566500
      7 C5          0.7530   -1.2300    1.8850 cc        1 BWD     -0.240500
      8 Br5         1.0230   -2.9880    2.4150 br        1 BWD      0.010300
      9 C6         -0.1670   -0.9320    0.9190 cd        1 BWD      0.080600
     10 C7         -1.4780    0.6450   -0.4480 c3        1 BWD      0.087000
     11 C8         -1.0550    0.9490   -1.8850 c3        1 BWD     -0.111500
     12 N8         -0.5130    2.3210   -2.0710 nz        1 BWD     -0.824600
     13 C9         -2.3530    0.7410   -2.8410 c         1 BWD      0.946600
     14 O91        -2.9880   -0.3010   -2.6160 o         1 BWD     -0.747300
     15 O92        -2.5180    1.6520   -3.6850 o         1 BWD     -0.747300
     16 H3          1.7850    1.9250    2.4140 hn        1 BWD      0.360500
     17 H6         -0.7860   -1.7170    0.4330 h4        1 BWD      0.194000
     18 H71        -2.1590   -0.2610   -0.5100 h1        1 BWD      0.110700
     19 H72        -2.0780    1.5030   -0.0250 h1        1 BWD      0.110700
     20 H8         -0.2910    0.2130   -2.2550 hx        1 BWD      0.097700
     21 H81        -0.7790    2.9210   -1.2830 hn        1 BWD      0.453800
     22 H82        -0.9390    2.6920   -2.9480 hn        1 BWD      0.453800
     23 H83         0.5000    2.3150   -2.1430 hn        1 BWD      0.453800
@<TRIPOS>BOND
     1    1    2 1   
     2    1    9 1   
     3    1   10 1   
     4    2    3 2   
     5    2    4 1   
     6    4    5 1   
     7    4   16 1   
     8    5    6 2   
     9    5    7 1   
    10    7    8 1   
    11    7    9 2   
    12    9   17 1   
    13   10   11 1   
    14   10   18 1   
    15   10   19 1   
    16   11   12 1   
    17   11   13 1   
    18   11   20 1   
    19   12   21 1   
    20   12   22 1   
    21   12   23 1   
    22   13   14 1   
    23   13   15 1   
@<TRIPOS>SUBSTRUCTURE
     1 BWD         1 TEMP              0 ****  ****    0 ROOT
