@<TRIPOS>MOLECULE
BWG
   36    35     1     0     0
SMALL
bcc


@<TRIPOS>ATOM
      1 C1          0.6030    0.8370   -0.4210 c3        1 BWG      0.093000
      2 N1          0.2030   -0.4380   -0.0250 n3        1 BWG     -0.268000
      3 C2          2.1140    0.9100   -0.3830 c3        1 BWG     -0.022000
      4 O2          2.5360    2.1390   -1.0060 oh        1 BWG     -0.317000
      5 C3          2.6450    0.8660    1.0010 c3        1 BWG     -0.042000
      6 O3          4.0740    1.1230    0.9630 oh        1 BWG     -0.320000
      7 C4          1.9970    1.8780    1.8860 c3        1 BWG     -0.026000
      8 O4          2.4280    1.6560    3.2350 oh        1 BWG     -0.318000
      9 C5          0.4810    1.8020    1.8370 c3        1 BWG     -0.022000
     10 O5         -0.0380    1.8400    0.4690 os        1 BWG     -0.295000
     11 C6         -0.0860    2.9550    2.6020 c3        1 BWG     -0.007000
     12 O6         -1.4870    2.9830    2.4410 oh        1 BWG     -0.320000
     13 C13        -0.8060   -1.1220   -0.7500 c2        1 BWG     -0.154000
     14 S14        -0.7200   -2.5690   -1.2790 ss        1 BWG      0.563000
     15 C15        -2.8990   -1.7300   -1.8300 c1        1 BWG     -0.056000
     16 C16        -2.0540   -2.8940   -1.9440 c1        1 BWG     -0.507000
     17 N17        -2.1000   -0.6120   -1.0720 n2        1 BWG     -0.166000
     18 C18        -2.4560   -4.2320   -2.5240 c1        1 BWG      0.307000
     19 O19        -1.6820   -5.1680   -2.4840 o         1 BWG     -0.300000
     20 C20        -3.8000   -4.3900   -3.2000 c3        1 BWG     -0.260000
     21 H1          0.3020    0.9910   -1.3380 h2        1 BWG      0.176000
     22 HN1         0.6050   -0.8410    0.6880 hn        1 BWG      0.207000
     23 H2          2.4800    0.1560   -0.8870 h1        1 BWG      0.153000
     24 HO2         2.8330    1.9690   -1.8270 ho        1 BWG      0.215000
     25 H3          2.4920   -0.0250    1.3720 h1        1 BWG      0.130000
     26 HO3         4.4780    0.4830    0.4950 ho        1 BWG      0.220000
     27 H4          2.2790    2.7710    1.6060 h1        1 BWG      0.087000
     28 HO4         2.8750    2.3680    3.5250 ho        1 BWG      0.224000
     29 H5          0.1930    0.9700    2.2600 h1        1 BWG      0.104000
     30 H6          0.1310    2.8550    3.5520 h1        1 BWG      0.103000
     31 H6A         0.2980    3.7910    2.2650 h1        1 BWG      0.103000
     32 HO6        -1.8360    3.5980    2.9790 ho        1 BWG      0.213000
     33 H15        -3.8120   -1.6510   -2.1680 DU        1 BWG      0.185000
     34 H20        -4.5080   -4.3830   -2.5230 hc        1 BWG      0.105667
     35 H20A       -3.8220   -5.2390   -3.6880 hc        1 BWG      0.105667
     36 H20B       -3.9390   -3.6490   -3.8260 hc        1 BWG      0.105667
@<TRIPOS>BOND
     1    1    2 1   
     2    1    3 1   
     3    1   10 1   
     4    1   21 1   
     5    2   13 1   
     6    2   22 1   
     7    3    4 1   
     8    3    5 1   
     9    3   23 1   
    10    4   24 1   
    11    5    6 1   
    12    5    7 1   
    13    5   25 1   
    14    6   26 1   
    15    7    8 1   
    16    7    9 1   
    17    7   27 1   
    18    8   28 1   
    19    9   10 1   
    20    9   11 1   
    21    9   29 1   
    22   11   12 1   
    23   11   30 1   
    24   11   31 1   
    25   12   32 1   
    26   13   14 1   
    27   13   17 1   
    28   14   16 1   
    29   15   16 1   
    30   15   17 1   
    31   18   19 1   
    32   18   20 1   
    33   20   34 1   
    34   20   35 1   
    35   20   36 1   
@<TRIPOS>SUBSTRUCTURE
     1 BWG         1 TEMP              0 ****  ****    0 ROOT
