@<TRIPOS>MOLECULE
BWG
   36    37     1     0     0
SMALL
bcc


@<TRIPOS>ATOM
      1 C1          1.0530   -0.6370   -0.7740 c3        1 BWG      0.366300
      2 N1         -0.0350   -0.7510    0.1840 nh        1 BWG     -0.831900
      3 C2          2.1550   -1.6970   -0.4810 c3        1 BWG      0.090100
      4 O2          3.0330   -1.7970   -1.5900 oh        1 BWG     -0.598800
      5 C3          3.0210   -1.2850    0.7160 c3        1 BWG      0.110100
      6 O3          4.1030   -2.1720    0.9060 oh        1 BWG     -0.593800
      7 C4          3.5430    0.1490    0.5240 c3        1 BWG      0.088100
      8 O4          4.2070    0.5970    1.6930 oh        1 BWG     -0.594800
      9 C5          2.3730    1.1060    0.2720 c3        1 BWG      0.097100
     10 O5          1.6030    0.6790   -0.8520 os        1 BWG     -0.423600
     11 C6          2.8810    2.5070   -0.0920 c3        1 BWG      0.142400
     12 O6          1.8160    3.4250   -0.1780 oh        1 BWG     -0.594800
     13 C13        -1.3270   -0.3900   -0.1810 cc        1 BWG      0.654300
     14 S14        -2.5660   -0.2290    1.0400 ss        1 BWG     -0.112300
     15 C15        -3.1410    0.0010   -1.4140 cd        1 BWG      0.444200
     16 C16        -3.7300    0.0410   -0.1500 cc        1 BWG     -0.322000
     17 N17        -1.7900   -0.2370   -1.4480 nd        1 BWG     -0.705000
     18 C18        -5.1440    0.2870    0.0910 c         1 BWG      0.616700
     19 O19        -5.9340    0.5280   -0.8300 o         1 BWG     -0.534100
     20 C20        -5.5930    0.2170    1.5180 c3        1 BWG     -0.198100
     21 H1          0.6620   -0.7980   -1.8280 h2        1 BWG      0.123700
     22 HN1         0.2080   -0.4660    1.1110 hn        1 BWG      0.414800
     23 H2          1.6830   -2.7000   -0.2850 h1        1 BWG      0.074700
     24 HO2         2.5060   -2.0680   -2.3520 ho        1 BWG      0.420000
     25 H3          2.4230   -1.3590    1.6670 h1        1 BWG      0.088700
     26 HO3         4.5600   -2.2620    0.0580 ho        1 BWG      0.424000
     27 H4          4.2540    0.1690   -0.3500 h1        1 BWG      0.067700
     28 HO4         4.8140   -0.1110    1.9510 ho        1 BWG      0.422000
     29 H5          1.7230    1.1710    1.1860 h1        1 BWG      0.056700
     30 H6          3.5390    2.8820    0.7380 h1        1 BWG      0.066200
     31 H6A         3.4510    2.4670   -1.0580 h1        1 BWG      0.066200
     32 HO6         1.2400    3.1250   -0.8940 ho        1 BWG      0.412000
     33 H15        -3.6830    0.1500   -2.3610 h4        1 BWG      0.065100
     34 H20        -4.7710    0.5080    2.2160 hc        1 BWG      0.066033
     35 H20A       -6.4660    0.8960    1.6800 hc        1 BWG      0.066033
     36 H20B       -5.9120   -0.8300    1.7480 hc        1 BWG      0.066033
@<TRIPOS>BOND
     1    1    2 1   
     2    1    3 1   
     3    1   10 1   
     4    1   21 1   
     5    2   13 1   
     6    2   22 1   
     7    3    4 1   
     8    3    5 1   
     9    3   23 1   
    10    4   24 1   
    11    5    6 1   
    12    5    7 1   
    13    5   25 1   
    14    6   26 1   
    15    7    8 1   
    16    7    9 1   
    17    7   27 1   
    18    8   28 1   
    19    9   10 1   
    20    9   11 1   
    21    9   29 1   
    22   11   12 1   
    23   11   30 1   
    24   11   31 1   
    25   12   32 1   
    26   13   14 1   
    27   13   17 2   
    28   14   16 1   
    29   15   16 2   
    30   15   17 1   
    31   15   33 1   
    32   16   18 1   
    33   18   19 2   
    34   18   20 1   
    35   20   34 1   
    36   20   35 1   
    37   20   36 1   
@<TRIPOS>SUBSTRUCTURE
     1 BWG         1 TEMP              0 ****  ****    0 ROOT
