@<TRIPOS>MOLECULE
BWG
   37    38     1     0     0
SMALL
bcc


@<TRIPOS>ATOM
      1 C1         -0.5860   -0.0850    0.7310 c3        1 BWG      0.343300
      2 N1         -0.7730   -1.4990    1.3210 n4        1 BWG     -0.754700
      3 C2          0.7360    0.0350   -0.0690 c3        1 BWG      0.120100
      4 O2          0.4780    1.0940   -0.9710 oh        1 BWG     -0.583800
      5 C3          1.9360    0.3340    0.8410 c3        1 BWG      0.106100
      6 O3          2.9800    0.7290   -0.0250 oh        1 BWG     -0.590800
      7 C4          1.5950    1.4610    1.8340 c3        1 BWG      0.079100
      8 O4          2.7350    1.5910    2.6610 oh        1 BWG     -0.585800
      9 C5          0.3760    1.0290    2.6550 c3        1 BWG      0.091100
     10 O5         -0.7550    0.8100    1.7880 os        1 BWG     -0.372600
     11 C6         -0.0970    2.1020    3.6400 c3        1 BWG      0.138400
     12 O6         -0.8920    1.4230    4.5960 oh        1 BWG     -0.608800
     13 C13        -1.4990   -2.3770    0.4250 cc        1 BWG      0.328300
     14 S14        -3.1670   -2.7100    0.5450 ss        1 BWG      0.181700
     15 C15        -1.7750   -3.7670   -1.2790 cd        1 BWG      0.411200
     16 C16        -3.0900   -3.7100   -0.7700 cc        1 BWG     -0.285000
     17 N17        -0.8640   -3.0120   -0.6050 nd        1 BWG     -0.594000
     18 C18        -4.2120   -4.4590   -1.3650 c         1 BWG      0.600700
     19 O19        -4.0310   -5.1790   -2.3480 o         1 BWG     -0.464100
     20 C20        -5.5400   -4.2870   -0.7080 c3        1 BWG     -0.198100
     21 H1         -1.4640    0.1210    0.0370 hx        1 BWG      0.161700
     22 HN1        -1.2970   -1.4070    2.2030 hn        1 BWG      0.464800
     23 H2          0.9400   -0.9070   -0.6560 h1        1 BWG      0.096700
     24 HO2         1.3200    1.3120   -1.4050 ho        1 BWG      0.461000
     25 H3          2.2390   -0.5900    1.4090 h1        1 BWG      0.056700
     26 HO3         3.7290    0.9900    0.5320 ho        1 BWG      0.450000
     27 H4          1.3750    2.4100    1.2720 h1        1 BWG      0.092700
     28 HO4         2.7310    2.4850    3.0290 ho        1 BWG      0.430000
     29 H5          0.6010    0.0810    3.2180 h1        1 BWG      0.068700
     30 H6         -0.6970    2.8880    3.1100 h1        1 BWG      0.058700
     31 H6A         0.8000    2.5630    4.1350 h1        1 BWG      0.058700
     32 HO6        -1.2270    2.0890    5.2100 ho        1 BWG      0.430000
     33 H15        -1.4640   -4.3650   -2.1530 h4        1 BWG      0.102100
     34 H20        -5.9200   -5.2840   -0.3640 hc        1 BWG      0.080033
     35 H20A       -5.4910   -3.5960    0.1700 hc        1 BWG      0.080033
     36 H20B       -6.2740   -3.8790   -1.4500 hc        1 BWG      0.080033
     37 H12         0.1500   -1.9040    1.5290 hn        1 BWG      0.464800
@<TRIPOS>BOND
     1    1    2 1   
     2    1    3 1   
     3    1   10 1   
     4    1   21 1   
     5    2   13 1   
     6    2   22 1   
     7    2   37 1   
     8    3    4 1   
     9    3    5 1   
    10    3   23 1   
    11    4   24 1   
    12    5    6 1   
    13    5    7 1   
    14    5   25 1   
    15    6   26 1   
    16    7    8 1   
    17    7    9 1   
    18    7   27 1   
    19    8   28 1   
    20    9   10 1   
    21    9   11 1   
    22    9   29 1   
    23   11   12 1   
    24   11   30 1   
    25   11   31 1   
    26   12   32 1   
    27   13   14 1   
    28   13   17 2   
    29   14   16 1   
    30   15   16 2   
    31   15   17 1   
    32   15   33 1   
    33   16   18 1   
    34   18   19 2   
    35   18   20 1   
    36   20   34 1   
    37   20   35 1   
    38   20   36 1   
@<TRIPOS>SUBSTRUCTURE
     1 BWG         1 TEMP              0 ****  ****    0 ROOT
