@<TRIPOS>MOLECULE
BWG
   36    37     1     0     0
SMALL
bcc


@<TRIPOS>ATOM
      1 C1          0.1200   -0.1140    0.1050 c3        1 BWG      0.366300
      2 N1         -0.3850   -1.4150    0.5150 nu        1 BWG     -0.831900
      3 C2          1.6750   -0.0870    0.1620 c3        1 BWG      0.090100
      4 O2          2.1620    1.0460   -0.5380 oh        1 BWG     -0.598800
      5 C3          2.1780    0.0510    1.6040 c3        1 BWG      0.110100
      6 O3          3.5810    0.2100    1.6540 oh        1 BWG     -0.593800
      7 C4          1.4900    1.2400    2.2940 c3        1 BWG      0.088100
      8 O4          1.8240    1.2780    3.6710 oh        1 BWG     -0.594800
      9 C5         -0.0330    1.0930    2.2020 c3        1 BWG      0.097100
     10 O5         -0.4480    0.9710    0.8410 os        1 BWG     -0.423600
     11 C6         -0.7380    2.3490    2.7300 c3        1 BWG      0.142400
     12 O6         -2.1330    2.1600    2.7860 oh        1 BWG     -0.594800
     13 C13        -1.5880   -1.8900    0.0040 cc        1 BWG      0.654300
     14 S14        -2.3470   -3.2910    0.7190 ss        1 BWG     -0.112300
     15 C15        -3.3140   -2.2260   -1.3640 cd        1 BWG      0.444200
     16 C16        -3.5340   -3.2810   -0.4780 cc        1 BWG     -0.322000
     17 N17        -2.2250   -1.4320   -1.1040 nd        1 BWG     -0.705000
     18 C18        -4.6380   -4.2240   -0.5820 c         1 BWG      0.616700
     19 O19        -5.5050   -4.1270   -1.4600 o         1 BWG     -0.534100
     20 C20        -4.6580   -5.3310    0.4260 c3        1 BWG     -0.198100
     21 H1         -0.2110    0.1150   -0.9570 h2        1 BWG      0.123700
     22 HN1        -0.2650   -1.6090    1.4890 hn        1 BWG      0.414800
     23 H2          2.0950   -1.0230   -0.3020 h1        1 BWG      0.074700
     24 HO2         1.8650    0.9690   -1.4540 ho        1 BWG      0.420000
     25 H3          1.9810   -0.9000    2.1730 h1        1 BWG      0.088700
     26 HO3         3.8150    0.9270    1.0480 ho        1 BWG      0.424000
     27 H4          1.8160    2.1970    1.7960 h1        1 BWG      0.067700
     28 HO4         2.7850    1.1770    3.7220 ho        1 BWG      0.422000
     29 H5         -0.3710    0.1990    2.7920 h1        1 BWG      0.056700
     30 H6         -0.4130    2.5290    3.7900 h1        1 BWG      0.066200
     31 H6A        -0.4810    3.2300    2.0860 h1        1 BWG      0.066200
     32 HO6        -2.4360    2.0120    1.8810 ho        1 BWG      0.412000
     33 H15        -3.9490   -1.9960   -2.2320 h4        1 BWG      0.065100
     34 H20        -4.1840   -5.0130    1.3870 hc        1 BWG      0.066033
     35 H20A       -5.7110   -5.6500    0.6270 hc        1 BWG      0.066033
     36 H20B       -4.0960   -6.2070    0.0170 hc        1 BWG      0.066033
@<TRIPOS>BOND
     1    1    2 1   
     2    1    3 1   
     3    1   10 1   
     4    1   21 1   
     5    2   13 1   
     6    2   22 1   
     7    3    4 1   
     8    3    5 1   
     9    3   23 1   
    10    4   24 1   
    11    5    6 1   
    12    5    7 1   
    13    5   25 1   
    14    6   26 1   
    15    7    8 1   
    16    7    9 1   
    17    7   27 1   
    18    8   28 1   
    19    9   10 1   
    20    9   11 1   
    21    9   29 1   
    22   11   12 1   
    23   11   30 1   
    24   11   31 1   
    25   12   32 1   
    26   13   14 1   
    27   13   17 2   
    28   14   16 1   
    29   15   16 2   
    30   15   17 1   
    31   15   33 1   
    32   16   18 1   
    33   18   19 2   
    34   18   20 1   
    35   20   34 1   
    36   20   35 1   
    37   20   36 1   
@<TRIPOS>SUBSTRUCTURE
     1 BWG         1 TEMP              0 ****  ****    0 ROOT
