@<TRIPOS>MOLECULE
BWG
   36    37     1     0     0
SMALL
bcc


@<TRIPOS>ATOM
      1 C1          0.2080   -0.1920    0.0110 c3        1 BWG      0.363300
      2 N1         -0.3160   -1.4710    0.4480 nh        1 BWG     -0.826900
      3 C2          1.7570   -0.1420    0.1270 c3        1 BWG      0.089100
      4 O2          2.2530    0.9450   -0.6290 oh        1 BWG     -0.588800
      5 C3          2.1980   -0.0130    1.5900 c3        1 BWG      0.069100
      6 O3          3.5960    0.1660    1.6970 oh        1 BWG     -0.592800
      7 C4          1.4790    1.1630    2.2750 c3        1 BWG      0.085100
      8 O4          1.7150    1.1440    3.6720 oh        1 BWG     -0.590800
      9 C5         -0.0370    1.0590    2.0720 c3        1 BWG      0.089100
     10 O5         -0.3500    0.9430    0.6840 os        1 BWG     -0.437600
     11 C6         -0.7430    2.3360    2.5470 c3        1 BWG      0.143400
     12 O6         -2.1430    2.1800    2.5210 oh        1 BWG     -0.592800
     13 C13        -1.5720   -1.8900    0.0170 cc        1 BWG      0.647300
     14 S14        -2.2660   -3.3550    0.6640 ss        1 BWG     -0.105300
     15 C15        -3.4360   -2.0840   -1.1870 cd        1 BWG      0.441200
     16 C16        -3.5750   -3.2210   -0.3900 cc        1 BWG     -0.320000
     17 N17        -2.3150   -1.3220   -0.9650 nd        1 BWG     -0.696000
     18 C18        -4.6980   -4.1430   -0.4650 c         1 BWG      0.615700
     19 O19        -5.6550   -3.9520   -1.2260 o         1 BWG     -0.532100
     20 C20        -4.6250   -5.3480    0.4220 c3        1 BWG     -0.198100
     21 H1         -0.0830   -0.0040   -1.0710 h2        1 BWG      0.138700
     22 HN1        -0.1390   -1.6810    1.4100 hn        1 BWG      0.413800
     23 H2          2.2290   -1.0500   -0.3430 h1        1 BWG      0.113700
     24 HO2         1.7150    1.7210   -0.4170 ho        1 BWG      0.416000
     25 H3          1.9910   -0.9670    2.1520 h1        1 BWG      0.089700
     26 HO3         3.8650    0.7840    1.0010 ho        1 BWG      0.422000
     27 H4          1.8610    2.1330    1.8460 h1        1 BWG      0.047700
     28 HO4         2.6690    1.0290    3.7870 ho        1 BWG      0.425000
     29 H5         -0.4430    0.1790    2.6410 h1        1 BWG      0.063700
     30 H6         -0.4290    3.2050    1.9110 h1        1 BWG      0.064200
     31 H6A        -0.4780    2.5190    3.6230 h1        1 BWG      0.064200
     32 HO6        -2.3940    2.0100    1.6030 ho        1 BWG      0.414000
     33 H15        -4.1560   -1.7670   -1.9560 h4        1 BWG      0.066100
     34 H20        -4.0420   -5.1320    1.3510 hc        1 BWG      0.066700
     35 H20A       -4.1250   -6.1790   -0.1340 hc        1 BWG      0.066700
     36 H20B       -5.6530   -5.6800    0.7060 hc        1 BWG      0.066700
@<TRIPOS>BOND
     1    1    2 1   
     2    1    3 1   
     3    1   10 1   
     4    1   21 1   
     5    2   13 1   
     6    2   22 1   
     7    3    4 1   
     8    3    5 1   
     9    3   23 1   
    10    4   24 1   
    11    5    6 1   
    12    5    7 1   
    13    5   25 1   
    14    6   26 1   
    15    7    8 1   
    16    7    9 1   
    17    7   27 1   
    18    8   28 1   
    19    9   10 1   
    20    9   11 1   
    21    9   29 1   
    22   11   12 1   
    23   11   30 1   
    24   11   31 1   
    25   12   32 1   
    26   13   14 1   
    27   13   17 2   
    28   14   16 1   
    29   15   16 2   
    30   15   17 1   
    31   15   33 1   
    32   16   18 1   
    33   18   19 2   
    34   18   20 1   
    35   20   34 1   
    36   20   35 1   
    37   20   36 1   
@<TRIPOS>SUBSTRUCTURE
     1 BWG         1 TEMP              0 ****  ****    0 ROOT
