@<TRIPOS>MOLECULE
BWP
   53    46     1     0     0
SMALL
bcc


@<TRIPOS>ATOM
      1 C22         4.2250    1.1330    1.0310 c3        1 BWP      0.090400
      2 N1         -2.3360   -2.3010    0.1130 n1        1 BWP     -0.571800
      3 C2         -3.0830   -3.3800   -0.0700 c1        1 BWP      0.086500
      4 C6         -2.7740   -1.0770   -0.3380 c1        1 BWP      0.565600
      5 C4         -4.7230   -2.0790   -1.1530 c1        1 BWP      0.565600
      6 C3         -4.2970   -3.2740   -0.7130 c1        1 BWP     -0.107200
      7 N5         -3.9570   -0.9760   -0.9640 n1        1 BWP     -0.571800
      8 C11        -9.6760   -1.0140   -0.3010 c1        1 BWP     -0.063333
      9 C10        -8.8470   -0.0070   -0.8120 c1        1 BWP     -0.063333
     10 C9         -7.6200   -0.3250   -1.3250 c1        1 BWP     -0.063333
     11 C8         -7.1940   -1.6480   -1.3410 c1        1 BWP      0.085300
     12 C12        -9.2610   -2.3130   -0.3150 c1        1 BWP     -0.063333
     13 C17         1.6690    0.0760   -0.6710 c1        1 BWP     -0.118500
     14 C16         0.2880    0.0640   -0.9200 c1        1 BWP     -0.088500
     15 C13        -8.0100   -2.6390   -0.8380 c1        1 BWP     -0.088500
     16 C15        -0.5910   -0.0720    0.1210 c1        1 BWP      0.085300
     17 C18         2.1400   -0.0480    0.6280 c1        1 BWP      0.081600
     18 C19         1.2490   -0.1850    1.6790 c1        1 BWP     -0.063333
     19 C20        -0.1050   -0.1980    1.4400 c1        1 BWP     -0.063333
     20 O21         3.5740   -0.1400    0.8770 os        1 BWP     -0.326400
     21 N7         -5.9240   -1.9950   -1.9610 n3        1 BWP     -0.541900
     22 N14        -2.0180    0.0500   -0.1130 n3        1 BWP     -0.541900
     23 BR         -5.2960   -4.8060   -1.0810 br        1 BWP     -0.132800
     24 C23         5.6870    0.9730    0.7820 c3        1 BWP      0.117100
     25 C24         6.4010    2.3290    1.0150 c3        1 BWP      0.175800
     26 N25         7.6800    2.3010    0.4230 n3        1 BWP     -0.739600
     27 C26         7.8160    3.4230   -0.4740 c3        1 BWP      0.155100
     28 C27         8.6620    2.3860    1.4330 c3        1 BWP      0.155100
     29 O28         5.8880    0.5560   -0.5380 oh        1 BWP     -0.608800
     30 H221        3.8550    1.7700    0.3890 h1        1 BWP      0.062200
     31 H222        4.0910    1.4450    1.8840 h1        1 BWP      0.062200
     32 H2         -2.7750   -4.2450    0.2480 ha        1 BWP      0.121500
     33 H11       -10.5180   -0.7950    0.0510 ha        1 BWP      0.084833
     34 H10        -9.1370    0.8980   -0.8020 ha        1 BWP      0.084833
     35 H9         -7.0110    0.4180   -1.6990 ha        1 BWP      0.084833
     36 H12        -9.8330   -3.0070    0.0370 ha        1 BWP      0.084833
     37 H17         2.2780    0.1690   -1.3870 ha        1 BWP      0.100500
     38 H16        -0.0510    0.1530   -1.8500 ha        1 BWP      0.080500
     39 H13        -7.7160   -3.5620   -0.8490 ha        1 BWP      0.080500
     40 H19         1.5970   -0.2770    2.6290 ha        1 BWP      0.084833
     41 H20        -0.7310   -0.2960    2.1840 ha        1 BWP      0.084833
     42 H7         -5.8660   -2.0820   -2.9130 hn        1 BWP      0.431800
     43 H14        -2.4350    0.8700   -0.0010 hn        1 BWP      0.431800
     44 H23         6.0450    0.3150    1.3840 h1        1 BWP      0.068700
     45 H241        5.8880    3.0290    0.6250 h1        1 BWP      0.041200
     46 H242        6.4920    2.4910    1.9980 h1        1 BWP      0.041200
     47 H261        7.7590    4.2750    0.0460 h1        1 BWP      0.034200
     48 H262        7.1060    3.3980   -1.1300 h1        1 BWP      0.034200
     49 H263        8.6720    3.3750   -0.9230 h1        1 BWP      0.034200
     50 H271        9.5910    2.3280    1.0120 h1        1 BWP      0.034200
     51 H272        8.5370    1.6060    2.1020 h1        1 BWP      0.034200
     52 H273        8.5700    3.2410    1.9060 h1        1 BWP      0.034200
     53 H28         6.0270   -0.3280   -0.5550 ho        1 BWP      0.414000
@<TRIPOS>BOND
     1    1   20 1   
     2    1   24 1   
     3    1   30 1   
     4    1   31 1   
     5    2    4 3   
     6    3    6 3   
     7    3   32 1   
     8    4   22 1   
     9    5    7 3   
    10    5   21 1   
    11    6   23 1   
    12    8   12 3   
    13    8   33 1   
    14    9   10 3   
    15    9   34 1   
    16   10   35 1   
    17   11   15 3   
    18   11   21 1   
    19   12   36 1   
    20   13   17 3   
    21   13   37 1   
    22   14   16 3   
    23   14   38 1   
    24   15   39 1   
    25   16   22 1   
    26   17   20 1   
    27   18   19 3   
    28   18   40 1   
    29   19   41 1   
    30   21   42 1   
    31   22   43 1   
    32   24   25 1   
    33   24   29 1   
    34   24   44 1   
    35   25   26 1   
    36   25   45 1   
    37   25   46 1   
    38   26   27 1   
    39   26   28 1   
    40   27   47 1   
    41   27   48 1   
    42   27   49 1   
    43   28   50 1   
    44   28   51 1   
    45   28   52 1   
    46   29   53 1   
@<TRIPOS>SUBSTRUCTURE
     1 BWP         1 TEMP              0 ****  ****    0 ROOT
