@<TRIPOS>MOLECULE
BWP
   56    56     1     0     0
SMALL
bcc


@<TRIPOS>ATOM
      1 C22         0.1450    0.2260    0.6590 c3        1 BWP     -0.067000
      2 N1         -6.1090   -1.0080   -3.2000 n3        1 BWP     -0.124000
      3 C2         -6.8800   -2.0230   -3.6260 c1        1 BWP      0.035000
      4 C6         -6.6610   -0.0130   -2.3820 c2        1 BWP      0.049000
      5 C4         -8.7930   -0.9810   -2.4910 c2        1 BWP      0.188000
      6 C3         -8.2600   -2.0440   -3.2670 c2        1 BWP     -0.331000
      7 N5         -7.9530    0.0330   -2.0130 n2        1 BWP     -0.235000
      8 C11       -13.6960    0.0880   -0.7580 c1        1 BWP      0.541000
      9 C10       -13.1670    0.8360   -1.8010 c2        1 BWP     -0.483000
     10 C9        -11.8580    0.8270   -2.1970 c2        1 BWP      0.168000
     11 C8        -10.8390    0.0180   -1.4050 c3        1 BWP      0.022000
     12 C12       -12.3110   -1.6970   -0.2260 c2        1 BWP     -0.084000
     13 C17        -2.3290   -0.3840   -2.0450 c3        1 BWP     -0.179000
     14 C16        -3.6960   -0.0370   -2.3380 c1        1 BWP     -0.130000
     15 C13       -11.5530   -0.5800   -0.2130 c2        1 BWP     -0.252000
     16 C15        -4.4570    0.7260   -1.4440 c2        1 BWP     -0.262000
     17 C18        -1.8150    0.1140   -0.7340 c2        1 BWP      0.189000
     18 C19        -2.6200    0.8160    0.1420 c2        1 BWP     -0.304000
     19 C20        -3.9570    1.1200   -0.2000 c2        1 BWP      0.119000
     20 O21        -0.5100   -0.2100   -0.5430 os        1 BWP     -0.170000
     21 N7        -10.1640   -0.9260   -2.2520 n3        1 BWP     -0.311000
     22 BR         -9.2520   -3.4780   -3.8830 br        1 BWP      0.198000
     23 C23         1.5770   -0.2190    0.5560 c2        1 BWP      0.298000
     24 C24         2.5340    0.0760    1.6850 c3        1 BWP     -0.125000
     25 N25         3.8540   -0.4230    1.3970 n3        1 BWP     -0.314000
     26 C26         4.8560    0.6110    1.2140 c3        1 BWP     -0.138000
     27 C27         4.2830   -1.5090    2.2580 c3        1 BWP     -0.138000
     28 O28         1.8930   -0.8460   -0.5370 oh        1 BWP     -0.083000
     29 H221       -0.3340   -0.2560    1.5590 h1        1 BWP      0.176500
     30 H222        0.1060    1.3490    0.7440 h1        1 BWP      0.176500
     31 H2         -5.1170   -0.9700   -3.4480 hn        1 BWP      0.336000
     32 H9        -11.4950    1.4080   -3.0670 ha        1 BWP      0.201000
     33 H12       -12.4850   -2.3170   -1.1220 ha        1 BWP      0.174000
     34 H17        -2.2170   -1.5170   -2.1020 hc        1 BWP      0.234000
     35 H16        -1.6690   -0.0100   -2.8970 hc        1 BWP      0.234000
     36 H13       -11.3590   -0.0490    0.7400 ha        1 BWP      0.185000
     37 H19        -4.5640    1.6720    0.5440 ha        1 BWP      0.175000
     38 H20        -2.2490    1.1580    1.1230 ha        1 BWP      0.178000
     39 H7        -10.1000    0.7880   -1.0040 h1        1 BWP      0.181000
     40 H23         0.3360   -1.2940   -2.3470 ha        1 BWP      0.004000
     41 H241        0.9420   -1.5550   -2.5070 ha        1 BWP      0.004000
     42 H242        2.5140    1.2020    1.8370 h1        1 BWP      0.174500
     43 H261        5.0820    1.1680    2.1630 h1        1 BWP      0.110333
     44 H262        5.8020    0.1210    0.8540 h1        1 BWP      0.110333
     45 H263        4.5070    1.3380    0.4340 h1        1 BWP      0.110333
     46 H271        4.4460   -1.1810    3.3200 h1        1 BWP      0.110333
     47 H272        5.2520   -1.9130    1.8560 h1        1 BWP      0.110333
     48 H273        3.5160   -2.3270    2.2400 h1        1 BWP      0.110333
     49 H28         2.8550   -1.1270   -0.5700 ho        1 BWP      0.347000
     50 H11       -12.7780   -2.0850    0.7000 ha        1 BWP      0.174000
     51 H72       -10.6560   -1.7790   -2.4400 hn        1 BWP      0.266000
     52 H251        2.0830   -0.3900    2.6180 h1        1 BWP      0.174500
     53 N14        -5.8000    1.1260   -1.8860 n4        1 BWP      0.069000
     54 H10       -13.9090    1.4740   -2.3530 ha        1 BWP      0.259000
     55 H14        -6.2860    1.6220   -1.1260 hn        1 BWP      0.268000
     56 H142       -5.6840    1.7680   -2.6880 hn        1 BWP      0.268000
@<TRIPOS>BOND
     1    1   20 1   
     2    1   23 1   
     3    1   29 1   
     4    1   30 1   
     5    2    3 1   
     6    2    4 1   
     7    2   31 1   
     8    3    6 1   
     9    4    7 1   
    10    4   53 1   
    11    5    6 1   
    12    5    7 1   
    13    5   21 1   
    14    6   22 1   
    15    8    9 1   
    16    9   10 1   
    17    9   54 1   
    18   10   11 1   
    19   10   32 1   
    20   11   15 1   
    21   11   21 1   
    22   11   39 1   
    23   12   15 1   
    24   12   33 1   
    25   12   50 1   
    26   13   14 1   
    27   13   17 1   
    28   13   34 1   
    29   13   35 1   
    30   14   16 1   
    31   15   36 1   
    32   16   19 1   
    33   16   53 1   
    34   17   18 1   
    35   17   20 1   
    36   18   19 1   
    37   18   38 1   
    38   19   37 1   
    39   21   51 1   
    40   23   24 1   
    41   23   28 1   
    42   24   25 1   
    43   24   42 1   
    44   24   52 1   
    45   25   26 1   
    46   25   27 1   
    47   26   43 1   
    48   26   44 1   
    49   26   45 1   
    50   27   46 1   
    51   27   47 1   
    52   27   48 1   
    53   28   49 1   
    54   40   41 1   
    55   53   55 1   
    56   53   56 1   
@<TRIPOS>SUBSTRUCTURE
     1 BWP         1 TEMP              0 ****  ****    0 ROOT
