@<TRIPOS>MOLECULE
BWP
   54    55     1     0     0
SMALL
bcc


@<TRIPOS>ATOM
      1 C22         0.3980   -2.4260    1.3110 c3        1 BWP      0.006000
      2 N1         -5.1920   -1.4830   -2.5180 n3        1 BWP     -0.179000
      3 C2         -5.4730   -1.1960   -3.8070 c1        1 BWP     -0.066000
      4 C6         -6.0880   -1.1430   -1.4880 c2        1 BWP      0.190000
      5 C4         -7.6100   -0.2560   -3.0550 c2        1 BWP      0.230000
      6 C3         -6.7010   -0.5650   -4.1080 c2        1 BWP     -0.411000
      7 N5         -7.2760   -0.5280   -1.7310 n2        1 BWP     -0.286000
      8 C11       -11.6650    1.8100   -0.4730 c1        1 BWP     -0.074000
      9 C10       -11.1700    2.5910   -1.5540 c2        1 BWP     -0.222000
     10 C9        -10.2630    2.1150   -2.4490 c2        1 BWP     -0.035000
     11 C8         -9.7640    0.7470   -2.3500 c2        1 BWP     -0.012000
     12 C12       -11.2170    0.4270   -0.3720 c3        1 BWP     -0.212000
     13 C17        -2.1380   -2.2710    0.0770 c3        1 BWP     -0.194000
     14 C16        -3.4590   -2.0250   -0.4620 c1        1 BWP     -0.123000
     15 C13       -10.2390   -0.0680   -1.3630 c2        1 BWP     -0.111000
     16 C15        -4.5200   -1.5790    0.3810 c2        1 BWP     -0.033000
     17 C18        -1.9210   -1.8730    1.4870 c2        1 BWP      0.006000
     18 C19        -2.9590   -1.4670    2.2760 c2        1 BWP     -0.171000
     19 C20        -4.2700   -1.3330    1.7280 c2        1 BWP     -0.061000
     20 O21        -0.6630   -1.8760    2.0710 os        1 BWP     -0.191000
     21 N7         -8.8380    0.3160   -3.3260 n3        1 BWP     -0.261000
     22 BR         -7.0460   -0.1870   -5.8920 br        1 BWP      0.085000
     23 C23         0.9540   -1.4190    0.3250 c2        1 BWP      0.108000
     24 C24         1.1240   -0.1190    0.6700 c2        1 BWP     -0.352000
     25 N25         1.6020    0.9500   -0.1940 n4        1 BWP      0.063000
     26 C26         0.9800    2.2500    0.1960 c3        1 BWP     -0.186000
     27 C27         3.0890    1.0480   -0.1540 c3        1 BWP     -0.186000
     28 O28         1.2110   -2.0130   -0.8700 oh        1 BWP     -0.213000
     29 H221        0.0980   -3.3640    0.7700 h1        1 BWP      0.153000
     30 H222        1.1900   -2.6590    2.0810 h1        1 BWP      0.153000
     31 H2         -4.3280   -1.9530   -2.2830 hn        1 BWP      0.302000
     32 H9         -9.8830    2.7500   -3.2680 ha        1 BWP      0.135000
     33 H12       -12.1490   -0.2170   -0.4130 hc        1 BWP      0.167500
     34 H17        -2.0000   -3.3970   -0.0300 hc        1 BWP      0.174000
     35 H16        -1.3760   -1.7950   -0.6070 hc        1 BWP      0.174000
     36 H13        -9.9110   -1.1140   -1.2610 ha        1 BWP      0.147000
     37 H19        -5.0680   -1.0170    2.4220 ha        1 BWP      0.158000
     38 H20        -2.8040   -1.2180    3.3370 ha        1 BWP      0.168000
     39 H7         -8.9910    0.6330   -4.2610 hn        1 BWP      0.258000
     40 H23        -0.5190   -0.7020   -2.6570 ha        1 BWP      0.002500
     41 H241       -0.1140   -0.4060   -2.1990 ha        1 BWP      0.002500
     42 H242        0.8750    0.2080    1.6990 hx        1 BWP      0.220000
     43 H261        1.3120    2.5300    1.2310 hx        1 BWP      0.146500
     44 H262       -0.1380    2.1440    0.1760 hx        1 BWP      0.146500
     45 H263        1.3050    3.0390   -0.5330 hx        1 BWP      0.146500
     46 H271        3.4230    1.8810   -0.8290 hx        1 BWP      0.146500
     47 H272        3.5310    0.0740   -0.4960 hx        1 BWP      0.146500
     48 H273        3.4210    1.2570    0.8980 hx        1 BWP      0.146500
     49 H28         1.7040   -1.4260   -1.4640 ho        1 BWP      0.231000
     50 H11       -10.8000    0.2890    0.6700 hc        1 BWP      0.167500
     51 H251        1.3130    0.7500   -1.1640 hn        1 BWP      0.236000
     52 N14        -5.8210   -1.4610   -0.1310 n3        1 BWP     -0.235000
     53 H10       -11.5470    3.6240   -1.6400 ha        1 BWP      0.153000
     54 H14        -6.5150   -1.1550    0.5230 hn        1 BWP      0.245000
@<TRIPOS>BOND
     1    1   20 1   
     2    1   23 1   
     3    1   29 1   
     4    1   30 1   
     5    2    3 1   
     6    2    4 1   
     7    2   31 1   
     8    3    6 1   
     9    4    7 1   
    10    4   52 1   
    11    5    6 1   
    12    5    7 1   
    13    5   21 1   
    14    6   22 1   
    15    8    9 1   
    16    8   12 1   
    17    9   10 1   
    18    9   53 1   
    19   10   11 1   
    20   10   32 1   
    21   11   15 1   
    22   11   21 1   
    23   12   15 1   
    24   12   33 1   
    25   12   50 1   
    26   13   14 1   
    27   13   17 1   
    28   13   34 1   
    29   13   35 1   
    30   14   16 1   
    31   15   36 1   
    32   16   19 1   
    33   16   52 1   
    34   17   18 1   
    35   17   20 1   
    36   18   19 1   
    37   18   38 1   
    38   19   37 1   
    39   21   39 1   
    40   23   24 1   
    41   23   28 1   
    42   24   25 1   
    43   24   42 1   
    44   25   26 1   
    45   25   27 1   
    46   25   51 1   
    47   26   43 1   
    48   26   44 1   
    49   26   45 1   
    50   27   46 1   
    51   27   47 1   
    52   27   48 1   
    53   28   49 1   
    54   40   41 1   
    55   52   54 1   
@<TRIPOS>SUBSTRUCTURE
     1 BWP         1 TEMP              0 ****  ****    0 ROOT
