@<TRIPOS>MOLECULE
BWP
   53    55     1     0     0
SMALL
bcc


@<TRIPOS>ATOM
      1 C22         1.3650   -0.4190    5.9700 c3        1 BWP      0.094400
      2 N1         -0.8910    0.8250   -0.8720 nb        1 BWP     -0.759000
      3 C2         -1.4860    1.5860   -1.7950 ca        1 BWP      0.515200
      4 C6          0.2220    0.1060   -1.3010 ca        1 BWP      0.911900
      5 C4          0.1160    0.9470   -3.4930 ca        1 BWP      0.749200
      6 C3         -1.0570    1.6970   -3.1300 ca        1 BWP     -0.391500
      7 N5          0.7540    0.1560   -2.5770 nb        1 BWP     -0.805000
      8 C11         3.7670   -1.2010   -6.4530 ca        1 BWP     -0.139000
      9 C10         2.5380   -1.1070   -7.1030 ca        1 BWP     -0.116000
     10 C9          1.4940   -0.3810   -6.5390 ca        1 BWP     -0.138500
     11 C8          1.6740    0.2780   -5.3020 ca        1 BWP      0.138600
     12 C12         3.9530   -0.5530   -5.2330 ca        1 BWP     -0.116000
     13 C17        -0.6890   -0.8080    2.9810 ca        1 BWP     -0.170500
     14 C16        -0.5710   -0.8470    1.6000 ca        1 BWP     -0.097000
     15 C13         2.9240    0.1870   -4.6560 ca        1 BWP     -0.138500
     16 C15         0.6920   -0.6890    0.9860 ca        1 BWP      0.091600
     17 C18         0.4550   -0.6190    3.7780 ca        1 BWP      0.123100
     18 C19         1.7130   -0.4690    3.1860 ca        1 BWP     -0.170500
     19 C20         1.8270   -0.4980    1.7990 ca        1 BWP     -0.097000
     20 O21         0.2150   -0.5980    5.1380 os        1 BWP     -0.329900
     21 N7          0.6280    1.0740   -4.7820 nh        1 BWP     -0.730300
     22 BR         -1.9860    2.7770   -4.3180 br        1 BWP     -0.066100
     23 C23         0.8550   -0.4950    7.4180 c3        1 BWP      0.140100
     24 C24         0.0130    0.7520    7.7280 c3        1 BWP      0.134800
     25 N25        -0.3210    0.9360    9.1320 n3        1 BWP     -0.739600
     26 C26        -1.1680    2.0920    9.3320 c3        1 BWP      0.152100
     27 C27        -0.8250   -0.2540    9.7790 c3        1 BWP      0.152100
     28 O28         1.9680   -0.6700    8.2720 oh        1 BWP     -0.589800
     29 H221        2.1050   -1.2420    5.7890 h1        1 BWP      0.049200
     30 H222        1.8390    0.5740    5.7560 h1        1 BWP      0.049200
     31 H2         -2.3720    2.1480   -1.4380 h4        1 BWP      0.038100
     32 H10         2.3850   -1.6140   -8.0680 ha        1 BWP      0.134000
     33 H9          0.5300   -0.3230   -7.0680 ha        1 BWP      0.141500
     34 H12         4.9220   -0.6210   -4.7180 ha        1 BWP      0.134000
     35 H17        -1.6700   -0.9270    3.4640 ha        1 BWP      0.146500
     36 H16        -1.4740   -1.0010    0.9880 ha        1 BWP      0.146000
     37 H13         3.0980    0.6970   -3.6960 ha        1 BWP      0.141500
     38 H19         2.6160   -0.3240    3.7960 ha        1 BWP      0.146500
     39 H20         2.8240   -0.3750    1.3470 ha        1 BWP      0.146000
     40 H7         -0.0170    1.4210   -5.4620 hn        1 BWP      0.446800
     41 H23         0.2400   -1.4310    7.5460 h1        1 BWP      0.086700
     42 H241       -0.9050    0.6920    7.0720 h1        1 BWP      0.045700
     43 H242        0.5970    1.6650    7.4150 h1        1 BWP      0.045700
     44 H261       -1.2920    2.2600   10.4330 h1        1 BWP      0.034867
     45 H262       -0.6720    2.9920    8.8840 h1        1 BWP      0.034867
     46 H263       -2.1880    1.9800    8.8700 h1        1 BWP      0.034867
     47 H271       -0.0100   -1.0260    9.7860 h1        1 BWP      0.034867
     48 H272       -1.0950   -0.0090   10.8390 h1        1 BWP      0.034867
     49 H273       -1.7310   -0.6860    9.2710 h1        1 BWP      0.034867
     50 H28         2.3040    0.2040    8.5040 ho        1 BWP      0.412000
     51 N14         0.8400   -0.7990   -0.4190 nh        1 BWP     -0.702300
     52 H11         4.5860   -1.7820   -6.9010 ha        1 BWP      0.134000
     53 H14         1.7360   -1.1330   -0.7140 hn        1 BWP      0.441800
@<TRIPOS>BOND
     1    1   20 1   
     2    1   23 1   
     3    1   29 1   
     4    1   30 1   
     5    2    3 ar  
     6    2    4 ar  
     7    3    6 ar  
     8    3   31 1   
     9    4    7 ar  
    10    4   51 1   
    11    5    6 ar  
    12    5    7 ar  
    13    5   21 1   
    14    6   22 1   
    15    8    9 ar  
    16    8   12 ar  
    17    8   52 1   
    18    9   10 ar  
    19    9   32 1   
    20   10   11 ar  
    21   10   33 1   
    22   11   15 ar  
    23   11   21 1   
    24   12   15 ar  
    25   12   34 1   
    26   13   14 ar  
    27   13   17 ar  
    28   13   35 1   
    29   14   16 ar  
    30   14   36 1   
    31   15   37 1   
    32   16   19 ar  
    33   16   51 1   
    34   17   18 ar  
    35   17   20 1   
    36   18   19 ar  
    37   18   38 1   
    38   19   39 1   
    39   21   40 1   
    40   23   24 1   
    41   23   28 1   
    42   23   41 1   
    43   24   25 1   
    44   24   42 1   
    45   24   43 1   
    46   25   26 1   
    47   25   27 1   
    48   26   44 1   
    49   26   45 1   
    50   26   46 1   
    51   27   47 1   
    52   27   48 1   
    53   27   49 1   
    54   28   50 1   
    55   51   53 1   
@<TRIPOS>SUBSTRUCTURE
     1 BWP         1 TEMP              0 ****  ****    0 ROOT
