@<TRIPOS>MOLECULE
BWP
   54    54     1     0     0
SMALL
bcc


@<TRIPOS>ATOM
      1 C22         0.2410   -0.8780    3.0880 c3        1 BWP     -0.092000
      2 N1         -4.7830   -2.3640   -2.3340 n7        1 BWP     -0.182000
      3 C2         -5.0210   -2.4460   -3.6600 c1        1 BWP     -0.071000
      4 C6         -5.6370   -1.6310   -1.4890 c2        1 BWP      0.183000
      5 C4         -7.0580   -1.1260   -3.3020 c2        1 BWP      0.231000
      6 C3         -6.1720   -1.8140   -4.1810 c2        1 BWP     -0.412000
      7 N5         -6.7500   -1.0050   -1.9480 n2        1 BWP     -0.278000
      8 C11       -11.0530    1.7010   -1.6130 ca        1 BWP     -0.135000
      9 C10       -10.5480    2.1680   -2.8250 ca        1 BWP     -0.116500
     10 C9         -9.6000    1.4300   -3.5270 ca        1 BWP     -0.138500
     11 C8         -9.1450    0.1930   -3.0160 ca        1 BWP      0.053000
     12 C12       -10.6120    0.4810   -1.1060 ca        1 BWP     -0.116500
     13 C17        -1.8130   -2.5530    0.5000 c3        1 BWP     -0.171000
     14 C16        -3.0930   -2.3750   -0.1500 c1        1 BWP     -0.126000
     15 C13        -9.6700   -0.2790   -1.7960 ca        1 BWP     -0.138500
     16 C15        -4.0930   -1.5430    0.4380 c2        1 BWP     -0.046000
     17 C18        -1.5100   -1.6150    1.6180 c2        1 BWP      0.041000
     18 C19        -2.4780   -0.8110    2.1400 c2        1 BWP     -0.241000
     19 C20        -3.7860   -0.7920    1.5670 c2        1 BWP     -0.050000
     20 O21        -0.1940   -1.6930    2.0020 os        1 BWP     -0.205000
     21 N7         -8.2280   -0.5670   -3.7750 nu        1 BWP     -0.253000
     22 Br         -6.4560   -1.9480   -6.0100 br        1 BWP      0.085000
     23 C23         0.6740    0.4900    2.6150 c2        1 BWP      0.253000
     24 C24         1.0400    1.4520    3.6880 c3        1 BWP     -0.281000
     25 N25         0.8660    0.8250   -1.4570 n7        1 BWP     -0.086000
     26 C26         1.1130    1.4280   -2.7510 c3        1 BWP     -0.162000
     27 C27         0.6950   -0.4420   -1.2480 c2        1 BWP      0.072000
     28 O28         0.7310    0.7650    1.4070 o         1 BWP     -0.388000
     29 H221       -0.5350   -0.8000    3.8940 h1        1 BWP      0.147000
     30 H222        1.1390   -1.4330    3.4870 h1        1 BWP      0.147000
     31 H2         -3.9890   -2.8440   -1.9340 hn        1 BWP      0.299000
     32 H9         -9.2150    1.8150   -4.4840 ha        1 BWP      0.142500
     33 H12       -11.8020    2.2900   -1.0630 ha        1 BWP      0.139000
     34 H17        -1.8410   -3.6160    0.9120 hc        1 BWP      0.176000
     35 H16        -0.9860   -2.5500   -0.2630 hc        1 BWP      0.176000
     36 H13        -9.3490   -1.2470   -1.3840 ha        1 BWP      0.142500
     37 H19        -4.5330   -0.1400    2.0540 ha        1 BWP      0.156000
     38 H20        -2.2930   -0.1410    2.9920 ha        1 BWP      0.148000
     39 H7         -8.3250   -0.5140   -4.7680 hn        1 BWP      0.258000
     40 H23        -1.5370   -1.0190   -2.0430 ha        1 BWP      0.002500
     41 H241       -2.0810   -1.3860   -2.2240 ha        1 BWP      0.002500
     42 H242        1.5800    2.3370    3.2680 hc        1 BWP      0.127333
     43 H261        1.6910    0.9570    4.4510 hc        1 BWP      0.127333
     44 H262        0.2900    2.1640   -2.9710 h1        1 BWP      0.147333
     45 H263        1.1420    0.6510   -3.5610 h1        1 BWP      0.147333
     46 H271        2.0970    1.9720   -2.7170 h1        1 BWP      0.147333
     47 H272        0.5020   -0.8110   -0.2080 h4        1 BWP      0.210000
     48 H273        0.7370   -1.1770   -2.0810 h4        1 BWP      0.210000
     49 H28         0.8290    1.4720   -0.6730 hn        1 BWP      0.302000
     50 H11       -11.0170    0.1020   -0.1550 ha        1 BWP      0.137000
     51 H251        0.1100    1.8130    4.1970 hc        1 BWP      0.127333
     52 N14        -5.3960   -1.5380   -0.0900 n7        1 BWP     -0.229000
     53 H10       -10.8990    3.1270   -3.2350 ha        1 BWP      0.137000
     54 H14        -6.0550   -0.9730    0.4110 hn        1 BWP      0.242000
@<TRIPOS>BOND
     1    1   20 1   
     2    1   23 1   
     3    1   29 1   
     4    1   30 1   
     5    2    3 1   
     6    2    4 1   
     7    2   31 1   
     8    3    6 1   
     9    4    7 1   
    10    4   52 1   
    11    5    6 1   
    12    5    7 1   
    13    5   21 1   
    14    6   22 1   
    15    8    9 1   
    16    8   12 1   
    17    8   33 1   
    18    9   10 1   
    19    9   53 1   
    20   10   11 1   
    21   10   32 1   
    22   11   15 1   
    23   11   21 1   
    24   12   15 1   
    25   12   50 1   
    26   13   14 1   
    27   13   17 1   
    28   13   34 1   
    29   13   35 1   
    30   14   16 1   
    31   15   36 1   
    32   16   19 1   
    33   16   52 1   
    34   17   18 1   
    35   17   20 1   
    36   18   19 1   
    37   18   38 1   
    38   19   37 1   
    39   21   39 1   
    40   23   24 1   
    41   23   28 1   
    42   24   42 1   
    43   24   43 1   
    44   24   51 1   
    45   25   26 1   
    46   25   27 1   
    47   25   49 1   
    48   26   44 1   
    49   26   45 1   
    50   26   46 1   
    51   27   47 1   
    52   27   48 1   
    53   40   41 1   
    54   52   54 1   
@<TRIPOS>SUBSTRUCTURE
     1 BWP         1 TEMP              0 ****  ****    0 ROOT
