@<TRIPOS>MOLECULE
BX1
   52    54     1     0     0
SMALL
bcc


@<TRIPOS>ATOM
      1 C01        -0.2070    0.6780   -0.0450 c3        1 BX1      0.107700
      2 O02         1.2160    0.6700   -0.0610 os        1 BX1     -0.308900
      3 C03         1.8390    0.3760    1.1320 ca        1 BX1      0.130100
      4 C04         1.1740    0.2220    2.3520 ca        1 BX1     -0.184500
      5 C05         1.9140   -0.0460    3.5110 cp        1 BX1     -0.136500
      6 C06         1.2130   -0.2160    4.7920 cp        1 BX1      0.462500
      7 C07        -0.0940   -0.8350    4.8020 ca        1 BX1      0.276900
      8 N08        -0.7780   -1.0240    5.9240 nb        1 BX1     -0.611000
      9 C09        -0.1760   -0.6160    7.0840 ca        1 BX1      0.228900
     10 N10        -0.9340   -0.7770    8.3310 n4        1 BX1     -0.788300
     11 C11         1.1470   -0.0340    7.1240 ca        1 BX1      0.612900
     12 N12         1.6670    0.3740    8.3760 nh        1 BX1     -0.752300
     13 C13         2.2030   -0.7480    9.1670 c3        1 BX1      0.163300
     14 C14         2.6350   -0.3210   10.5680 c3        1 BX1     -0.053400
     15 C15         3.6290    0.8190   10.4840 c3        1 BX1     -0.209700
     16 C16         4.9520    0.3840    9.7850 c         1 BX1      0.912600
     17 O17         5.8170    1.2770    9.5960 o         1 BX1     -0.827300
     18 O18         5.0680   -0.8240    9.4250 o         1 BX1     -0.827300
     19 C19         3.0160    1.9760    9.7200 c3        1 BX1     -0.053400
     20 C20         2.5860    1.5210    8.3260 c3        1 BX1      0.163300
     21 N21         1.8010    0.1770    5.9330 nb        1 BX1     -0.646000
     22 C22         3.3070   -0.1500    3.4640 ca        1 BX1     -0.184500
     23 C23         3.9730   -0.0090    2.2380 ca        1 BX1      0.130100
     24 O24         5.3380   -0.0980    2.0920 os        1 BX1     -0.308900
     25 C25         6.0950   -0.3090    3.2850 c3        1 BX1      0.107700
     26 C26         3.2470    0.2440    1.0550 ca        1 BX1      0.080100
     27 O27         3.8350    0.2540   -0.1920 os        1 BX1     -0.308900
     28 C28         4.7410    1.3390   -0.4100 c3        1 BX1      0.113700
     29 H011       -0.6080   -0.3090    0.2900 h1        1 BX1      0.052367
     30 H012       -0.4730    0.8690   -1.1160 h1        1 BX1      0.052367
     31 H013       -0.5880    1.5000    0.6080 h1        1 BX1      0.052367
     32 H04         0.0830    0.3360    2.4060 ha        1 BX1      0.156500
     33 H22         3.8810   -0.3460    4.3840 ha        1 BX1      0.156500
     34 H07        -0.5660   -1.1850    3.8660 h4        1 BX1      0.059100
     35 H101       -0.5470   -1.5710    8.8560 hn        1 BX1      0.464800
     36 H102       -0.8190    0.0790    8.8900 hn        1 BX1      0.464800
     37 H131        1.4160   -1.5490    9.2410 h1        1 BX1      0.060700
     38 H132        3.1230   -1.1880    8.6630 h1        1 BX1      0.060700
     39 H201        2.0520    2.3570    7.7970 h1        1 BX1      0.060700
     40 H202        3.5260    1.2620    7.7530 h1        1 BX1      0.060700
     41 H141        1.7470   -0.0290   11.1840 hc        1 BX1      0.045450
     42 H142        3.1340   -1.2080   11.0430 hc        1 BX1      0.045450
     43 H15         3.9010    1.1560   11.5190 hc        1 BX1      0.062700
     44 H191        2.1450    2.4050   10.2770 hc        1 BX1      0.045450
     45 H192        3.7930    2.7760    9.5890 hc        1 BX1      0.045450
     46 H251        7.1520   -0.3200    2.9130 h1        1 BX1      0.052367
     47 H252        5.8310   -1.2900    3.7480 h1        1 BX1      0.052367
     48 H253        5.9380    0.5270    4.0080 h1        1 BX1      0.052367
     49 H281        4.2040    2.3140   -0.3260 h1        1 BX1      0.048367
     50 H282        5.0960    1.1680   -1.4570 h1        1 BX1      0.048367
     51 H283        5.5910    1.2920    0.3130 h1        1 BX1      0.048367
     52 H103       -1.9270   -0.9410    8.1420 hn        1 BX1      0.464800
@<TRIPOS>BOND
     1    1    2 1   
     2    1   29 1   
     3    1   30 1   
     4    1   31 1   
     5    2    3 1   
     6    3    4 ar  
     7    3   26 ar  
     8    4    5 ar  
     9    4   32 1   
    10    5    6 1   
    11    5   22 ar  
    12    6    7 ar  
    13    6   21 ar  
    14    7    8 ar  
    15    7   34 1   
    16    8    9 ar  
    17    9   10 1   
    18    9   11 ar  
    19   10   35 1   
    20   10   36 1   
    21   10   52 1   
    22   11   12 1   
    23   11   21 ar  
    24   12   13 1   
    25   12   20 1   
    26   13   14 1   
    27   13   37 1   
    28   13   38 1   
    29   14   15 1   
    30   14   41 1   
    31   14   42 1   
    32   15   16 1   
    33   15   19 1   
    34   15   43 1   
    35   16   17 1   
    36   16   18 1   
    37   19   20 1   
    38   19   44 1   
    39   19   45 1   
    40   20   39 1   
    41   20   40 1   
    42   22   23 ar  
    43   22   33 1   
    44   23   24 1   
    45   23   26 ar  
    46   24   25 1   
    47   25   46 1   
    48   25   47 1   
    49   25   48 1   
    50   26   27 1   
    51   27   28 1   
    52   28   49 1   
    53   28   50 1   
    54   28   51 1   
@<TRIPOS>SUBSTRUCTURE
     1 BX1         1 TEMP              0 ****  ****    0 ROOT
