@<TRIPOS>MOLECULE
BX1
   51    53     1     0     0
SMALL
bcc


@<TRIPOS>ATOM
      1 C01        -0.1490    0.7640   -0.0350 c3        1 BX1      0.110700
      2 O02         1.2710    0.7100   -0.0510 os        1 BX1     -0.321400
      3 C03         1.8770    0.3620    1.1420 ca        1 BX1      0.131100
      4 C04         1.1940    0.2120    2.3530 ca        1 BX1     -0.207500
      5 C05         1.9030   -0.1190    3.5150 cp        1 BX1     -0.055500
      6 C06         1.1790   -0.2880    4.7840 cp        1 BX1      0.292500
      7 C07        -0.1280   -0.8300    4.7920 ca        1 BX1      0.311900
      8 N08        -0.8350   -1.0190    5.9200 nb        1 BX1     -0.724000
      9 C09        -0.2350   -0.6860    7.1020 ca        1 BX1      0.539900
     10 N10        -0.8880   -0.9710    8.2960 nh        1 BX1     -0.924500
     11 C11         1.1230   -0.1020    7.1070 ca        1 BX1      0.469900
     12 N12         1.6570    0.3180    8.3690 nh        1 BX1     -0.728300
     13 C13         2.3410   -0.7730    9.0760 c3        1 BX1      0.167300
     14 C14         2.7590   -0.3680   10.4880 c3        1 BX1     -0.051400
     15 C15         3.6050    0.8890   10.4780 c3        1 BX1     -0.192700
     16 C16         5.0300    0.6360    9.9180 c         1 BX1      0.911600
     17 O17         5.3690   -0.5450    9.6230 o         1 BX1     -0.844300
     18 O18         5.7900    1.6390    9.8030 o         1 BX1     -0.844300
     19 C19         2.9140    1.9920    9.7000 c3        1 BX1     -0.051400
     20 C20         2.4880    1.5230    8.3100 c3        1 BX1      0.167300
     21 N21         1.7890    0.0720    5.9470 nb        1 BX1     -0.632000
     22 C22         3.2910   -0.2890    3.4720 ca        1 BX1     -0.207500
     23 C23         3.9740   -0.1380    2.2590 ca        1 BX1      0.131100
     24 O24         5.3410   -0.2700    2.1240 os        1 BX1     -0.321400
     25 C25         6.0690   -0.5140    3.3270 c3        1 BX1      0.110700
     26 C26         3.2730    0.1720    1.0730 ca        1 BX1      0.032100
     27 O27         3.8980    0.1950   -0.1600 os        1 BX1     -0.314900
     28 C28         4.7420    1.3320   -0.3510 c3        1 BX1      0.115700
     29 H011       -0.5830   -0.2150    0.2850 h1        1 BX1      0.046200
     30 H012       -0.5050    1.5860    0.6330 h1        1 BX1      0.046200
     31 H013       -0.4130    0.9820   -1.1010 h1        1 BX1      0.046200
     32 H04         0.1090    0.3720    2.4050 ha        1 BX1      0.155500
     33 H22         3.8400   -0.5310    4.3950 ha        1 BX1      0.155500
     34 H07        -0.6320   -1.1310    3.8590 h4        1 BX1      0.019100
     35 H101       -1.8710   -1.1150    8.2450 hn        1 BX1      0.418800
     36 H102       -0.5710   -0.4610    9.0900 hn        1 BX1      0.418800
     37 H131        3.2800   -1.0880    8.5290 h1        1 BX1      0.048950
     38 H132        1.6410   -1.6520    9.1280 h1        1 BX1      0.048950
     39 H201        3.4260    1.3520    7.7050 h1        1 BX1      0.048950
     40 H202        1.8830    2.3290    7.8100 h1        1 BX1      0.048950
     41 H141        1.8520   -0.2170   11.1300 hc        1 BX1      0.034450
     42 H142        3.3630   -1.2120   10.9120 hc        1 BX1      0.034450
     43 H15         3.7470    1.2350   11.5380 hc        1 BX1      0.036700
     44 H191        2.0220    2.3630   10.2680 hc        1 BX1      0.034450
     45 H192        3.6330    2.8450    9.5690 hc        1 BX1      0.034450
     46 H251        5.7760   -1.4960    3.7690 h1        1 BX1      0.046200
     47 H252        5.9100    0.3120    4.0620 h1        1 BX1      0.046200
     48 H253        7.1330   -0.5380    2.9800 h1        1 BX1      0.046200
     49 H281        5.5470    1.3530    0.4230 h1        1 BX1      0.037700
     50 H282        5.1710    1.1730   -1.3710 h1        1 BX1      0.037700
     51 H283        4.1390    2.2710   -0.3160 h1        1 BX1      0.037700
@<TRIPOS>BOND
     1    1    2 1   
     2    1   29 1   
     3    1   30 1   
     4    1   31 1   
     5    2    3 1   
     6    3    4 ar  
     7    3   26 ar  
     8    4    5 ar  
     9    4   32 1   
    10    5    6 1   
    11    5   22 ar  
    12    6    7 ar  
    13    6   21 ar  
    14    7    8 ar  
    15    7   34 1   
    16    8    9 ar  
    17    9   10 1   
    18    9   11 ar  
    19   10   35 1   
    20   10   36 1   
    21   11   12 1   
    22   11   21 ar  
    23   12   13 1   
    24   12   20 1   
    25   13   14 1   
    26   13   37 1   
    27   13   38 1   
    28   14   15 1   
    29   14   41 1   
    30   14   42 1   
    31   15   16 1   
    32   15   19 1   
    33   15   43 1   
    34   16   17 1   
    35   16   18 1   
    36   19   20 1   
    37   19   44 1   
    38   19   45 1   
    39   20   39 1   
    40   20   40 1   
    41   22   23 ar  
    42   22   33 1   
    43   23   24 1   
    44   23   26 ar  
    45   24   25 1   
    46   25   46 1   
    47   25   47 1   
    48   25   48 1   
    49   26   27 1   
    50   27   28 1   
    51   28   49 1   
    52   28   50 1   
    53   28   51 1   
@<TRIPOS>SUBSTRUCTURE
     1 BX1         1 TEMP              0 ****  ****    0 ROOT
