@<TRIPOS>MOLECULE
BX1
   51    47     1     0     0
SMALL
bcc


@<TRIPOS>ATOM
      1 C01         3.4370   -1.0800   -4.1600 c3        1 BX1     -0.063000
      2 O02         2.1680   -0.7370   -4.7380 os        1 BX1     -0.220000
      3 C03         1.3330    0.0870   -3.8830 c2        1 BX1      0.091000
      4 C04         0.6790   -0.4830   -2.7890 c1        1 BX1     -0.185000
      5 C05        -0.2040    0.2940   -2.0140 c1        1 BX1      0.074000
      6 C06        -0.8960   -0.2860   -0.9590 c1        1 BX1     -0.157000
      7 C07        -2.1630   -0.7920   -1.1590 c1        1 BX1     -0.040000
      8 N08        -2.8420   -1.3190   -0.1370 n1        1 BX1     -0.238000
      9 C09        -2.2870   -1.3560    1.0910 c1        1 BX1      0.120000
     10 N10        -2.9780   -1.9730    2.1600 n3        1 BX1     -0.334000
     11 C11        -1.0190   -0.8500    1.2910 c1        1 BX1     -0.023000
     12 N12        -0.4340   -0.8420    2.6320 n2        1 BX1     -0.233000
     13 C13        -1.2070    0.0240    3.4930 c3        1 BX1     -0.042500
     14 C14        -0.7400   -0.0060    4.9360 c3        1 BX1     -0.132500
     15 C15        -0.6600   -1.3980    5.4980 c3        1 BX1     -0.177000
     16 C16        -2.0900   -1.9840    5.7680 c2        1 BX1      0.335000
     17 O17        -3.0300   -1.2140    6.1740 o         1 BX1     -0.583000
     18 O18        -2.2980   -3.2210    5.6470 o         1 BX1     -0.583000
     19 C19         0.1600   -2.2620    4.5520 c3        1 BX1     -0.132500
     20 C20        -0.3250   -2.1890    3.1160 c3        1 BX1     -0.042500
     21 N21        -0.3430   -0.3240    0.2680 n2        1 BX1     -0.059000
     22 C22        -0.4260    1.6320   -2.3400 c1        1 BX1     -0.198000
     23 C23         0.2290    2.2020   -3.4360 c1        1 BX1      0.078000
     24 O24        -0.1020    3.4850   -3.8480 os        1 BX1     -0.214000
     25 C25         0.5930    4.4880   -3.1750 c3        1 BX1     -0.078000
     26 C26         1.1100    1.4280   -4.2090 c2        1 BX1     -0.055000
     27 O27         1.7020    1.9790   -5.3610 os        1 BX1     -0.220000
     28 C28         2.9870    2.5560   -5.1330 c3        1 BX1     -0.074000
     29 H011        4.0560   -0.3280   -4.2650 h1        1 BX1      0.080333
     30 H012        3.3230   -1.2740   -3.2210 h1        1 BX1      0.080333
     31 H013        3.8040   -1.8790   -4.6210 h1        1 BX1      0.080333
     32 H04         0.8880   -1.4110   -2.5180 ha        1 BX1      0.151000
     33 H22        -1.0620    2.1700   -1.8110 ha        1 BX1      0.163000
     34 H07        -2.5760   -0.7630   -2.0730 ha        1 BX1      0.153000
     35 H101       -2.8760   -2.8670    2.3120 hn        1 BX1      0.264500
     36 H102       -3.5430   -1.4820    2.6810 hn        1 BX1      0.264500
     37 H131       -2.1540   -0.2580    3.4590 h1        1 BX1      0.072000
     38 H132       -1.1370    0.9560    3.1550 h1        1 BX1      0.072000
     39 H201        0.3060   -2.6780    2.5440 h1        1 BX1      0.072000
     40 H202       -1.2100   -2.6230    3.0570 h1        1 BX1      0.072000
     41 H141        0.1350    0.3990    4.9880 hc        1 BX1      0.072250
     42 H142       -1.3610    0.5160    5.4770 hc        1 BX1      0.072250
     43 H15        -0.2740   -1.4040    6.4050 hc        1 BX1      0.084000
     44 H191        1.1080   -1.9640    4.5840 hc        1 BX1      0.072250
     45 H192        0.1120   -3.1920    4.8550 hc        1 BX1      0.072250
     46 H251        0.5750    5.3040   -3.7010 h1        1 BX1      0.084667
     47 H252        0.1690    4.6500   -2.3040 h1        1 BX1      0.084667
     48 H253        1.5120    4.2110   -3.0410 h1        1 BX1      0.084667
     49 H281        3.2520    2.4100   -4.1940 h1        1 BX1      0.077667
     50 H282        2.9500    3.5180   -5.3170 h1        1 BX1      0.077667
     51 H283        3.6510    2.1300   -5.7340 h1        1 BX1      0.077667
@<TRIPOS>BOND
     1    1    2 1   
     2    1   29 1   
     3    1   30 1   
     4    1   31 1   
     5    2    3 1   
     6    3    4 1   
     7    3   26 1   
     8    4   32 1   
     9    5   22 1   
    10    6   21 1   
    11    7    8 1   
    12    7   34 1   
    13    9   10 1   
    14    9   11 1   
    15   10   35 1   
    16   10   36 1   
    17   11   21 1   
    18   12   13 1   
    19   12   20 1   
    20   13   14 1   
    21   13   37 1   
    22   13   38 1   
    23   14   15 1   
    24   14   41 1   
    25   14   42 1   
    26   15   16 1   
    27   15   19 1   
    28   15   43 1   
    29   16   17 1   
    30   16   18 1   
    31   19   20 1   
    32   19   44 1   
    33   19   45 1   
    34   20   39 1   
    35   20   40 1   
    36   22   33 1   
    37   23   24 1   
    38   23   26 1   
    39   24   25 1   
    40   25   46 1   
    41   25   47 1   
    42   25   48 1   
    43   26   27 1   
    44   27   28 1   
    45   28   49 1   
    46   28   50 1   
    47   28   51 1   
@<TRIPOS>SUBSTRUCTURE
     1 BX1         1 TEMP              0 ****  ****    0 ROOT
