@<TRIPOS>MOLECULE
BX1
   51    53     1     0     0
SMALL
bcc


@<TRIPOS>ATOM
      1 C01        -0.1790    0.6610   -0.0400 c3        1 BX1      0.111200
      2 O02         1.2420    0.6230   -0.0620 os        1 BX1     -0.321400
      3 C03         1.8570    0.3210    1.1390 ca        1 BX1      0.131100
      4 C04         1.1790    0.1830    2.3550 ca        1 BX1     -0.208500
      5 C05         1.8980   -0.1020    3.5230 cp        1 BX1     -0.054500
      6 C06         1.1770   -0.2590    4.7950 cp        1 BX1      0.288500
      7 C07        -0.1070   -0.8490    4.8180 ca        1 BX1      0.314900
      8 N08        -0.8210   -1.0090    5.9460 nb        1 BX1     -0.727000
      9 C09        -0.2620   -0.5650    7.1120 ca        1 BX1      0.549900
     10 N10        -1.0230   -0.5830    8.2710 nv        1 BX1     -0.931500
     11 C11         1.1070   -0.0050    7.1110 ca        1 BX1      0.465900
     12 N12         1.6610    0.3870    8.3750 nh        1 BX1     -0.726300
     13 C13         2.2870   -0.7470    9.0680 c3        1 BX1      0.169300
     14 C14         2.7340   -0.3790   10.4820 c3        1 BX1     -0.051900
     15 C15         3.6560    0.8230   10.4720 c3        1 BX1     -0.192700
     16 C16         5.0550    0.4860    9.8910 c         1 BX1      0.911600
     17 O17         5.3060   -0.7080    9.5580 o         1 BX1     -0.844300
     18 O18         5.8850    1.4350    9.7970 o         1 BX1     -0.844300
     19 C19         3.0240    1.9730    9.7120 c3        1 BX1     -0.051900
     20 C20         2.5540    1.5470    8.3220 c3        1 BX1      0.169300
     21 N21         1.7780    0.1420    5.9510 nb        1 BX1     -0.630000
     22 C22         3.2890   -0.2370    3.4820 ca        1 BX1     -0.208500
     23 C23         3.9670   -0.1010    2.2640 ca        1 BX1      0.131100
     24 O24         5.3370   -0.2010    2.1300 os        1 BX1     -0.321400
     25 C25         6.0710   -0.4140    3.3350 c3        1 BX1      0.111200
     26 C26         3.2580    0.1630    1.0730 ca        1 BX1      0.031100
     27 O27         3.8810    0.1710   -0.1620 os        1 BX1     -0.314900
     28 C28         4.6940    1.3250   -0.3820 c3        1 BX1      0.115700
     29 H011       -0.4500    0.8530   -1.1090 h1        1 BX1      0.046367
     30 H012       -0.6000   -0.3160    0.3030 h1        1 BX1      0.046367
     31 H013       -0.5420    1.4930    0.6120 h1        1 BX1      0.046367
     32 H04         0.0900    0.3160    2.4060 ha        1 BX1      0.155500
     33 H22         3.8450   -0.4440    4.4100 ha        1 BX1      0.155500
     34 H07        -0.5830   -1.2240    3.8960 h4        1 BX1      0.019100
     35 H101       -1.8010   -1.2000    8.2980 hn        1 BX1      0.423800
     36 H102       -0.5310   -0.4600    9.1260 hn        1 BX1      0.423800
     37 H131        1.5360   -1.5830    9.1160 h1        1 BX1      0.045450
     38 H132        3.2040   -1.1140    8.5150 h1        1 BX1      0.045450
     39 H201        1.9840    2.3900    7.8420 h1        1 BX1      0.045450
     40 H202        3.4730    1.3370    7.7010 h1        1 BX1      0.045450
     41 H141        3.2870   -1.2620   10.8980 hc        1 BX1      0.034450
     42 H142        1.8410   -0.1760   11.1280 hc        1 BX1      0.034450
     43 H15         3.8320    1.1500   11.5330 hc        1 BX1      0.037700
     44 H191        2.1620    2.3900   10.2940 hc        1 BX1      0.034450
     45 H192        3.7910    2.7830    9.5810 hc        1 BX1      0.034450
     46 H251        7.1340   -0.4280    2.9870 h1        1 BX1      0.046367
     47 H252        5.9000    0.4210    4.0570 h1        1 BX1      0.046367
     48 H253        5.7940   -1.3940    3.7950 h1        1 BX1      0.046367
     49 H281        4.0670    2.2490   -0.3700 h1        1 BX1      0.037700
     50 H282        5.4990    1.3870    0.3900 h1        1 BX1      0.037700
     51 H283        5.1270    1.1520   -1.3980 h1        1 BX1      0.037700
@<TRIPOS>BOND
     1    1    2 1   
     2    1   29 1   
     3    1   30 1   
     4    1   31 1   
     5    2    3 1   
     6    3    4 ar  
     7    3   26 ar  
     8    4    5 ar  
     9    4   32 1   
    10    5    6 1   
    11    5   22 ar  
    12    6    7 ar  
    13    6   21 ar  
    14    7    8 ar  
    15    7   34 1   
    16    8    9 ar  
    17    9   10 1   
    18    9   11 ar  
    19   10   35 1   
    20   10   36 1   
    21   11   12 1   
    22   11   21 ar  
    23   12   13 1   
    24   12   20 1   
    25   13   14 1   
    26   13   37 1   
    27   13   38 1   
    28   14   15 1   
    29   14   41 1   
    30   14   42 1   
    31   15   16 1   
    32   15   19 1   
    33   15   43 1   
    34   16   17 1   
    35   16   18 1   
    36   19   20 1   
    37   19   44 1   
    38   19   45 1   
    39   20   39 1   
    40   20   40 1   
    41   22   23 ar  
    42   22   33 1   
    43   23   24 1   
    44   23   26 ar  
    45   24   25 1   
    46   25   46 1   
    47   25   47 1   
    48   25   48 1   
    49   26   27 1   
    50   27   28 1   
    51   28   49 1   
    52   28   50 1   
    53   28   51 1   
@<TRIPOS>SUBSTRUCTURE
     1 BX1         1 TEMP              0 ****  ****    0 ROOT
