@<TRIPOS>MOLECULE
BX1
   51    53     1     0     0
SMALL
bcc


@<TRIPOS>ATOM
      1 C01        -5.3460    2.5760   -0.9120 c3        1 BX1      0.110700
      2 O02        -5.3360    1.1640   -0.7480 os        1 BX1     -0.321400
      3 C03        -4.1390    0.6130   -0.3270 ca        1 BX1      0.131100
      4 C04        -2.9460    1.3310   -0.2040 ca        1 BX1     -0.207500
      5 C05        -1.7790    0.6750    0.2080 cp        1 BX1     -0.055500
      6 C06        -0.5290    1.4370    0.3490 cp        1 BX1      0.292500
      7 C07        -0.5590    2.7810    0.7870 ca        1 BX1      0.311900
      8 N08         0.5500    3.5250    0.9460 nb        1 BX1     -0.724000
      9 C09         1.7510    2.9270    0.6880 ca        1 BX1      0.539900
     10 N10         2.9250    3.6260    0.9480 nh        1 BX1     -0.924500
     11 C11         1.7970    1.5280    0.2110 ca        1 BX1      0.469900
     12 N12         3.0790    0.9910   -0.1370 nh        1 BX1     -0.728300
     13 C13         3.7730    0.4090    1.0190 c3        1 BX1      0.167300
     14 C14         5.2030   -0.0080    0.6790 c3        1 BX1     -0.051400
     15 C15         5.2400   -0.9490   -0.5080 c3        1 BX1     -0.192700
     16 C16         4.7020   -2.3630   -0.1580 c         1 BX1      0.911600
     17 O17         4.3850   -2.6150    1.0400 o         1 BX1     -0.844300
     18 O18         4.6270   -3.2010   -1.1000 o         1 BX1     -0.844300
     19 C19         4.4750   -0.3640   -1.6790 c3        1 BX1     -0.051400
     20 C20         3.0650    0.0680   -1.2750 c3        1 BX1      0.167300
     21 N21         0.6550    0.8260    0.0640 nb        1 BX1     -0.632000
     22 C22        -1.7980   -0.6960    0.4840 ca        1 BX1     -0.207500
     23 C23        -2.9940   -1.4150    0.3600 ca        1 BX1      0.131100
     24 O24        -3.1050   -2.7700    0.5950 os        1 BX1     -0.321400
     25 C25        -1.8940   -3.4510    0.9210 c3        1 BX1      0.110700
     26 C26        -4.1850   -0.7660   -0.0290 ca        1 BX1      0.032100
     27 O27        -5.4050   -1.4170   -0.0310 os        1 BX1     -0.314900
     28 C28        -5.5520   -2.3500   -1.1030 c3        1 BX1      0.115700
     29 H011       -4.6650    2.8810   -1.7440 h1        1 BX1      0.046200
     30 H012       -6.4110    2.7990   -1.1740 h1        1 BX1      0.046200
     31 H013       -5.0580    3.0920    0.0360 h1        1 BX1      0.046200
     32 H04        -2.9110    2.4010   -0.4460 ha        1 BX1      0.155500
     33 H22        -0.8710   -1.2050    0.7890 ha        1 BX1      0.155500
     34 H07        -1.5090    3.2880    1.0270 h4        1 BX1      0.019100
     35 H101        2.8510    4.6150    1.0140 hn        1 BX1      0.418800
     36 H102        3.7370    3.2880    0.4810 hn        1 BX1      0.418800
     37 H131        3.7900    1.1760    1.8410 h1        1 BX1      0.048950
     38 H132        3.2380   -0.5150    1.3940 h1        1 BX1      0.048950
     39 H201        2.4750   -0.8680   -1.0460 h1        1 BX1      0.048950
     40 H202        2.5720    0.5970   -2.1370 h1        1 BX1      0.048950
     41 H141        5.8300    0.8980    0.4720 hc        1 BX1      0.034450
     42 H142        5.6180   -0.5360    1.5770 hc        1 BX1      0.034450
     43 H15         6.3100   -1.0950   -0.8190 hc        1 BX1      0.036700
     44 H191        5.0330    0.5090   -2.1050 hc        1 BX1      0.034450
     45 H192        4.3780   -1.1490   -2.4750 hc        1 BX1      0.034450
     46 H251       -2.2200   -4.5170    1.0200 h1        1 BX1      0.046200
     47 H252       -1.1430   -3.3410    0.1020 h1        1 BX1      0.046200
     48 H253       -1.4810   -3.0740    1.8880 h1        1 BX1      0.046200
     49 H281       -5.5080   -1.8210   -2.0860 h1        1 BX1      0.037700
     50 H282       -4.7620   -3.1380   -1.0450 h1        1 BX1      0.037700
     51 H283       -6.5670   -2.7880   -0.9340 h1        1 BX1      0.037700
@<TRIPOS>BOND
     1    1    2 1   
     2    1   29 1   
     3    1   30 1   
     4    1   31 1   
     5    2    3 1   
     6    3    4 ar  
     7    3   26 ar  
     8    4    5 ar  
     9    4   32 1   
    10    5    6 1   
    11    5   22 ar  
    12    6    7 ar  
    13    6   21 ar  
    14    7    8 ar  
    15    7   34 1   
    16    8    9 ar  
    17    9   10 1   
    18    9   11 ar  
    19   10   35 1   
    20   10   36 1   
    21   11   12 1   
    22   11   21 ar  
    23   12   13 1   
    24   12   20 1   
    25   13   14 1   
    26   13   37 1   
    27   13   38 1   
    28   14   15 1   
    29   14   41 1   
    30   14   42 1   
    31   15   16 1   
    32   15   19 1   
    33   15   43 1   
    34   16   17 1   
    35   16   18 1   
    36   19   20 1   
    37   19   44 1   
    38   19   45 1   
    39   20   39 1   
    40   20   40 1   
    41   22   23 ar  
    42   22   33 1   
    43   23   24 1   
    44   23   26 ar  
    45   24   25 1   
    46   25   46 1   
    47   25   47 1   
    48   25   48 1   
    49   26   27 1   
    50   27   28 1   
    51   28   49 1   
    52   28   50 1   
    53   28   51 1   
@<TRIPOS>SUBSTRUCTURE
     1 BX1         1 TEMP              0 ****  ****    0 ROOT
