@<TRIPOS>MOLECULE
BX2
   55    71     1     0     0
SMALL
bcc


@<TRIPOS>ATOM
      1 C1          0.0000    0.0000    0.0000 DU        1 BX2     -0.130000
      2 N1          1.6300    0.9390    2.2550 n2        1 BX2      0.032000
      3 O1          3.6460   -2.0680    5.9880 o         1 BX2     -0.136000
      4 C2          1.5300    0.0000    0.0000 c3        1 BX2     -0.534000
      5 N2          3.6370   -3.9430    4.6590 nx        1 BX2      0.221000
      6 C3          2.0330    0.0000    1.4210 c3        1 BX2     -0.226000
      7 N3          4.3590   -3.1690    2.7020 n2        1 BX2     -0.122000
      8 C4          2.9100   -0.9830    1.8350 c2        1 BX2     -0.297000
      9 N4          3.8630   -5.4690    2.7930 nz        1 BX2      0.184000
     10 C5          3.3670   -0.9740    3.1440 c3        1 BX2     -0.151000
     11 N5          6.8120    2.0440    8.0480 n2        1 BX2      0.105000
     12 C6          2.9220    0.0290    3.9910 c2        1 BX2     -0.303000
     13 N6          9.0000    2.2360    7.3420 n2        1 BX2     -0.025000
     14 C7          2.0440    0.9790    3.5060 c3        1 BX2     -0.153000
     15 C8          1.5520    2.0740    4.4180 DU        1 BX2     -0.259000
     16 C9          1.8470    3.4350    3.7840 c3        1 BX2     -0.363000
     17 C10         4.3250   -2.0290    3.6340 c3        1 BX2      0.065000
     18 C11         3.8290   -2.6350    4.9320 c2        1 BX2      0.116000
     19 C12         3.9590   -4.2170    3.3530 DU        1 BX2     -0.144000
     20 C14         5.7040   -1.4490    3.8110 c3        1 BX2     -0.161000
     21 C15         6.7110   -1.7780    2.9200 c3        1 BX2     -0.117000
     22 C16         7.9790   -1.2490    3.0770 c3        1 BX2     -0.248000
     23 C17         8.2470   -0.3880    4.1230 c2        1 BX2     -0.241000
     24 C18         7.2370   -0.0540    5.0220 c2        1 BX2      0.171000
     25 C19         5.9580   -0.5850    4.8560 c2        1 BX2     -0.265000
     26 C20         7.5180    0.8700    6.1480 c2        1 BX2     -0.361000
     27 C21         6.5180    1.2180    7.0590 c3        1 BX2     -0.158000
     28 C22         8.0280    2.5380    8.1800 c3        1 BX2     -0.093000
     29 C23         8.7910    1.4160    6.3270 c2        1 BX2     -0.039000
     30 H1          0.3780   -0.6720    0.7610 ha        1 BX2      0.192667
     31 H1A        -0.3610   -0.7360    0.7080 ha        1 BX2      0.192667
     32 H1B        -0.3610    0.9810    0.2840 ha        1 BX2      0.192667
     33 H2          0.5780   -0.1240   -0.5010 DU        1 BX2      0.206000
     34 H2A         1.8910    0.8840   -0.5110 hc        1 BX2      0.145000
     35 H4          2.4800   -0.9430    0.8410 DU        1 BX2      0.372000
     36 HN4         3.7110   -4.5650    2.3910 DU        1 BX2      0.197000
     37 HN4A        3.1130   -5.6350    2.1520 hn        1 BX2      0.187000
     38 H6          3.2260   -0.9850    3.7580 DU        1 BX2      0.319000
     39 H8          2.1810    1.2300    4.6740 DU        1 BX2      0.324000
     40 H8A         0.4840    1.9680    4.5660 ha        1 BX2      0.118000
     41 H9          1.9540    2.7140    4.5860 DU        1 BX2      0.277000
     42 H9A         1.1390    3.6230    2.9860 hc        1 BX2      0.080000
     43 H9B         2.8530    3.4360    3.3830 hc        1 BX2      0.080000
     44 H13         2.9960   -3.8710    5.4990 DU        1 BX2      0.054000
     45 H13A        2.9900   -4.7150    6.6730 hx        1 BX2      0.099000
     46 H13B        2.0920   -4.8370    5.4640 hx        1 BX2      0.099000
     47 H15         6.0610   -2.5260    3.3590 DU        1 BX2      0.229000
     48 H16         7.2340   -1.8580    2.5800 DU        1 BX2      0.208000
     49 H17         8.5100   -0.9560    3.2380 DU        1 BX2      0.235000
     50 H19         7.0060   -0.3910    4.6620 ha        1 BX2      0.210000
     51 H21         5.9430    0.5600    6.4180 h1        1 BX2      0.240000
     52 H22         7.1990    1.9700    7.7760 DU        1 BX2      0.109000
     53 H23         8.6070    2.0120    7.2130 DU        1 BX2      0.234000
     54 H43         4.4440   -4.6680    2.9440 DU        1 BX2      0.197000
     55 C13         3.1590   -4.9350    5.6250 c3        1 BX2     -0.166000
@<TRIPOS>BOND
     1    1    4 1   
     2    1   30 1   
     3    1   31 1   
     4    1   32 1   
     5    1   33 1   
     6    2    6 1   
     7    2   14 1   
     8    3   18 1   
     9    4    6 1   
    10    4   33 1   
    11    4   34 1   
    12    5   18 1   
    13    5   19 1   
    14    5   44 1   
    15    5   55 1   
    16    6    8 1   
    17    6   35 1   
    18    7   17 1   
    19    7   19 1   
    20    8   10 1   
    21    8   35 1   
    22    9   19 1   
    23    9   36 1   
    24    9   37 1   
    25    9   54 1   
    26   10   12 1   
    27   10   17 1   
    28   10   38 1   
    29   11   27 1   
    30   11   28 1   
    31   12   14 1   
    32   12   38 1   
    33   13   28 1   
    34   13   29 1   
    35   14   15 1   
    36   14   39 1   
    37   15   16 1   
    38   15   39 1   
    39   15   40 1   
    40   15   41 1   
    41   16   41 1   
    42   16   42 1   
    43   16   43 1   
    44   17   18 1   
    45   17   20 1   
    46   19   36 1   
    47   19   54 1   
    48   20   21 1   
    49   20   25 1   
    50   20   47 1   
    51   21   22 1   
    52   21   47 1   
    53   21   48 1   
    54   22   23 1   
    55   22   48 1   
    56   22   49 1   
    57   23   24 1   
    58   23   49 1   
    59   24   25 1   
    60   24   26 1   
    61   25   50 1   
    62   26   27 1   
    63   26   29 1   
    64   27   51 1   
    65   27   52 1   
    66   28   52 1   
    67   28   53 1   
    68   29   53 1   
    69   44   55 1   
    70   45   55 1   
    71   46   55 1   
@<TRIPOS>SUBSTRUCTURE
     1 BX2         1 TEMP              0 ****  ****    0 ROOT
