@<TRIPOS>MOLECULE
BX2
   54    48     1     0     0
SMALL
bcc


@<TRIPOS>ATOM
      1 C1         -2.7340    2.2370   -4.5210 c3        1 BX2     -0.207000
      2 N1         -2.4140    2.3350   -1.5070 n1        1 BX2     -0.137000
      3 O1          0.4000   -2.2160   -2.2380 o         1 BX2     -0.313000
      4 C2         -1.3840    2.0980   -3.7620 c3        1 BX2     -0.113000
      5 N2         -0.8970   -3.3470   -0.5650 n         1 BX2     -0.329000
      6 C3         -1.6430    1.5670   -2.3580 c2        1 BX2     -0.008000
      7 N3         -0.7850   -1.6970    0.9600 n1        1 BX2     -0.263000
      8 C4         -0.8770    0.5090   -1.8500 c2        1 BX2     -0.182000
      9 N4         -2.1450   -3.5530    1.4580 n3        1 BX2     -0.310000
     10 C5         -0.8910    0.2350   -0.5000 c1        1 BX2     -0.028000
     11 N5          4.9980   -1.8100    4.1710 n1        1 BX2     -0.164500
     12 C6         -1.6630    1.0040    0.3550 c2        1 BX2     -0.152000
     13 N6          4.5720    0.4380    4.7440 n1        1 BX2     -0.164500
     14 C7         -2.4300    2.0620   -0.1550 c1        1 BX2     -0.014000
     15 C8         -3.4030    2.8400    0.7810 c3        1 BX2     -0.112000
     16 C9         -3.7030    4.2490    0.1660 c3        1 BX2     -0.207000
     17 C10        -0.2210   -1.0170   -0.0860 c1        1 BX2      0.087000
     18 C11        -0.2700   -2.1810   -1.2330 c2        1 BX2      0.296000
     19 C12        -1.1400   -2.9310    0.6990 c2        1 BX2      0.184000
     20 C13        -0.8370   -4.7110   -1.0080 c3        1 BX2     -0.069000
     21 C14         1.1310   -0.5250    0.1020 c2        1 BX2     -0.074000
     22 C15         1.8190    0.0030   -0.9630 c2        1 BX2     -0.106000
     23 C16         3.1640    0.4070   -0.8070 c1        1 BX2     -0.131000
     24 C17         3.7980    0.2680    0.4310 c1        1 BX2     -0.070500
     25 C18         3.1100   -0.2620    1.5030 c1        1 BX2     -0.088000
     26 C19         1.7640   -0.6650    1.3470 c1        1 BX2     -0.082000
     27 C20         3.7580   -0.4490    2.7240 c1        1 BX2     -0.088000
     28 C21         4.3140   -1.6490    3.0180 c1        1 BX2     -0.070500
     29 C22         5.1290   -0.7640    5.0390 c1        1 BX2     -0.036000
     30 C23         3.8900    0.6010    3.5970 c1        1 BX2     -0.036000
     31 H1         -3.2710    2.9660   -4.1110 hc        1 BX2      0.078333
     32 H1A        -3.2320    1.3900   -4.4630 hc        1 BX2      0.078333
     33 H1B        -2.5630    2.4440   -5.4410 hc        1 BX2      0.078333
     34 H2         -0.9430    2.9910   -3.7030 hc        1 BX2      0.093500
     35 H2A        -0.7850    1.4610   -4.2570 hc        1 BX2      0.093500
     36 H4         -0.3110   -0.0540   -2.4770 ha        1 BX2      0.163000
     37 HN4        -2.4270   -4.4080    1.2380 hn        1 BX2      0.211500
     38 HN4A       -2.5470   -3.1000    2.1470 hn        1 BX2      0.211500
     39 H6         -1.6720    0.8090    1.3110 ha        1 BX2      0.159000
     40 H8         -4.2730    2.3190    0.8770 hc        1 BX2      0.092000
     41 H8A        -2.9990    2.9480    1.6440 hc        1 BX2      0.092000
     42 H9         -4.1510    4.1400   -0.6830 hc        1 BX2      0.079000
     43 H9A        -4.2770    4.7550    0.7740 hc        1 BX2      0.079000
     44 H9B        -2.8550    4.7370    0.0310 hc        1 BX2      0.079000
     45 H13        -0.1690   -5.1700   -0.5230 h1        1 BX2      0.093333
     46 H13A       -1.7160   -5.1490   -0.8540 h1        1 BX2      0.093333
     47 H13B       -0.6210   -4.7360   -1.9710 h1        1 BX2      0.093333
     48 H15         1.3760    0.1020   -1.8320 ha        1 BX2      0.159000
     49 H16         3.6550    0.7840   -1.5700 ha        1 BX2      0.139000
     50 H17         4.7570    0.5560    0.5410 ha        1 BX2      0.153500
     51 H19         1.2710   -1.0440    2.1110 ha        1 BX2      0.154000
     52 H21         4.2210   -2.3970    2.3970 ha        1 BX2      0.153500
     53 H22         5.6310   -0.8830    5.8840 ha        1 BX2      0.180500
     54 H23         3.4930    1.4600    3.3870 ha        1 BX2      0.180500
@<TRIPOS>BOND
     1    1    4 1   
     2    1   31 1   
     3    1   32 1   
     4    1   33 1   
     5    2    6 1   
     6    3   18 1   
     7    4    6 1   
     8    4   34 1   
     9    4   35 1   
    10    5   18 1   
    11    5   19 1   
    12    5   20 1   
    13    6    8 1   
    14    7   19 1   
    15    8   10 1   
    16    8   36 1   
    17    9   19 1   
    18    9   37 1   
    19    9   38 1   
    20   10   12 1   
    21   11   29 1   
    22   12   14 1   
    23   12   39 1   
    24   13   30 1   
    25   14   15 1   
    26   15   16 1   
    27   15   40 1   
    28   15   41 1   
    29   16   42 1   
    30   16   43 1   
    31   16   44 1   
    32   17   18 1   
    33   17   21 1   
    34   20   45 1   
    35   20   46 1   
    36   20   47 1   
    37   21   22 1   
    38   21   26 1   
    39   22   23 1   
    40   22   48 1   
    41   23   49 1   
    42   24   25 1   
    43   24   50 1   
    44   26   51 1   
    45   27   28 1   
    46   28   52 1   
    47   29   53 1   
    48   30   54 1   
@<TRIPOS>SUBSTRUCTURE
     1 BX2         1 TEMP              0 ****  ****    0 ROOT
