@<TRIPOS>MOLECULE
BX2
   54    53     1     0     0
SMALL
bcc


@<TRIPOS>ATOM
      1 C1         -0.2480   -0.3890   -0.3630 c3        1 BX2     -0.207000
      2 N1          1.3690    1.0480    1.8430 n2        1 BX2     -0.136000
      3 O1          3.4000   -1.8330    5.7690 o         1 BX2     -0.298000
      4 C2          1.2250   -0.0640   -0.3440 c3        1 BX2     -0.114000
      5 N2          3.4410   -3.8430    4.5620 n         1 BX2     -0.332000
      6 C3          1.7610    0.0200    1.0600 c2        1 BX2     -0.010000
      7 N3          4.2870   -3.1340    2.5040 n2        1 BX2     -0.260000
      8 C4          2.6610   -0.9830    1.4940 c2        1 BX2     -0.149000
      9 N4          3.9740   -5.5240    2.8320 n3        1 BX2     -0.312000
     10 C5          3.1660   -0.9130    2.7930 c2        1 BX2     -0.046000
     11 N5          6.0040    3.5350    6.7540 n2        1 BX2     -0.219000
     12 C6          2.7720    0.1520    3.6110 c2        1 BX2     -0.181000
     13 N6         10.3010    0.5440    9.2340 n2        1 BX2     -0.390000
     14 C7          1.8690    1.1150    3.1040 c2        1 BX2      0.032000
     15 C8          1.4780    2.2120    3.9970 c2        1 BX2     -0.139000
     16 C9          0.6710    3.2230    3.6700 c2        1 BX2     -0.167000
     17 C10         4.1620   -1.9170    3.3390 c3        1 BX2      0.120000
     18 C11         3.6290   -2.4530    4.7310 c2        1 BX2      0.287000
     19 C12         3.8970   -4.1840    3.2380 c2        1 BX2      0.184000
     20 C14         5.4760   -1.2110    3.5910 c2        1 BX2     -0.389000
     21 C15         6.7390   -1.9920    3.4430 c3        1 BX2     -0.056000
     22 C16         7.9490   -1.2150    3.8330 c2        1 BX2     -0.083000
     23 C17         7.8630    0.0220    4.2340 c1        1 BX2     -0.209000
     24 C18         7.7010    1.2640    4.6080 c2        1 BX2      0.026000
     25 C19         5.4620    0.0800    3.9300 c1        1 BX2      0.189000
     26 C20         7.4820    1.6750    5.9970 c2        1 BX2     -0.396000
     27 C21         6.2010    2.4060    6.2070 c2        1 BX2      0.020000
     28 C22        11.0840    0.1910   10.0390 c1        1 BX2      0.081000
     29 C23         8.3090    1.3930    6.9850 c1        1 BX2      0.198000
     30 H1          1.7940   -0.8530   -0.9040 hc        1 BX2      0.093500
     31 H1A        -0.4480   -1.3560    0.1590 hc        1 BX2      0.078333
     32 H1B        -0.8370    0.4130    0.1450 hc        1 BX2      0.078333
     33 H2         -0.6040   -0.4760   -1.4180 hc        1 BX2      0.078333
     34 H2A         1.4020    0.9120   -0.8700 hc        1 BX2      0.093500
     35 H4          2.9510   -1.7840    0.8010 ha        1 BX2      0.159000
     36 HN4         4.1070   -5.6440    1.8500 hn        1 BX2      0.213000
     37 HN4A        3.2740   -6.1170    3.2230 hn        1 BX2      0.213000
     38 H6          3.1450    0.2390    4.6470 ha        1 BX2      0.172000
     39 H8          3.3550    0.9430    6.7410 ha        1 BX2      0.002000
     40 H8A         3.3910    0.2890    6.9140 ha        1 BX2      0.002000
     41 H9          1.9210    2.1430    5.0070 ha        1 BX2      0.132000
     42 H9A         0.2090    3.3360    2.6800 ha        1 BX2      0.121500
     43 H9B         0.4240    4.0130    4.3930 ha        1 BX2      0.121500
     44 H13         2.2670   -5.4010    5.3180 h1        1 BX2      0.093000
     45 H13A        4.0370   -5.4640    5.7720 h1        1 BX2      0.093000
     46 H13B        2.9370   -4.2170    6.5430 h1        1 BX2      0.093000
     47 H15         6.6860   -2.9220    4.0730 hc        1 BX2      0.116000
     48 H16         6.8530   -2.3140    2.3690 hc        1 BX2      0.116000
     49 H17         8.9140   -1.7440    3.7500 ha        1 BX2      0.154000
     50 H19         7.7010    2.0910    3.8730 ha        1 BX2      0.165000
     51 H21         5.3290    1.8490    5.7880 h4        1 BX2      0.191000
     52 H22         6.7900    4.0340    7.1120 hn        1 BX2      0.149000
     53 H23         9.6520    0.8360    8.5650 hn        1 BX2      0.296000
     54 C13         3.1620   -4.7810    5.5970 c3        1 BX2     -0.069000
@<TRIPOS>BOND
     1    1    4 1   
     2    1   31 1   
     3    1   32 1   
     4    1   33 1   
     5    2    6 1   
     6    2   14 1   
     7    3   18 1   
     8    4    6 1   
     9    4   30 1   
    10    4   34 1   
    11    5   18 1   
    12    5   19 1   
    13    5   54 1   
    14    6    8 1   
    15    7   17 1   
    16    7   19 1   
    17    8   10 1   
    18    8   35 1   
    19    9   19 1   
    20    9   36 1   
    21    9   37 1   
    22   10   12 1   
    23   10   17 1   
    24   11   27 1   
    25   11   52 1   
    26   12   14 1   
    27   12   38 1   
    28   13   28 1   
    29   13   53 1   
    30   14   15 1   
    31   15   16 1   
    32   15   41 1   
    33   16   42 1   
    34   16   43 1   
    35   17   18 1   
    36   17   20 1   
    37   20   21 1   
    38   20   25 1   
    39   21   22 1   
    40   21   47 1   
    41   21   48 1   
    42   22   23 1   
    43   22   49 1   
    44   23   24 1   
    45   24   26 1   
    46   24   50 1   
    47   26   27 1   
    48   26   29 1   
    49   27   51 1   
    50   39   40 1   
    51   44   54 1   
    52   45   54 1   
    53   46   54 1   
@<TRIPOS>SUBSTRUCTURE
     1 BX2         1 TEMP              0 ****  ****    0 ROOT
