@<TRIPOS>MOLECULE
BX2
   54    57     1     0     0
SMALL
bcc


@<TRIPOS>ATOM
      1 C1         -5.9570    2.0280   -1.1380 c3        1 BX2     -0.089100
      2 N1         -3.1260    2.7920   -0.1690 nb        1 BX2     -0.662000
      3 O1         -0.0450   -0.7000    2.3370 o         1 BX2     -0.588500
      4 C2         -4.6530    1.9180   -1.8880 c3        1 BX2     -0.128200
      5 N2         -1.1810   -2.6220    1.6530 n         1 BX2     -0.439300
      6 C3         -3.4840    1.7510   -0.9560 ca        1 BX2      0.411100
      7 N3         -1.7000   -2.1150   -0.5610 n2        1 BX2     -0.671900
      8 C4         -2.8050    0.5110   -0.9440 ca        1 BX2     -0.229800
      9 N4         -2.5990   -4.1810    0.3600 nh        1 BX2     -0.870800
     10 C5         -1.7200    0.3420   -0.0790 ca        1 BX2     -0.042300
     11 N5          5.3730    0.5920    1.5050 nb        1 BX2     -0.690000
     12 C6         -1.3390    1.4180    0.7310 ca        1 BX2     -0.229800
     13 N6          6.4280   -0.6760   -0.2830 nb        1 BX2     -0.690000
     14 C7         -2.0680    2.6240    0.6580 ca        1 BX2      0.411100
     15 C8         -1.6500    3.7680    1.5410 c3        1 BX2     -0.128200
     16 C9         -1.0680    4.9090    0.7430 c3        1 BX2     -0.089100
     17 C10        -0.9310   -0.9510   -0.0400 c3        1 BX2      0.173800
     18 C11        -0.6370   -1.3340    1.4600 c         1 BX2      0.688500
     19 C12        -1.8390   -3.0020    0.4270 c2        1 BX2      0.628800
     20 C14         0.3480   -0.7620   -0.8310 ca        1 BX2     -0.071300
     21 C15         0.2650   -0.7230   -2.2300 ca        1 BX2     -0.085000
     22 C16         1.4160   -0.5430   -2.9940 ca        1 BX2     -0.135000
     23 C17         2.6560   -0.3960   -2.3770 ca        1 BX2     -0.109000
     24 C18         2.7510   -0.4260   -0.9790 cp        1 BX2     -0.039000
     25 C19         1.5900   -0.6090   -0.2110 ca        1 BX2     -0.109000
     26 C20         4.0390   -0.2690   -0.3250 cp        1 BX2     -0.262600
     27 C21         4.1830    0.4390    0.8930 ca        1 BX2      0.433200
     28 C22         6.4430    0.0250    0.8830 ca        1 BX2      0.624900
     29 C23         5.2250   -0.8150   -0.8730 ca        1 BX2      0.433200
     30 H1         -6.8040    2.1160   -1.8620 hc        1 BX2      0.039367
     31 H1A        -6.1270    1.1250   -0.5040 hc        1 BX2      0.039367
     32 H1B        -5.9600    2.9290   -0.4780 hc        1 BX2      0.039367
     33 H2         -4.6900    1.0390   -2.5850 hc        1 BX2      0.053200
     34 H2A        -4.5010    2.8370   -2.5160 hc        1 BX2      0.053200
     35 H4         -3.1400   -0.2930   -1.6140 ha        1 BX2      0.161500
     36 HN4        -2.8480   -4.4470   -0.5700 hn        1 BX2      0.415800
     37 HN4A       -2.2460   -4.9300    0.9140 hn        1 BX2      0.415800
     38 H6         -0.4850    1.3310    1.4190 ha        1 BX2      0.161500
     39 H8         -2.5380    4.1320    2.1250 hc        1 BX2      0.053200
     40 H8A        -0.8920    3.3980    2.2810 hc        1 BX2      0.053200
     41 H9         -1.8270    5.3270    0.0380 hc        1 BX2      0.039367
     42 H9A        -0.7380    5.7230    1.4330 hc        1 BX2      0.039367
     43 H9B        -0.1860    4.5680    0.1500 hc        1 BX2      0.039367
     44 H13        -2.4550   -3.3380    3.1730 h1        1 BX2      0.054033
     45 H13A       -0.9340   -4.3050    2.8700 h1        1 BX2      0.054033
     46 H13B       -0.8300   -2.6770    3.7010 h1        1 BX2      0.054033
     47 H15        -0.7130   -0.8310   -2.7260 ha        1 BX2      0.152000
     48 H16         1.3440   -0.5120   -4.0910 ha        1 BX2      0.138000
     49 H17         3.5600   -0.2450   -2.9860 ha        1 BX2      0.136000
     50 H19         1.6760   -0.6260    0.8880 ha        1 BX2      0.155000
     51 H21         3.3100    0.9010    1.3910 h4        1 BX2      0.034600
     52 H22         7.4280    0.1470    1.3790 h5        1 BX2      0.055100
     53 H23         5.2050   -1.3890   -1.8170 h4        1 BX2      0.034600
     54 C13        -1.3650   -3.2680    2.9090 c3        1 BX2      0.086300
@<TRIPOS>BOND
     1    1    4 1   
     2    1   30 1   
     3    1   31 1   
     4    1   32 1   
     5    2    6 ar  
     6    2   14 ar  
     7    3   18 2   
     8    4    6 1   
     9    4   33 1   
    10    4   34 1   
    11    5   18 1   
    12    5   19 1   
    13    5   54 1   
    14    6    8 ar  
    15    7   17 1   
    16    7   19 2   
    17    8   10 ar  
    18    8   35 1   
    19    9   19 1   
    20    9   36 1   
    21    9   37 1   
    22   10   12 ar  
    23   10   17 1   
    24   11   27 ar  
    25   11   28 ar  
    26   12   14 ar  
    27   12   38 1   
    28   13   28 ar  
    29   13   29 ar  
    30   14   15 1   
    31   15   16 1   
    32   15   39 1   
    33   15   40 1   
    34   16   41 1   
    35   16   42 1   
    36   16   43 1   
    37   17   18 1   
    38   17   20 1   
    39   20   21 ar  
    40   20   25 ar  
    41   21   22 ar  
    42   21   47 1   
    43   22   23 ar  
    44   22   48 1   
    45   23   24 ar  
    46   23   49 1   
    47   24   25 ar  
    48   24   26 1   
    49   25   50 1   
    50   26   27 ar  
    51   26   29 ar  
    52   27   51 1   
    53   28   52 1   
    54   29   53 1   
    55   44   54 1   
    56   45   54 1   
    57   46   54 1   
@<TRIPOS>SUBSTRUCTURE
     1 BX2         1 TEMP              0 ****  ****    0 ROOT
