@<TRIPOS>MOLECULE
BX3
   63    57     1     0     0
SMALL
bcc


@<TRIPOS>ATOM
      1 N1          1.6480   -2.6690    9.0420 n1        1 BX3     -0.308000
      2 C2          1.5920   -1.3670    8.8770 c1        1 BX3      0.134000
      3 N3          0.8530   -0.5410    9.8300 n2        1 BX3     -0.391000
      4 C4          2.2960   -0.7210    7.6920 c2        1 BX3     -0.072000
      5 C5          3.5100   -0.0850    7.7930 c2        1 BX3     -0.098000
      6 C6          4.0970    0.4990    6.6540 c1        1 BX3     -0.133000
      7 C7          3.4360    0.4310    5.4050 c1        1 BX3     -0.038500
      8 C8          2.2350   -0.1980    5.3070 c1        1 BX3     -0.038500
      9 C9          1.6430   -0.7880    6.4600 c1        1 BX3     -0.087000
     10 C10         4.0190    1.0120    4.2670 c1        1 BX3     -0.128000
     11 C11         3.3710    0.9440    3.0480 c1        1 BX3     -0.115000
     12 C12         1.5730   -0.2670    4.0590 c1        1 BX3     -0.128000
     13 C13         2.1430    0.3010    2.9480 c1        1 BX3     -0.058000
     14 C14         1.3570    0.1140    1.6040 c3        1 BX3     -0.110000
     15 C15         0.9320    1.4960    1.0650 c3        1 BX3     -0.157000
     16 C16         0.2390    1.3310   -0.2840 c2        1 BX3     -0.035000
     17 C17        -1.0730    0.8480   -0.3310 c2        1 BX3     -0.091000
     18 C18        -1.7990    0.9170   -1.5170 c1        1 BX3     -0.194000
     19 C19        -1.2160    1.4710   -2.6670 c1        1 BX3      0.028000
     20 C20         0.0890    1.9510   -2.6190 c1        1 BX3     -0.162000
     21 C21         0.8190    1.8820   -1.4270 c1        1 BX3     -0.122000
     22 C22        -0.0070    2.1360    2.0270 c2        1 BX3      0.339000
     23 O23        -1.1970    1.7210    2.1150 o         1 BX3     -0.568000
     24 O24         0.3400    3.1780    2.6410 o         1 BX3     -0.568000
     25 O25        -2.0300    1.7450   -3.8140 os        1 BX3     -0.231000
     26 C26        -2.0680    0.6970   -4.5830 c3        1 BX3      0.036000
     27 C27        -1.5660    1.0160   -6.0240 c3        1 BX3     -0.196500
     28 N28        -2.4550   -1.1040   -6.4970 n3        1 BX3     -0.295000
     29 C29        -3.6020   -0.8820   -5.9110 c3        1 BX3     -0.047000
     30 C30        -3.5320    0.3210   -4.9840 c3        1 BX3     -0.196500
     31 C31        -2.0870   -2.4650   -6.7060 c2        1 BX3      0.092000
     32 N32        -1.4570   -3.1200   -5.7750 n1        1 BX3     -0.304000
     33 C33        -2.4320   -3.1530   -8.0190 c3        1 BX3     -0.175000
     34 C34        -1.6340   -0.1850   -6.9550 c3        1 BX3     -0.047000
     35 HN1         1.2230   -3.0600    9.7560 DU        1 BX3      0.133500
     36 HN31        0.7600   -0.8190   10.7070 hn        1 BX3      0.191000
     37 HN32        0.4590    0.2400    9.5510 hn        1 BX3      0.191000
     38 H5          4.0600   -0.1550    8.6050 ha        1 BX3      0.138000
     39 H6          5.0180    0.8270    6.8470 ha        1 BX3      0.122000
     40 H9          0.7960   -1.2940    6.3700 ha        1 BX3      0.145000
     41 H10         4.9090    1.4810    4.3390 ha        1 BX3      0.160500
     42 H11         3.7720    1.3460    2.2630 ha        1 BX3      0.122000
     43 H12         0.6480   -0.6470    4.0050 ha        1 BX3      0.160500
     44 H141        1.9350   -0.3320    0.9450 hc        1 BX3      0.091500
     45 H142        0.5630   -0.4330    1.7650 hc        1 BX3      0.091500
     46 H15         1.7380    2.0710    0.9550 hc        1 BX3      0.094000
     47 H17        -1.4850    0.4590    0.4770 ha        1 BX3      0.191000
     48 H18        -2.7280    0.5750   -1.5490 ha        1 BX3      0.122000
     49 H20         0.4970    2.3400   -3.4250 ha        1 BX3      0.127000
     50 H21         1.7260    2.1710   -1.4080 ha        1 BX3      0.127000
     51 H26        -1.6020   -0.0500   -4.2010 h1        1 BX3      0.097000
     52 H271       -0.6310    1.3260   -5.9730 hc        1 BX3      0.102250
     53 H272       -2.1130    1.7310   -6.3950 hc        1 BX3      0.102250
     54 H291       -4.2750   -0.7220   -6.5850 h1        1 BX3      0.085000
     55 H292       -3.8550   -1.6790   -5.3850 h1        1 BX3      0.085000
     56 H301       -3.9480    1.1020   -5.4410 hc        1 BX3      0.102250
     57 H302       -4.0400    0.1240   -4.1700 hc        1 BX3      0.102250
     58 HN3        -1.2500   -2.7080   -4.9880 DU        1 BX3      0.133500
     59 H331       -1.9690   -4.0150   -8.0680 hc        1 BX3      0.093000
     60 H332       -2.1490   -2.5890   -8.7650 hc        1 BX3      0.093000
     61 H333       -3.4050   -3.3000   -8.0680 hc        1 BX3      0.093000
     62 H341       -1.9460    0.1120   -7.8380 h1        1 BX3      0.085000
     63 H342       -0.7470   -0.5670   -7.0450 h1        1 BX3      0.085000
@<TRIPOS>BOND
     1    1    2 1   
     2    2    4 1   
     3    3   36 1   
     4    3   37 1   
     5    4    5 1   
     6    4    9 1   
     7    5    6 1   
     8    5   38 1   
     9    6   39 1   
    10    7    8 1   
    11    7   10 1   
    12    8   12 1   
    13    9   40 1   
    14   10   41 1   
    15   11   13 1   
    16   11   42 1   
    17   12   43 1   
    18   13   14 1   
    19   14   15 1   
    20   14   44 1   
    21   14   45 1   
    22   15   16 1   
    23   15   22 1   
    24   15   46 1   
    25   16   17 1   
    26   16   21 1   
    27   17   18 1   
    28   17   47 1   
    29   18   48 1   
    30   19   20 1   
    31   19   25 1   
    32   20   49 1   
    33   21   50 1   
    34   22   23 1   
    35   22   24 1   
    36   25   26 1   
    37   26   27 1   
    38   26   30 1   
    39   26   51 1   
    40   27   34 1   
    41   27   52 1   
    42   27   53 1   
    43   28   29 1   
    44   28   31 1   
    45   28   34 1   
    46   29   30 1   
    47   29   54 1   
    48   29   55 1   
    49   30   56 1   
    50   30   57 1   
    51   31   32 1   
    52   31   33 1   
    53   33   59 1   
    54   33   60 1   
    55   33   61 1   
    56   34   62 1   
    57   34   63 1   
@<TRIPOS>SUBSTRUCTURE
     1 BX3         1 TEMP              0 ****  ****    0 ROOT
