@<TRIPOS>MOLECULE
BX3
   64    67     1     0     0
SMALL
bcc


@<TRIPOS>ATOM
      1 N1          2.8200   -1.6920    1.2070 n2        1 BX3     -0.824100
      2 C2          3.3780   -1.7270    0.0350 ce        1 BX3      0.649800
      3 N3          4.2370   -2.7270   -0.4750 nh        1 BX3     -0.958800
      4 C4          3.0430   -0.6480   -0.9500 ca        1 BX3     -0.136900
      5 C5          3.1560    0.7080   -0.5460 ca        1 BX3     -0.093000
      6 C6          2.8590    1.7160   -1.4300 ca        1 BX3     -0.125000
      7 C7          2.4330    1.4180   -2.7520 ca        1 BX3     -0.030000
      8 C8          2.3090    0.0640   -3.1510 ca        1 BX3     -0.040000
      9 C9          2.6210   -0.9660   -2.2220 ca        1 BX3     -0.094000
     10 C10         2.1210    2.4410   -3.6900 ca        1 BX3     -0.116000
     11 C11         1.7040    2.1230   -4.9570 ca        1 BX3     -0.120000
     12 C12         1.8750   -0.2390   -4.4710 ca        1 BX3     -0.118000
     13 C13         1.5730    0.7650   -5.3630 ca        1 BX3     -0.083300
     14 C14         1.1360    0.5060   -6.7620 c3        1 BX3     -0.036100
     15 C15         0.4080   -0.8230   -6.9650 c3        1 BX3     -0.049400
     16 C16        -0.5570   -0.7300   -8.1060 ca        1 BX3     -0.136300
     17 C17        -1.9350   -0.7470   -7.8510 ca        1 BX3     -0.080000
     18 C18        -2.8480   -0.6390   -8.8920 ca        1 BX3     -0.184000
     19 C19        -2.3780   -0.5110  -10.2150 ca        1 BX3      0.139100
     20 C20        -1.0030   -0.4930  -10.4790 ca        1 BX3     -0.184000
     21 C21        -0.1030   -0.6040   -9.4220 ca        1 BX3     -0.080000
     22 C22         1.4070   -1.9230   -7.2310 c         1 BX3      0.640100
     23 O23         1.2850   -2.9910   -6.3920 oh        1 BX3     -0.608100
     24 O24         2.3040   -1.9850   -8.0750 o         1 BX3     -0.553000
     25 O25        -3.3760   -0.3960  -11.1600 os        1 BX3     -0.329900
     26 C26        -2.9930   -0.4610  -12.5430 c3        1 BX3      0.145100
     27 C27        -2.5980    0.9240  -13.0410 c3        1 BX3     -0.129900
     28 N28        -3.6030    0.3980  -15.2910 nh        1 BX3     -0.745600
     29 C29        -4.0200   -0.9000  -14.7880 c3        1 BX3      0.177300
     30 C30        -4.2330   -0.9720  -13.2750 c3        1 BX3     -0.129900
     31 C31        -4.6650    1.3210  -15.6020 c2        1 BX3      0.595200
     32 N32        -4.8140    2.5390  -15.1910 n2        1 BX3     -0.817100
     33 C33        -5.6750    0.7780  -16.6030 c3        1 BX3     -0.131400
     34 C34        -2.4580    0.9140  -14.5640 c3        1 BX3      0.177300
     35 HN1         3.0640   -2.4240    1.8390 hn        1 BX3      0.382400
     36 HN31        1.9400   -3.6690   -6.6260 ho        1 BX3      0.444000
     37 HN32        4.7730   -2.4640   -1.2680 hn        1 BX3      0.398300
     38 H5          3.4690    0.9360    0.4840 ha        1 BX3      0.149000
     39 H6          2.9420    2.7700   -1.1260 ha        1 BX3      0.136000
     40 H9          2.5070   -2.0140   -2.5390 ha        1 BX3      0.146000
     41 H10         2.2200    3.4910   -3.3760 ha        1 BX3      0.135000
     42 H11         1.4620    2.9180   -5.6790 ha        1 BX3      0.134000
     43 H12         1.7860   -1.3000   -4.7580 ha        1 BX3      0.143000
     44 H141        0.4470    1.3330   -7.0880 hc        1 BX3      0.072700
     45 H142        2.0350    0.5410   -7.4390 hc        1 BX3      0.072700
     46 H15        -0.1570   -1.0840   -6.0220 hc        1 BX3      0.095700
     47 H17        -2.3030   -0.8480   -6.8180 ha        1 BX3      0.147000
     48 H18        -3.9300   -0.6510   -8.7030 ha        1 BX3      0.146500
     49 H20        -0.6190   -0.3890  -11.5040 ha        1 BX3      0.146500
     50 H21         0.9820   -0.6050   -9.6230 ha        1 BX3      0.147000
     51 H26        -2.1470   -1.1880  -12.6820 h1        1 BX3      0.055700
     52 H271       -1.6230    1.2340  -12.5840 hc        1 BX3      0.064200
     53 H272       -3.3720    1.6670  -12.7170 hc        1 BX3      0.064200
     54 H291       -3.2090   -1.6320  -15.0730 h1        1 BX3      0.058950
     55 H292       -4.9670   -1.2210  -15.3030 h1        1 BX3      0.058950
     56 H301       -4.4320   -2.0330  -12.9800 hc        1 BX3      0.064200
     57 H302       -5.1210   -0.3610  -12.9700 hc        1 BX3      0.064200
     58 HN3        -4.1570    2.8850  -14.5250 hn        1 BX3      0.385400
     59 H331       -6.1480    1.6160  -17.1730 hc        1 BX3      0.058367
     60 H332       -5.1840    0.0890  -17.3310 hc        1 BX3      0.058367
     61 H333       -6.4760    0.2270  -16.0530 hc        1 BX3      0.058367
     62 H341       -2.2050    1.9490  -14.9250 h1        1 BX3      0.058950
     63 H342       -1.5870    0.2480  -14.8360 h1        1 BX3      0.058950
     64 H33         4.7340   -3.2710    0.1920 hn        1 BX3      0.398300
@<TRIPOS>BOND
     1    1    2 2   
     2    1   35 1   
     3    2    3 1   
     4    2    4 1   
     5    3   37 1   
     6    3   64 1   
     7    4    5 ar  
     8    4    9 ar  
     9    5    6 ar  
    10    5   38 1   
    11    6    7 ar  
    12    6   39 1   
    13    7    8 ar  
    14    7   10 ar  
    15    8    9 ar  
    16    8   12 ar  
    17    9   40 1   
    18   10   11 ar  
    19   10   41 1   
    20   11   13 ar  
    21   11   42 1   
    22   12   13 ar  
    23   12   43 1   
    24   13   14 1   
    25   14   15 1   
    26   14   44 1   
    27   14   45 1   
    28   15   16 1   
    29   15   22 1   
    30   15   46 1   
    31   16   17 ar  
    32   16   21 ar  
    33   17   18 ar  
    34   17   47 1   
    35   18   19 ar  
    36   18   48 1   
    37   19   20 ar  
    38   19   25 1   
    39   20   21 ar  
    40   20   49 1   
    41   21   50 1   
    42   22   23 1   
    43   22   24 2   
    44   23   36 1   
    45   25   26 1   
    46   26   27 1   
    47   26   30 1   
    48   26   51 1   
    49   27   34 1   
    50   27   52 1   
    51   27   53 1   
    52   28   29 1   
    53   28   31 1   
    54   28   34 1   
    55   29   30 1   
    56   29   54 1   
    57   29   55 1   
    58   30   56 1   
    59   30   57 1   
    60   31   32 2   
    61   31   33 1   
    62   32   58 1   
    63   33   59 1   
    64   33   60 1   
    65   33   61 1   
    66   34   62 1   
    67   34   63 1   
@<TRIPOS>SUBSTRUCTURE
     1 BX3         1 TEMP              0 ****  ****    0 ROOT
