@<TRIPOS>MOLECULE
BX3
   63    66     1     0     0
SMALL
bcc


@<TRIPOS>ATOM
      1 N1         -4.2880   -0.2420   -7.2670 n2        1 BX3     -0.830100
      2 C2         -3.1950    0.3730   -7.6070 ce        1 BX3      0.654800
      3 N3         -3.0640    1.3790   -8.5970 nh        1 BX3     -0.954800
      4 C4         -1.9030   -0.0240   -6.9660 ca        1 BX3     -0.167900
      5 C5         -0.7850   -0.3290   -7.7850 ca        1 BX3     -0.133000
      6 C6          0.4160   -0.6630   -7.2110 ca        1 BX3     -0.119000
      7 C7          0.5630   -0.7040   -5.7980 ca        1 BX3     -0.033000
      8 C8         -0.5600   -0.4140   -4.9800 ca        1 BX3     -0.046000
      9 C9         -1.7980   -0.0810   -5.5930 ca        1 BX3     -0.069000
     10 C10         1.8020   -1.0220   -5.1780 ca        1 BX3     -0.144000
     11 C11         1.9150   -1.0520   -3.8120 ca        1 BX3     -0.084000
     12 C12        -0.4190   -0.4550   -3.5670 ca        1 BX3     -0.145000
     13 C13         0.7910   -0.7670   -2.9850 ca        1 BX3     -0.035300
     14 C14         0.9440   -0.8420   -1.5060 c3        1 BX3     -0.029100
     15 C15         1.8740    0.2330   -0.9490 c3        1 BX3     -0.158400
     16 C16         1.6260    0.3970    0.5130 ca        1 BX3     -0.027300
     17 C17         0.8830    1.4830    0.9930 ca        1 BX3     -0.118000
     18 C18         0.6200    1.6240    2.3540 ca        1 BX3     -0.159500
     19 C19         1.1220    0.6710    3.2470 ca        1 BX3      0.057100
     20 C20         1.8890   -0.4090    2.7890 ca        1 BX3     -0.159500
     21 C21         2.1340   -0.5400    1.4270 ca        1 BX3     -0.118000
     22 C22         3.3630   -0.1490   -1.2160 c         1 BX3      0.914600
     23 O23         3.7140   -1.3500   -1.0230 o         1 BX3     -0.831300
     24 O24         4.1270    0.7580   -1.6370 o         1 BX3     -0.831300
     25 O25         0.9250    0.8950    4.6090 os        1 BX3     -0.346900
     26 C26         0.2090   -0.1550    5.2740 c3        1 BX3      0.148100
     27 C27        -1.2930    0.0340    5.0880 c3        1 BX3     -0.127900
     28 N28        -1.6950   -0.8840    7.4000 nh        1 BX3     -0.743600
     29 C29        -0.2570   -1.0130    7.5840 c3        1 BX3      0.175800
     30 C30         0.5930   -0.0560    6.7480 c3        1 BX3     -0.127900
     31 C31        -2.3450    0.1040    8.2220 c2        1 BX3      0.596200
     32 N32        -3.1430    1.0560    7.8570 n2        1 BX3     -0.829100
     33 C33        -2.1010   -0.0810    9.7130 c3        1 BX3     -0.130400
     34 C34        -2.0600   -0.9270    5.9930 c3        1 BX3      0.175800
     35 HN1        -5.1250    0.0690   -7.7130 hn        1 BX3      0.369400
     36 HN31       -3.8620    1.9520   -8.7470 hn        1 BX3      0.390300
     37 HN32       -2.2090    1.8870   -8.5590 hn        1 BX3      0.390300
     38 H5         -0.8960   -0.3090   -8.8790 ha        1 BX3      0.129000
     39 H6          1.2880   -0.9040   -7.8360 ha        1 BX3      0.127000
     40 H9         -2.6670    0.1300   -4.9510 ha        1 BX3      0.139000
     41 H10         2.6710   -1.2370   -5.8170 ha        1 BX3      0.128000
     42 H11         2.8790   -1.2780   -3.3130 ha        1 BX3      0.196000
     43 H12        -1.2990   -0.2310   -2.9460 ha        1 BX3      0.126000
     44 H141        1.3810   -1.8450   -1.2360 hc        1 BX3      0.051700
     45 H142       -0.0650   -0.7590   -1.0200 hc        1 BX3      0.051700
     46 H15         1.6790    1.2080   -1.4720 hc        1 BX3      0.055700
     47 H17         0.5060    2.2380    0.2870 ha        1 BX3      0.157000
     48 H18         0.0420    2.4780    2.7330 ha        1 BX3      0.125000
     49 H20         2.3010   -1.1350    3.5020 ha        1 BX3      0.125000
     50 H21         2.7570   -1.3670    1.0330 ha        1 BX3      0.157000
     51 H26         0.5180   -1.1570    4.8650 h1        1 BX3      0.050700
     52 H271       -1.5630    1.0970    5.3120 hc        1 BX3      0.061450
     53 H272       -1.5640   -0.1650    4.0190 hc        1 BX3      0.061450
     54 H291        0.0010   -0.8780    8.6690 h1        1 BX3      0.053200
     55 H292        0.0050   -2.0720    7.2970 h1        1 BX3      0.053200
     56 H301        0.4590    1.0000    7.0950 hc        1 BX3      0.061450
     57 H302        1.6740   -0.3190    6.8710 hc        1 BX3      0.061450
     58 HN3        -3.2830    1.1860    6.8780 hn        1 BX3      0.387400
     59 H331       -2.9490    0.3430   10.3040 hc        1 BX3      0.053700
     60 H332       -1.9970   -1.1620    9.9690 hc        1 BX3      0.053700
     61 H333       -1.1650    0.4590   10.0000 hc        1 BX3      0.053700
     62 H341       -1.8510   -1.9820    5.6510 h1        1 BX3      0.053200
     63 H342       -3.1660   -0.7570    5.8780 h1        1 BX3      0.053200
@<TRIPOS>BOND
     1    1    2 2   
     2    1   35 1   
     3    2    3 1   
     4    2    4 1   
     5    3   36 1   
     6    3   37 1   
     7    4    5 ar  
     8    4    9 ar  
     9    5    6 ar  
    10    5   38 1   
    11    6    7 ar  
    12    6   39 1   
    13    7    8 ar  
    14    7   10 ar  
    15    8    9 ar  
    16    8   12 ar  
    17    9   40 1   
    18   10   11 ar  
    19   10   41 1   
    20   11   13 ar  
    21   11   42 1   
    22   12   13 ar  
    23   12   43 1   
    24   13   14 1   
    25   14   15 1   
    26   14   44 1   
    27   14   45 1   
    28   15   16 1   
    29   15   22 1   
    30   15   46 1   
    31   16   17 ar  
    32   16   21 ar  
    33   17   18 ar  
    34   17   47 1   
    35   18   19 ar  
    36   18   48 1   
    37   19   20 ar  
    38   19   25 1   
    39   20   21 ar  
    40   20   49 1   
    41   21   50 1   
    42   22   23 1   
    43   22   24 1   
    44   25   26 1   
    45   26   27 1   
    46   26   30 1   
    47   26   51 1   
    48   27   34 1   
    49   27   52 1   
    50   27   53 1   
    51   28   29 1   
    52   28   31 1   
    53   28   34 1   
    54   29   30 1   
    55   29   54 1   
    56   29   55 1   
    57   30   56 1   
    58   30   57 1   
    59   31   32 2   
    60   31   33 1   
    61   32   58 1   
    62   33   59 1   
    63   33   60 1   
    64   33   61 1   
    65   34   62 1   
    66   34   63 1   
@<TRIPOS>SUBSTRUCTURE
     1 BX3         1 TEMP              0 ****  ****    0 ROOT
