@<TRIPOS>MOLECULE
BX3
   64    67     1     0     0
SMALL
bcc


@<TRIPOS>ATOM
      1 N1          2.7890   -1.5240    1.2420 n2        1 BX3     -0.824100
      2 C2          3.3200   -1.6880    0.0680 ce        1 BX3      0.649800
      3 N3          4.0540   -2.8040   -0.3920 nh        1 BX3     -0.958800
      4 C4          3.0900   -0.6350   -0.9730 ca        1 BX3     -0.136900
      5 C5          3.3590    0.7200   -0.6490 ca        1 BX3     -0.093000
      6 C6          3.1620    1.7040   -1.5870 ca        1 BX3     -0.125000
      7 C7          2.6820    1.3830   -2.8850 ca        1 BX3     -0.030000
      8 C8          2.4020    0.0300   -3.2040 ca        1 BX3     -0.040000
      9 C9          2.6130   -0.9740   -2.2200 ca        1 BX3     -0.094000
     10 C10         2.4700    2.3800   -3.8760 ca        1 BX3     -0.116000
     11 C11         1.9980    2.0410   -5.1180 ca        1 BX3     -0.120000
     12 C12         1.9140   -0.2950   -4.4990 ca        1 BX3     -0.118000
     13 C13         1.7100    0.6850   -5.4440 ca        1 BX3     -0.083300
     14 C14         1.2230    0.3980   -6.8210 c3        1 BX3     -0.036100
     15 C15         0.3470   -0.8500   -6.9390 c3        1 BX3     -0.049400
     16 C16        -0.6200   -0.7130   -8.0730 ca        1 BX3     -0.136300
     17 C17        -1.9880   -0.5620   -7.8030 ca        1 BX3     -0.080000
     18 C18        -2.9000   -0.4110   -8.8380 ca        1 BX3     -0.184000
     19 C19        -2.4420   -0.4090  -10.1710 ca        1 BX3      0.139100
     20 C20        -1.0780   -0.5590  -10.4510 ca        1 BX3     -0.184000
     21 C21        -0.1780   -0.7120   -9.3990 ca        1 BX3     -0.080000
     22 C22         1.2130   -2.0680   -7.1520 c         1 BX3      0.640100
     23 O23         0.9870   -3.0670   -6.2520 oh        1 BX3     -0.608100
     24 O24         2.0830   -2.2770   -8.0020 o         1 BX3     -0.553000
     25 O25        -3.4370   -0.2360  -11.1100 os        1 BX3     -0.329900
     26 C26        -3.0860   -0.4120  -12.4920 c3        1 BX3      0.145100
     27 C27        -2.5480    0.8940  -13.0650 c3        1 BX3     -0.129900
     28 N28        -3.6410    0.3710  -15.2730 nh        1 BX3     -0.745600
     29 C29        -4.1920   -0.8450  -14.7000 c3        1 BX3      0.177300
     30 C30        -4.3870   -0.8170  -13.1830 c3        1 BX3     -0.129900
     31 C31        -4.6000    1.3920  -15.6210 c2        1 BX3      0.595200
     32 N32        -4.6060    2.6370  -15.2710 n2        1 BX3     -0.817100
     33 C33        -5.6800    0.9150  -16.5810 c3        1 BX3     -0.131400
     34 C34        -2.4340    0.7930  -14.5860 c3        1 BX3      0.177300
     35 HN1         2.9610   -2.2430    1.9130 hn        1 BX3      0.382400
     36 HN31        4.4980   -3.3630    0.2990 hn        1 BX3      0.398300
     37 HN32        1.5590   -3.8260   -6.4540 ho        1 BX3      0.444000
     38 H5          3.7140    0.9690    0.3630 ha        1 BX3      0.149000
     39 H6          3.3660    2.7580   -1.3450 ha        1 BX3      0.136000
     40 H9          2.3780   -2.0200   -2.4750 ha        1 BX3      0.146000
     41 H10         2.6900    3.4280   -3.6250 ha        1 BX3      0.135000
     42 H11         1.8340    2.8150   -5.8830 ha        1 BX3      0.134000
     43 H12         1.7020   -1.3540   -4.7240 ha        1 BX3      0.143000
     44 H141        0.6250    1.2780   -7.1860 hc        1 BX3      0.072700
     45 H142        2.1090    0.2940   -7.5080 hc        1 BX3      0.072700
     46 H15        -0.2260   -0.9930   -5.9770 hc        1 BX3      0.095700
     47 H17        -2.3460   -0.5650   -6.7620 ha        1 BX3      0.147000
     48 H18        -3.9740   -0.2910   -8.6370 ha        1 BX3      0.146500
     49 H20        -0.7030   -0.5550  -11.4830 ha        1 BX3      0.146500
     50 H21         0.8970   -0.8450   -9.6110 ha        1 BX3      0.147000
     51 H26        -2.3290   -1.2350  -12.6020 h1        1 BX3      0.054700
     52 H271       -3.2300    1.7340  -12.7710 hc        1 BX3      0.064200
     53 H272       -1.5380    1.1150  -12.6340 hc        1 BX3      0.064200
     54 H291       -3.4720   -1.6750  -14.9560 h1        1 BX3      0.058950
     55 H292       -5.1770   -1.0840  -15.1880 h1        1 BX3      0.058950
     56 H301       -4.6980   -1.8330  -12.8320 hc        1 BX3      0.064200
     57 H302       -5.1970   -0.0960  -12.9010 hc        1 BX3      0.064200
     58 HN3        -3.9040    2.9400  -14.6300 hn        1 BX3      0.385400
     59 H331       -6.5280    0.4850  -15.9950 hc        1 BX3      0.058367
     60 H332       -5.2800    0.1400  -17.2780 hc        1 BX3      0.058367
     61 H333       -6.0670    1.7710  -17.1880 hc        1 BX3      0.058367
     62 H341       -1.6480    0.0210  -14.8330 h1        1 BX3      0.058950
     63 H342       -2.0750    1.7740  -15.0020 h1        1 BX3      0.058950
     64 H33         4.6020   -2.6480   -1.2050 hn        1 BX3      0.398300
@<TRIPOS>BOND
     1    1    2 2   
     2    1   35 1   
     3    2    3 1   
     4    2    4 1   
     5    3   36 1   
     6    3   64 1   
     7    4    5 ar  
     8    4    9 ar  
     9    5    6 ar  
    10    5   38 1   
    11    6    7 ar  
    12    6   39 1   
    13    7    8 ar  
    14    7   10 ar  
    15    8    9 ar  
    16    8   12 ar  
    17    9   40 1   
    18   10   11 ar  
    19   10   41 1   
    20   11   13 ar  
    21   11   42 1   
    22   12   13 ar  
    23   12   43 1   
    24   13   14 1   
    25   14   15 1   
    26   14   44 1   
    27   14   45 1   
    28   15   16 1   
    29   15   22 1   
    30   15   46 1   
    31   16   17 ar  
    32   16   21 ar  
    33   17   18 ar  
    34   17   47 1   
    35   18   19 ar  
    36   18   48 1   
    37   19   20 ar  
    38   19   25 1   
    39   20   21 ar  
    40   20   49 1   
    41   21   50 1   
    42   22   23 1   
    43   22   24 2   
    44   23   37 1   
    45   25   26 1   
    46   26   27 1   
    47   26   30 1   
    48   26   51 1   
    49   27   34 1   
    50   27   52 1   
    51   27   53 1   
    52   28   29 1   
    53   28   31 1   
    54   28   34 1   
    55   29   30 1   
    56   29   54 1   
    57   29   55 1   
    58   30   56 1   
    59   30   57 1   
    60   31   32 2   
    61   31   33 1   
    62   32   58 1   
    63   33   59 1   
    64   33   60 1   
    65   33   61 1   
    66   34   62 1   
    67   34   63 1   
@<TRIPOS>SUBSTRUCTURE
     1 BX3         1 TEMP              0 ****  ****    0 ROOT
