@<TRIPOS>MOLECULE
BX3
   64    67     1     0     0
SMALL
bcc


@<TRIPOS>ATOM
      1 N1          3.0100   -1.5650    1.1570 n2        1 BX3     -0.824100
      2 C2          3.5290   -1.6750   -0.0290 ce        1 BX3      0.649800
      3 N3          4.3110   -2.7420   -0.5250 nv        1 BX3     -0.958800
      4 C4          3.2290   -0.6120   -1.0420 ca        1 BX3     -0.136900
      5 C5          3.4340    0.7480   -0.6900 ca        1 BX3     -0.093000
      6 C6          3.1720    1.7410   -1.6010 ca        1 BX3     -0.125000
      7 C7          2.6890    1.4250   -2.8990 ca        1 BX3     -0.030000
      8 C8          2.4720    0.0670   -3.2450 ca        1 BX3     -0.040000
      9 C9          2.7500   -0.9470   -2.2890 ca        1 BX3     -0.094000
     10 C10         2.4100    2.4310   -3.8640 ca        1 BX3     -0.116000
     11 C11         1.9350    2.0960   -5.1060 ca        1 BX3     -0.120000
     12 C12         1.9800   -0.2540   -4.5400 ca        1 BX3     -0.118000
     13 C13         1.7120    0.7350   -5.4600 ca        1 BX3     -0.083300
     14 C14         1.2180    0.4550   -6.8350 c3        1 BX3     -0.036100
     15 C15         0.4060   -0.8340   -6.9690 c3        1 BX3     -0.049400
     16 C16        -0.5860   -0.7210   -8.0850 ca        1 BX3     -0.136300
     17 C17        -1.9550   -0.6470   -7.7900 ca        1 BX3     -0.080000
     18 C18        -2.8910   -0.5200   -8.8080 ca        1 BX3     -0.184000
     19 C19        -2.4550   -0.4660  -10.1470 ca        1 BX3      0.139100
     20 C20        -1.0910   -0.5390  -10.4510 ca        1 BX3     -0.184000
     21 C21        -0.1670   -0.6680   -9.4170 ca        1 BX3     -0.080000
     22 C22         1.3290   -2.0000   -7.2240 c         1 BX3      0.640100
     23 O23         1.1710   -3.0290   -6.3440 oh        1 BX3     -0.608100
     24 O24         2.1950   -2.1450   -8.0910 o         1 BX3     -0.553000
     25 O25        -3.4740   -0.3230  -11.0660 os        1 BX3     -0.329900
     26 C26        -3.1370   -0.4510  -12.4570 c3        1 BX3      0.145100
     27 C27        -2.6760    0.8930  -13.0090 c3        1 BX3     -0.129900
     28 N28        -3.7780    0.3620  -15.2110 nh        1 BX3     -0.745600
     29 C29        -4.2560   -0.8930  -14.6570 c3        1 BX3      0.177300
     30 C30        -4.4270   -0.9070  -13.1370 c3        1 BX3     -0.129900
     31 C31        -4.7930    1.3390  -15.5210 c2        1 BX3      0.595200
     32 N32        -4.8570    2.5750  -15.1430 n2        1 BX3     -0.817100
     33 C33        -5.8620    0.8290  -16.4750 c3        1 BX3     -0.131400
     34 C34        -2.5830    0.8300  -14.5330 c3        1 BX3      0.177300
     35 HN1         3.2280   -2.2890    1.8080 hn        1 BX3      0.382400
     36 HN31        1.7770   -3.7530   -6.5730 ho        1 BX3      0.444000
     37 HN32        4.8370   -2.5400   -1.3430 hn        1 BX3      0.398300
     38 H5          3.7920    0.9920    0.3220 ha        1 BX3      0.149000
     39 H6          3.3260    2.7980   -1.3380 ha        1 BX3      0.136000
     40 H9          2.5640   -1.9970   -2.5650 ha        1 BX3      0.146000
     41 H10         2.5800    3.4840   -3.5920 ha        1 BX3      0.135000
     42 H11         1.7200    2.8790   -5.8500 ha        1 BX3      0.134000
     43 H12         1.8200   -1.3170   -4.7870 ha        1 BX3      0.143000
     44 H141        0.5680    1.3110   -7.1700 hc        1 BX3      0.072700
     45 H142        2.0960    0.4130   -7.5380 hc        1 BX3      0.072700
     46 H15        -0.1440   -1.0280   -6.0020 hc        1 BX3      0.095700
     47 H17        -2.2960   -0.6910   -6.7440 ha        1 BX3      0.147000
     48 H18        -3.9660   -0.4610   -8.5870 ha        1 BX3      0.146500
     49 H20        -0.7330   -0.4930  -11.4890 ha        1 BX3      0.146500
     50 H21         0.9100   -0.7410   -9.6480 ha        1 BX3      0.147000
     51 H26        -2.3400   -1.2320  -12.5980 h1        1 BX3      0.054700
     52 H271       -3.3950    1.6900  -12.6850 hc        1 BX3      0.064200
     53 H272       -1.6720    1.1560  -12.5890 hc        1 BX3      0.064200
     54 H291       -5.2360   -1.1710  -15.1340 h1        1 BX3      0.058950
     55 H292       -3.4990   -1.6790  -14.9430 h1        1 BX3      0.058950
     56 H301       -5.2680   -0.2360  -12.8260 hc        1 BX3      0.064200
     57 H302       -4.6790   -1.9460  -12.8040 hc        1 BX3      0.064200
     58 HN3        -4.1600    2.9000  -14.5070 hn        1 BX3      0.385400
     59 H331       -6.6780    0.3430  -15.8860 hc        1 BX3      0.058367
     60 H332       -5.4350    0.0910  -17.1950 hc        1 BX3      0.058367
     61 H333       -6.3030    1.6760  -17.0560 hc        1 BX3      0.058367
     62 H341       -1.7620    0.1050  -14.8090 h1        1 BX3      0.058950
     63 H342       -2.2800    1.8370  -14.9330 h1        1 BX3      0.058950
     64 H33         4.7940   -3.2920    0.1460 hn        1 BX3      0.398300
@<TRIPOS>BOND
     1    1    2 2   
     2    1   35 1   
     3    2    3 1   
     4    2    4 1   
     5    3   37 1   
     6    3   64 1   
     7    4    5 ar  
     8    4    9 ar  
     9    5    6 ar  
    10    5   38 1   
    11    6    7 ar  
    12    6   39 1   
    13    7    8 ar  
    14    7   10 ar  
    15    8    9 ar  
    16    8   12 ar  
    17    9   40 1   
    18   10   11 ar  
    19   10   41 1   
    20   11   13 ar  
    21   11   42 1   
    22   12   13 ar  
    23   12   43 1   
    24   13   14 1   
    25   14   15 1   
    26   14   44 1   
    27   14   45 1   
    28   15   16 1   
    29   15   22 1   
    30   15   46 1   
    31   16   17 ar  
    32   16   21 ar  
    33   17   18 ar  
    34   17   47 1   
    35   18   19 ar  
    36   18   48 1   
    37   19   20 ar  
    38   19   25 1   
    39   20   21 ar  
    40   20   49 1   
    41   21   50 1   
    42   22   23 1   
    43   22   24 2   
    44   23   36 1   
    45   25   26 1   
    46   26   27 1   
    47   26   30 1   
    48   26   51 1   
    49   27   34 1   
    50   27   52 1   
    51   27   53 1   
    52   28   29 1   
    53   28   31 1   
    54   28   34 1   
    55   29   30 1   
    56   29   54 1   
    57   29   55 1   
    58   30   56 1   
    59   30   57 1   
    60   31   32 2   
    61   31   33 1   
    62   32   58 1   
    63   33   59 1   
    64   33   60 1   
    65   33   61 1   
    66   34   62 1   
    67   34   63 1   
@<TRIPOS>SUBSTRUCTURE
     1 BX3         1 TEMP              0 ****  ****    0 ROOT
