@<TRIPOS>MOLECULE
BX7
   60    63     1     0     0
SMALL
bcc


@<TRIPOS>ATOM
      1 I01         1.8490    4.0090    1.2900 i         1 BX7     -0.128900
      2 S02         8.3800   -3.2200   -1.3230 ss        1 BX7      0.041200
      3 O03        -5.5120   -2.3650    0.6580 o         1 BX7     -0.621100
      4 O04         5.3270   -3.5270    1.1460 o         1 BX7     -0.592100
      5 N05        -7.7540   -2.8830    0.8580 n         1 BX7     -0.442800
      6 N08        -2.5090    0.6430   -1.4530 nh        1 BX7     -0.705300
      7 N09         5.3880   -2.4870   -0.9030 n         1 BX7     -0.563900
      8 N10        -0.2790    0.8170   -0.7010 nb        1 BX7     -0.818000
      9 N11        -1.8650    2.6460   -0.2570 nb        1 BX7     -0.765000
     10 C12        -8.5060   -5.1490    1.2880 c3        1 BX7     -0.091400
     11 C13        -9.5650   -4.4410    0.4510 c3        1 BX7     -0.091400
     12 C14        -8.9970   -3.0500    0.1190 c3        1 BX7      0.069500
     13 C15        -7.3960   -4.1200    1.5470 c3        1 BX7      0.069500
     14 C16        -6.6930   -2.1020    0.3340 c         1 BX7      0.754100
     15 C17        -6.1300    0.0220   -0.8330 ca        1 BX7      0.079600
     16 C18        -4.7390   -0.1660   -0.9100 ca        1 BX7     -0.181000
     17 C19         3.8040   -0.6140   -0.4270 c3        1 BX7     -0.126400
     18 C20        -6.6700    1.2920   -1.1530 ca        1 BX7     -0.191000
     19 C22        -3.8950    0.8950   -1.3080 ca        1 BX7      0.151600
     20 C23         4.0150   -2.0710   -0.8490 c3        1 BX7      0.087000
     21 C24        -5.8300    2.3220   -1.5520 ca        1 BX7     -0.098000
     22 C25        -4.4530    2.1430   -1.6420 ca        1 BX7     -0.128000
     23 C26         0.7230    1.5620   -0.1340 ca        1 BX7      0.755200
     24 C27        -1.5340    1.3930   -0.7670 ca        1 BX7      0.919900
     25 C28         0.4570    2.8630    0.4130 ca        1 BX7     -0.342700
     26 C29         5.9930   -3.1430    0.1640 c         1 BX7      0.701700
     27 C30        -0.8630    3.3260    0.3110 ca        1 BX7      0.521200
     28 C31         7.4360   -3.4050    0.0570 cc        1 BX7     -0.198700
     29 C32         8.1940   -3.8660    1.1220 cd        1 BX7     -0.081000
     30 C33         9.5620   -4.0440    0.7560 cd        1 BX7     -0.169000
     31 C34         9.7780   -3.7170   -0.5670 cc        1 BX7     -0.150100
     32 H1         -7.9840   -0.7650   -0.5600 hn        1 BX7      0.310500
     33 H2          2.6560    1.5060    0.4930 hn        1 BX7      0.438800
     34 H3         -2.2800   -0.3240   -1.5800 hn        1 BX7      0.443800
     35 H4          5.9700   -2.0080   -1.5500 hn        1 BX7      0.300500
     36 H5         -8.9340   -5.5090    2.2550 hc        1 BX7      0.053950
     37 H6         -8.0940   -6.0340    0.7450 hc        1 BX7      0.053950
     38 H7         -9.7820   -5.0050   -0.4890 hc        1 BX7      0.053950
     39 H8        -10.5210   -4.3400    1.0200 hc        1 BX7      0.053950
     40 H9         -9.7100   -2.2430    0.4430 h1        1 BX7      0.055450
     41 H10        -8.8460   -2.9590   -0.9920 h1        1 BX7      0.055450
     42 H11        -6.3960   -4.5050    1.2020 h1        1 BX7      0.055450
     43 H12        -7.3150   -3.8830    2.6430 h1        1 BX7      0.055450
     44 H13        -4.3030   -1.1460   -0.6480 ha        1 BX7      0.174000
     45 H14         4.3810    0.0730   -1.0990 hc        1 BX7      0.053200
     46 H15         4.1790   -0.4650    0.6180 hc        1 BX7      0.053200
     47 H16        -7.7540    1.4720   -1.0930 ha        1 BX7      0.129000
     48 H17         1.7460   -1.0170    0.1530 h1        1 BX7      0.057700
     49 H18         1.9550   -0.4560   -1.5670 h1        1 BX7      0.057700
     50 H19         3.5760   -2.2170   -1.8780 h1        1 BX7      0.068700
     51 H20         3.4630   -2.7430   -0.1290 h1        1 BX7      0.068700
     52 H21        -6.2620    3.3030   -1.8040 ha        1 BX7      0.135000
     53 H22        -3.8170    2.9800   -1.9670 ha        1 BX7      0.157000
     54 H23        -1.1480    4.3180    0.7150 h4        1 BX7      0.034100
     55 H24         7.7910   -4.0710    2.1190 ha        1 BX7      0.176000
     56 H25        10.3260   -4.3980    1.4510 ha        1 BX7      0.161000
     57 H26        10.7370   -3.7730   -1.0820 h4        1 BX7      0.176000
     58 N07         2.0170    1.0660   -0.1340 nh        1 BX7     -0.856900
     59 N06        -7.0200   -1.0210   -0.5100 n         1 BX7     -0.456100
     60 C21         2.3110   -0.2950   -0.5080 c3        1 BX7      0.213800
@<TRIPOS>BOND
     1    1   25 1   
     2    2   28 1   
     3    2   31 1   
     4    3   14 2   
     5    4   26 2   
     6    5   12 1   
     7    5   13 1   
     8    5   14 1   
     9    6   19 1   
    10    6   24 1   
    11    6   34 1   
    12    7   20 1   
    13    7   26 1   
    14    7   35 1   
    15    8   23 ar  
    16    8   24 ar  
    17    9   24 ar  
    18    9   27 ar  
    19   10   11 1   
    20   10   13 1   
    21   10   36 1   
    22   10   37 1   
    23   11   12 1   
    24   11   38 1   
    25   11   39 1   
    26   12   40 1   
    27   12   41 1   
    28   13   42 1   
    29   13   43 1   
    30   14   59 1   
    31   15   16 ar  
    32   15   18 ar  
    33   15   59 1   
    34   16   19 ar  
    35   16   44 1   
    36   17   20 1   
    37   17   45 1   
    38   17   46 1   
    39   17   60 1   
    40   18   21 ar  
    41   18   47 1   
    42   19   22 ar  
    43   20   50 1   
    44   20   51 1   
    45   21   22 ar  
    46   21   52 1   
    47   22   53 1   
    48   23   25 ar  
    49   23   58 1   
    50   25   27 ar  
    51   26   28 1   
    52   27   54 1   
    53   28   29 2   
    54   29   30 1   
    55   29   55 1   
    56   30   31 2   
    57   30   56 1   
    58   31   57 1   
    59   32   59 1   
    60   33   58 1   
    61   48   60 1   
    62   49   60 1   
    63   58   60 1   
@<TRIPOS>SUBSTRUCTURE
     1 BX7         1 TEMP              0 ****  ****    0 ROOT
