@<TRIPOS>MOLECULE
BX7
   61    58     1     0     0
SMALL
bcc


@<TRIPOS>ATOM
      1 I01         5.6210   -4.4640    1.7490 i         1 BX7      0.148000
      2 S02         3.0250   -0.7050    6.6740 ss        1 BX7      1.310000
      3 O03         7.3640   -1.4970   -4.5170 o         1 BX7     -0.344000
      4 O04         6.8500   -1.0240    6.2750 o         1 BX7     -0.236000
      5 N05         7.9110   -3.2840   -5.8670 ns        1 BX7     -0.227000
      6 N08         6.6270    0.7190   -2.2190 n7        1 BX7     -0.262000
      7 N09         5.1630   -1.7210    4.8320 ny        1 BX7     -0.183000
      8 N10         6.0030   -1.1760   -1.0100 n2        1 BX7     -0.269000
      9 N11         5.7390    1.0180   -0.0120 n2        1 BX7     -0.366000
     10 C12         9.0320   -4.5140   -1.5140 cx        1 BX7     -0.228000
     11 C13         9.3850   -4.6550   -2.9660 cx        1 BX7     -0.228000
     12 C14         7.9420   -3.8030   -7.0730 c1        1 BX7     -0.136000
     13 C15         8.0030   -4.2200   -2.5670 cx        1 BX7     -0.228000
     14 C16         7.3970   -1.9530   -5.6760 c2        1 BX7      0.344000
     15 C17         6.4830    0.0210   -6.8320 c1        1 BX7      0.076000
     16 C18         7.3230    2.9900   -1.6820 c2        1 BX7     -0.212000
     17 C19         3.4660   -1.0070    3.1380 c3        1 BX7     -0.280000
     18 C20         6.3520    0.8520   -5.7160 c1        1 BX7     -0.159000
     19 C22         6.6870    2.1090   -2.4750 c2        1 BX7     -0.006000
     20 C23         3.8440   -1.2920    4.5240 c1        1 BX7      0.065000
     21 C24         6.1990    1.6610   -4.8380 c1        1 BX7     -0.123000
     22 C25         6.0370    2.5850   -3.7600 c3        1 BX7     -0.033000
     23 C26         5.5870   -1.9150    0.1050 c2        1 BX7      0.130000
     24 C27         6.1080    0.1500   -1.0610 c2        1 BX7      0.343000
     25 C28         6.1530   -3.1240    0.3550 c2        1 BX7     -0.345000
     26 C29         5.6300   -1.0570    6.1980 c2        1 BX7      0.390000
     27 C30         5.4360    1.7280    0.8870 c1        1 BX7      0.188000
     28 C31         4.5740   -0.6510    7.0170 c2        1 BX7     -0.921000
     29 C32         2.9270    0.9500   10.0800 c1        1 BX7     -0.081000
     30 C33         2.6120    0.4640    9.0290 c1        1 BX7     -0.183000
     31 C34         2.2240   -0.0950    7.8200 c2        1 BX7     -0.541000
     32 H1          7.0010   -1.7010   -7.7030 hn        1 BX7      0.307000
     33 H2          3.6540   -1.1850    0.3890 hn        1 BX7      0.200000
     34 H3          6.7910    0.1080   -3.0050 hn        1 BX7      0.303000
     35 H4          5.8610   -1.5350    4.0810 hn        1 BX7      0.276000
     36 H5          7.1620   -4.9230   -2.7010 hc        1 BX7      0.114833
     37 H6          7.6960   -3.1700   -2.7410 hc        1 BX7      0.114833
     38 H7         10.0730   -3.9180   -3.4200 hc        1 BX7      0.114833
     39 H8          8.9280   -5.4260   -0.9000 hc        1 BX7      0.114833
     40 H9          8.3490   -4.8300   -7.1550 ha        1 BX7      0.077000
     41 H10         9.5330   -5.6670   -3.3840 hc        1 BX7      0.114833
     42 H11         9.4660   -3.6780   -0.9380 hc        1 BX7      0.114833
     43 H12         8.2130   -3.7140   -5.0050 hn        1 BX7      0.213000
     44 H13         7.8290    2.7210   -0.7470 ha        1 BX7      0.138000
     45 H14         7.8110   -0.5840    3.9160 ha        1 BX7      0.002000
     46 H15         8.3000   -0.9160    4.2470 ha        1 BX7      0.002000
     47 H16         7.3700    4.0550   -1.9490 ha        1 BX7      0.138000
     48 H17         3.2570    0.1080    3.0750 hc        1 BX7      0.187500
     49 H18         2.4700   -1.5120    2.9500 hc        1 BX7      0.187500
     50 H19         6.3070    1.0000    3.1660 ha        1 BX7      0.002000
     51 H20         5.7550    0.6050    3.1930 ha        1 BX7      0.002000
     52 H21         6.4810    3.5810   -4.0460 hc        1 BX7      0.130500
     53 H22         4.9370    2.7480   -3.5700 hc        1 BX7      0.130500
     54 H23         6.9900   -3.4740   -0.2760 h4        1 BX7      0.197000
     55 H24         3.2090    1.3800   11.0120 ha        1 BX7      0.248000
     56 H25         4.9420   -0.2540    7.9850 h4        1 BX7      0.222000
     57 H26         1.1130   -0.0790    7.6880 h4        1 BX7      0.203000
     58 C21         4.5560   -1.4150    2.2100 c1        1 BX7     -0.228000
     59 H092        5.1490   -2.7390    4.9880 hn        1 BX7      0.276000
     60 N07         4.4700   -1.4460    0.9160 n7        1 BX7     -0.130000
     61 N06         6.9450   -1.2120   -6.8180 ns        1 BX7     -0.183000
@<TRIPOS>BOND
     1    1   25 1   
     2    2   28 1   
     3    2   31 1   
     4    3   14 1   
     5    4   26 1   
     6    5   12 1   
     7    5   14 1   
     8    5   43 1   
     9    6   19 1   
    10    6   24 1   
    11    6   34 1   
    12    7   20 1   
    13    7   26 1   
    14    7   35 1   
    15    7   59 1   
    16    8   23 1   
    17    8   24 1   
    18    9   24 1   
    19    9   27 1   
    20   10   11 1   
    21   10   13 1   
    22   10   39 1   
    23   10   42 1   
    24   11   13 1   
    25   11   38 1   
    26   11   41 1   
    27   12   40 1   
    28   13   36 1   
    29   13   37 1   
    30   14   61 1   
    31   15   18 1   
    32   15   61 1   
    33   16   19 1   
    34   16   44 1   
    35   16   47 1   
    36   17   20 1   
    37   17   48 1   
    38   17   49 1   
    39   17   58 1   
    40   18   21 1   
    41   19   22 1   
    42   21   22 1   
    43   22   52 1   
    44   22   53 1   
    45   23   25 1   
    46   23   60 1   
    47   25   54 1   
    48   26   28 1   
    49   28   56 1   
    50   29   30 1   
    51   29   55 1   
    52   30   31 1   
    53   31   57 1   
    54   32   61 1   
    55   33   60 1   
    56   45   46 1   
    57   50   51 1   
    58   58   60 1   
@<TRIPOS>SUBSTRUCTURE
     1 BX7         1 TEMP              0 ****  ****    0 ROOT
