@<TRIPOS>MOLECULE
BX7
   60    54     1     0     0
SMALL
bcc


@<TRIPOS>ATOM
      1 I01        -4.0290    0.4200    1.1980 i         1 BX7      0.186000
      2 S02        -4.9500   -1.9810    9.4130 ss        1 BX7      0.576000
      3 O03         1.9420    1.0140   -6.3220 o         1 BX7     -0.377000
      4 O04        -5.5900    1.1510    7.3590 o         1 BX7     -0.352000
      5 N05         4.0480    1.4170   -7.2710 n         1 BX7     -0.300000
      6 N06         3.6880   -0.1020   -5.2800 n         1 BX7     -0.311000
      7 N07        -0.9210   -0.3010    3.2610 n3        1 BX7     -0.254000
      8 N08         1.7350   -0.0370   -0.7700 n3        1 BX7     -0.228000
      9 N09        -3.6680   -0.1060    7.1980 n3        1 BX7     -0.374000
     10 N10         0.3740   -0.0760    1.2200 n1        1 BX7     -0.283000
     11 N11        -0.6290    0.1530   -0.9040 n1        1 BX7     -0.211000
     12 C12         4.8050    2.0400   -9.3340 c3        1 BX7     -0.170000
     13 C13         5.9250    1.2150   -8.6680 c3        1 BX7     -0.170000
     14 C14         5.6360    1.2300   -7.3750 c3        1 BX7     -0.047000
     15 C15         3.7110    2.2330   -8.2230 c3        1 BX7     -0.047000
     16 C16         3.1490    0.7830   -6.2890 c2        1 BX7      0.380000
     17 C17         2.7930   -0.7260   -4.2940 c1        1 BX7      0.087000
     18 C18         2.6270   -0.1450   -3.0550 c1        1 BX7     -0.218000
     19 C19        -2.0920   -0.1430    5.3560 c3        1 BX7     -0.191000
     20 C20         2.2350   -1.9750   -4.5550 c1        1 BX7     -0.143000
     21 C21        -1.7470    0.5490    4.0250 c3        1 BX7     -0.067000
     22 C22         1.8920   -0.8170   -2.0530 c1        1 BX7      0.067000
     23 C23        -3.1430    0.6640    6.0840 c3        1 BX7     -0.032000
     24 C24         1.5060   -2.6400   -3.5580 c1        1 BX7     -0.113500
     25 C25         1.3410   -2.0520   -2.3110 c1        1 BX7     -0.113500
     26 C26        -0.8150   -0.1120    1.7960 c2        1 BX7      0.179000
     27 C27         0.4790    0.0590   -0.1540 c1        1 BX7      0.185000
     28 C28        -1.9420   -0.0160    1.0350 c2        1 BX7     -0.430000
     29 C29        -4.9960    0.2110    7.7510 c1        1 BX7      0.376000
     30 C30        -1.8390    0.1170   -0.3210 c1        1 BX7      0.033000
     31 C31        -5.6170   -0.7000    8.7980 c1        1 BX7     -0.432500
     32 C32        -6.8570   -0.4730    9.4890 c1        1 BX7     -0.124500
     33 C33        -7.0350   -1.6290   10.5990 c1        1 BX7     -0.124500
     34 C34        -5.8870   -2.5080   10.5290 c1        1 BX7     -0.432500
     35 H1          4.5140   -0.2800   -5.2730 hn        1 BX7      0.222000
     36 H2         -0.3810   -0.9720    3.7010 hn        1 BX7      0.189000
     37 H3          2.4650    0.3410   -0.3730 hn        1 BX7      0.235000
     38 H4         -3.1550   -0.7700    7.5830 hn        1 BX7      0.213000
     39 H5          4.4250    1.5430  -10.1100 hc        1 BX7      0.093500
     40 H6          5.1360    2.8690   -9.6100 hc        1 BX7      0.093500
     41 H7          6.7740    1.6190   -8.8240 hc        1 BX7      0.093500
     42 H8          5.9160    0.3000   -9.0050 hc        1 BX7      0.093500
     43 H9          5.8910    0.4250   -6.9810 h1        1 BX7      0.094500
     44 H10         6.1010    1.9940   -6.9270 h1        1 BX7      0.094500
     45 H11         3.7160    3.1890   -7.8850 h1        1 BX7      0.094500
     46 H12         2.8520    2.0060   -8.5630 h1        1 BX7      0.094500
     47 H13         3.1010    0.6600   -2.8390 ha        1 BX7      0.128000
     48 H14        -2.4180   -0.9970    5.1850 hc        1 BX7      0.094500
     49 H15        -1.2870   -0.2050    5.9080 hc        1 BX7      0.094500
     50 H16         2.3500   -2.3850   -5.4250 ha        1 BX7      0.173000
     51 H17        -2.5890    0.7400    3.5190 h1        1 BX7      0.089000
     52 H18        -1.2650    1.4120    4.2100 h1        1 BX7      0.089000
     53 H19        -3.8680    0.8790    5.4700 h1        1 BX7      0.106000
     54 H20        -2.7330    1.5100    6.4280 h1        1 BX7      0.106000
     55 H21         1.1240   -3.4950   -3.7360 ha        1 BX7      0.148000
     56 H22         0.8270   -2.5200   -1.6080 ha        1 BX7      0.148000
     57 H23        -2.6060    0.1830   -0.8410 ha        1 BX7      0.178000
     58 H24        -7.5000    0.2730    9.3120 DU        1 BX7      0.171000
     59 H25        -7.7940   -1.7210   11.2170 DU        1 BX7      0.171000
     60 H26        -5.7250   -3.3120   11.0990 DU        1 BX7      0.171000
@<TRIPOS>BOND
     1    1   28 1   
     2    2   31 1   
     3    2   34 1   
     4    3   16 1   
     5    4   29 1   
     6    5   14 1   
     7    5   15 1   
     8    5   16 1   
     9    6   16 1   
    10    6   17 1   
    11    6   35 1   
    12    7   21 1   
    13    7   26 1   
    14    7   36 1   
    15    8   22 1   
    16    8   27 1   
    17    8   37 1   
    18    9   23 1   
    19    9   29 1   
    20    9   38 1   
    21   10   26 1   
    22   11   27 1   
    23   12   13 1   
    24   12   15 1   
    25   12   39 1   
    26   12   40 1   
    27   13   14 1   
    28   13   41 1   
    29   13   42 1   
    30   14   43 1   
    31   14   44 1   
    32   15   45 1   
    33   15   46 1   
    34   17   20 1   
    35   18   22 1   
    36   18   47 1   
    37   19   21 1   
    38   19   23 1   
    39   19   48 1   
    40   19   49 1   
    41   20   50 1   
    42   21   51 1   
    43   21   52 1   
    44   23   53 1   
    45   23   54 1   
    46   24   25 1   
    47   24   55 1   
    48   25   56 1   
    49   26   28 1   
    50   28   30 1   
    51   30   57 1   
    52   31   32 1   
    53   32   33 1   
    54   33   34 1   
@<TRIPOS>SUBSTRUCTURE
     1 BX7         1 TEMP              0 ****  ****    0 ROOT
