@<TRIPOS>MOLECULE
BX7
   60    58     1     0     0
SMALL
bcc


@<TRIPOS>ATOM
      1 I01         0.7730    0.1720   -1.1590 i         1 BX7      0.155000
      2 S02         0.4770   -0.5670    8.8590 s         1 BX7      0.119000
      3 O03         6.7980   -3.0030   -7.5340 o         1 BX7     -0.295000
      4 O04         3.9240    0.2150    7.5030 o         1 BX7     -0.361000
      5 N05         8.1140   -4.1150   -9.0610 n         1 BX7     -0.222000
      6 N08         6.2770   -0.3330   -1.0130 n3        1 BX7     -0.196000
      7 N09         2.2510   -0.8620    6.3450 n         1 BX7     -0.358000
      8 N10         4.4430    0.1760    0.3650 n2        1 BX7     -0.233000
      9 N11         4.4460    0.8590   -2.0490 n2        1 BX7     -0.271000
     10 C12        13.2330   -3.7540   -4.3760 cx        1 BX7     -0.220333
     11 C13        12.4350   -2.4940   -4.5430 cx        1 BX7     -0.220333
     12 C14         9.2910   -4.5790   -9.4000 c1        1 BX7     -0.149000
     13 C15        12.7890   -2.9810   -3.1680 cx        1 BX7     -0.220333
     14 C16         7.9360   -3.4120   -7.8100 c2        1 BX7      0.327000
     15 C17         9.1440   -2.6120   -5.8040 c1        1 BX7      0.044000
     16 C18         8.4230   -0.0480   -2.0510 c2        1 BX7     -0.221000
     17 C19         2.4120    0.3660    4.1760 c3        1 BX7     -0.251000
     18 C20         8.1300   -1.9760   -5.0990 c1        1 BX7     -0.184000
     19 C22         7.1110   -0.3330   -2.1630 c2        1 BX7      0.009000
     20 C23         2.9020   -0.7840    5.0660 c3        1 BX7     -0.006000
     21 C24         7.3910   -1.3820   -4.3540 c1        1 BX7     -0.082000
     22 C25         6.4890   -0.6800   -3.4940 c3        1 BX7     -0.031000
     23 C26         3.2290    0.6740    0.5000 c2        1 BX7      0.189000
     24 C27         5.0440    0.2480   -0.9410 c2        1 BX7      0.246000
     25 C28         2.4550    1.2750   -0.6570 c3        1 BX7     -0.373000
     26 C29         2.7870   -0.3030    7.4820 c2        1 BX7      0.288000
     27 C30         3.2440    1.3510   -1.9300 c1        1 BX7     -0.087000
     28 C31         1.9760   -0.3780    8.7470 c2        1 BX7     -0.275000
     29 C32         4.8980    0.5940   10.5310 c1        1 BX7     -0.089500
     30 C33         4.9310    0.6080   11.7560 c1        1 BX7     -0.206000
     31 C34         5.1410    0.6940   13.0630 c1        1 BX7     -0.089500
     32 H1          9.9400   -3.6260   -7.3150 hn        1 BX7      0.299000
     33 H2          1.6330    1.0410    1.7070 hn        1 BX7      0.184000
     34 H3          6.6910   -0.6910   -0.1720 hn        1 BX7      0.263000
     35 H4          1.2920   -1.1260    6.3600 hn        1 BX7      0.236000
     36 H5         11.9940   -3.3990   -2.5270 hc        1 BX7      0.109500
     37 H6         13.5430   -2.4290   -2.5790 hc        1 BX7      0.109500
     38 H7         12.9380   -1.5930   -4.9360 hc        1 BX7      0.109500
     39 H8         12.7560   -4.7240   -4.5970 hc        1 BX7      0.109500
     40 H9          9.3500   -5.1060  -10.3730 ha        1 BX7      0.068000
     41 H10        11.3830   -2.5610   -4.8870 hc        1 BX7      0.109500
     42 H11        14.3030   -3.7540   -4.6490 hc        1 BX7      0.109500
     43 H12         7.2590   -4.1860   -9.5870 hn        1 BX7      0.200000
     44 H13         8.9120    0.2290   -1.1090 ha        1 BX7      0.141000
     45 H14         4.5880   -1.7340    3.0640 ha        1 BX7      0.000000
     46 H15         4.8080   -2.3690    3.1640 ha        1 BX7      0.000000
     47 H16         9.0820   -0.0970   -2.9300 ha        1 BX7      0.141000
     48 H17         2.6900    1.3500    4.6510 hc        1 BX7      0.100500
     49 H18         1.2920    0.3410    4.0830 hc        1 BX7      0.100500
     50 H19         2.7200   -1.7600    4.5300 h1        1 BX7      0.119500
     51 H20         4.0140   -0.6680    5.2210 h1        1 BX7      0.119500
     52 H21         5.5600   -1.3070   -3.3590 hc        1 BX7      0.149500
     53 H22         6.1630    0.2780   -4.0000 hc        1 BX7      0.149500
     54 H23         2.1060    2.3110   -0.4110 h1        1 BX7      0.179000
     55 H24         4.9210    0.6050    9.4650 ha        1 BX7      0.192500
     56 H25         2.6660   -0.2440    9.6120 h4        1 BX7      0.167000
     57 H26         4.4810    0.4180   13.8800 ha        1 BX7      0.192500
     58 N07         2.5770    0.6920    1.7620 n3        1 BX7     -0.195000
     59 N06         9.0790   -3.2280   -6.9630 n         1 BX7     -0.176000
     60 C21         3.1550    0.2880    2.8890 c1        1 BX7     -0.024000
@<TRIPOS>BOND
     1    1   25 1   
     2    2   28 1   
     3    3   14 1   
     4    4   26 1   
     5    5   12 1   
     6    5   14 1   
     7    5   43 1   
     8    6   19 1   
     9    6   24 1   
    10    6   34 1   
    11    7   20 1   
    12    7   26 1   
    13    7   35 1   
    14    8   23 1   
    15    8   24 1   
    16    9   24 1   
    17    9   27 1   
    18   10   11 1   
    19   10   13 1   
    20   10   39 1   
    21   10   42 1   
    22   11   13 1   
    23   11   38 1   
    24   11   41 1   
    25   12   40 1   
    26   13   36 1   
    27   13   37 1   
    28   14   59 1   
    29   15   18 1   
    30   15   59 1   
    31   16   19 1   
    32   16   44 1   
    33   16   47 1   
    34   17   20 1   
    35   17   48 1   
    36   17   49 1   
    37   17   60 1   
    38   18   21 1   
    39   19   22 1   
    40   20   50 1   
    41   20   51 1   
    42   21   22 1   
    43   22   52 1   
    44   22   53 1   
    45   23   25 1   
    46   23   58 1   
    47   25   27 1   
    48   25   54 1   
    49   26   28 1   
    50   28   56 1   
    51   29   30 1   
    52   29   55 1   
    53   30   31 1   
    54   31   57 1   
    55   32   59 1   
    56   33   58 1   
    57   45   46 1   
    58   58   60 1   
@<TRIPOS>SUBSTRUCTURE
     1 BX7         1 TEMP              0 ****  ****    0 ROOT
