@<TRIPOS>MOLECULE
BX7
   61    58     1     0     0
SMALL
bcc


@<TRIPOS>ATOM
      1 I01        -0.9720   -0.6100    1.8610 i         1 BX7      0.197000
      2 S02         6.0720   -2.1270    1.0620 ss        1 BX7      1.403000
      3 O03         8.7520   -2.0490   -1.4220 o         1 BX7     -0.404000
      4 O04         5.0820   -2.5400    4.7830 o         1 BX7     -0.267000
      5 N05        10.6850   -2.9280   -2.2430 n         1 BX7     -0.318000
      6 N08         3.8140    2.3830   -1.5750 n3        1 BX7     -0.233000
      7 N09         4.9550   -0.5730    3.5480 n4        1 BX7     -0.124000
      8 N10         1.9570    1.7520   -0.2550 n2        1 BX7     -0.216000
      9 N11         3.9980    0.4650   -0.1300 n2        1 BX7     -0.232000
     10 C12        11.2080   -3.8830    1.1490 c2        1 BX7     -0.230500
     11 C13        12.6190   -4.1040   -3.0990 c2        1 BX7     -0.244000
     12 C14        11.5980   -3.2470   -3.2550 c2        1 BX7     -0.061000
     13 C15        11.0020   -2.5740    1.0850 c2        1 BX7     -0.230500
     14 C16         9.4460   -2.3370   -2.4270 c2        1 BX7      0.344000
     15 C17         8.0630   -1.1450   -4.1060 c1        1 BX7      0.049000
     16 C18         4.2520    1.4500   -3.7840 c2        1 BX7     -0.182000
     17 C19         3.2080    1.1430    4.0630 c3        1 BX7     -0.212000
     18 C20         7.4560   -0.1750   -3.3100 c1        1 BX7     -0.149000
     19 C22         4.6810    1.8370   -2.5700 c2        1 BX7     -0.061000
     20 C23         3.9550   -0.1000    4.5440 c3        1 BX7     -0.099000
     21 C24         6.8500    0.7360   -2.8070 c1        1 BX7     -0.134000
     22 C25         6.1510    1.8370   -2.2190 c3        1 BX7     -0.014000
     23 C26         1.2890    1.0650    0.7820 c2        1 BX7      0.110000
     24 C27         3.1890    1.5130   -0.6430 c2        1 BX7      0.308000
     25 C28         0.2060    0.2920    0.5180 c2        1 BX7     -0.359000
     26 C29         5.2460   -2.0830    3.6530 c2        1 BX7      0.377000
     27 C30         4.6420   -0.3870    0.3580 c1        1 BX7      0.065000
     28 C31         5.6400   -2.7080    2.4580 c2        1 BX7     -0.994000
     29 C32         5.9240   -5.8110    0.2170 c1        1 BX7     -0.126000
     30 C33         6.0890   -4.6240    0.1580 c1        1 BX7     -0.154000
     31 C34         6.2850   -3.2530    0.0690 c2        1 BX7     -0.601000
     32 H1          9.2770   -2.6430   -4.4950 hn        1 BX7      0.271000
     33 H2          0.9730    1.8170    2.6770 hn        1 BX7      0.211000
     34 H3          3.1890    3.0830   -1.9390 hn        1 BX7      0.249000
     35 H4          5.8260   -0.0580    3.6720 hn        1 BX7      0.245500
     36 H5         10.1020   -2.1360    0.6260 ha        1 BX7      0.116500
     37 H6         11.7170   -1.8420    1.4840 ha        1 BX7      0.116500
     38 H7         12.8260   -4.6530   -2.1710 ha        1 BX7      0.137000
     39 H8         12.1050   -4.3210    1.6090 ha        1 BX7      0.116500
     40 H9         11.4540   -2.7110   -4.2130 h4        1 BX7      0.144000
     41 H10        13.3200   -4.2880   -3.9230 ha        1 BX7      0.137000
     42 H11        10.4910   -4.6180    0.7580 ha        1 BX7      0.116500
     43 H12        10.9220   -3.1620   -1.2970 hn        1 BX7      0.263000
     44 H13         3.1970    1.4660   -4.0920 ha        1 BX7      0.148000
     45 H14         3.7960   -1.8140    6.7790 ha        1 BX7      0.000500
     46 H15         3.9480   -2.4450    6.9720 ha        1 BX7      0.000500
     47 H16         4.9620    1.1010   -4.5490 ha        1 BX7      0.148000
     48 H17         2.3580    1.3210    4.7780 hc        1 BX7      0.124000
     49 H18         3.8740    2.0490    4.1040 hc        1 BX7      0.124000
     50 H19         3.2230   -0.9410    4.7220 hx        1 BX7      0.148000
     51 H20         4.4810    0.1040    5.5190 hx        1 BX7      0.148000
     52 H21         6.5980    2.8040   -2.6000 hc        1 BX7      0.121500
     53 H22         6.3060    1.8290   -1.1030 hc        1 BX7      0.121500
     54 H23        -0.1120    0.1250   -0.5220 h4        1 BX7      0.184000
     55 H24         5.7760   -6.8620    0.2730 ha        1 BX7      0.241000
     56 H25         5.6690   -3.8100    2.6200 h4        1 BX7      0.222000
     57 H26         6.6940   -2.9420   -0.9290 h4        1 BX7      0.228000
     58 C21         2.8200    0.9320    2.6400 c1        1 BX7     -0.215000
     59 H092        4.5760   -0.3650    2.6070 hn        1 BX7      0.245500
     60 N07         1.6800    1.3270    2.1520 n3        1 BX7     -0.131000
     61 N06         8.9340   -2.0600   -3.7540 n         1 BX7     -0.192000
@<TRIPOS>BOND
     1    1   25 1   
     2    2   28 1   
     3    2   31 1   
     4    3   14 1   
     5    4   26 1   
     6    5   12 1   
     7    5   14 1   
     8    5   43 1   
     9    6   19 1   
    10    6   24 1   
    11    6   34 1   
    12    7   20 1   
    13    7   26 1   
    14    7   35 1   
    15    7   59 1   
    16    8   23 1   
    17    8   24 1   
    18    9   24 1   
    19    9   27 1   
    20   10   13 1   
    21   10   39 1   
    22   10   42 1   
    23   11   12 1   
    24   11   38 1   
    25   11   41 1   
    26   12   40 1   
    27   13   36 1   
    28   13   37 1   
    29   14   61 1   
    30   15   18 1   
    31   15   61 1   
    32   16   19 1   
    33   16   44 1   
    34   16   47 1   
    35   17   20 1   
    36   17   48 1   
    37   17   49 1   
    38   17   58 1   
    39   18   21 1   
    40   19   22 1   
    41   20   50 1   
    42   20   51 1   
    43   21   22 1   
    44   22   52 1   
    45   22   53 1   
    46   23   25 1   
    47   23   60 1   
    48   25   54 1   
    49   26   28 1   
    50   28   56 1   
    51   29   30 1   
    52   29   55 1   
    53   30   31 1   
    54   31   57 1   
    55   32   61 1   
    56   33   60 1   
    57   45   46 1   
    58   58   60 1   
@<TRIPOS>SUBSTRUCTURE
     1 BX7         1 TEMP              0 ****  ****    0 ROOT
