@<TRIPOS>MOLECULE
BXA
    7     6     1     0     0
SMALL
bcc


@<TRIPOS>ATOM
      1 C1          0.0210    0.0440   -0.0560 c         1 BXA      0.918600
      2 O1          0.8630   -0.8390   -0.3740 o         1 BXA     -0.826300
      3 C2         -0.7050   -0.1180    1.2940 c3        1 BXA     -0.094000
      4 O2         -0.3170    1.0170   -0.7840 o         1 BXA     -0.826300
      5 BR2         0.1690    0.7660    2.7800 br        1 BXA     -0.267400
      6 H2         -0.7540   -1.1920    1.5710 h1        1 BXA      0.047700
      7 H2A        -1.7200    0.3270    1.2360 h1        1 BXA      0.047700
@<TRIPOS>BOND
     1    1    2 1   
     2    1    3 1   
     3    1    4 1   
     4    3    5 1   
     5    3    6 1   
     6    3    7 1   
@<TRIPOS>SUBSTRUCTURE
     1 BXA         1 TEMP              0 ****  ****    0 ROOT
