@<TRIPOS>MOLECULE
BXA
    7     6     1     0     0
SMALL
bcc


@<TRIPOS>ATOM
      1 C1          1.6720    0.0510   -0.0200 c         1 BXA      0.918600
      2 O1          1.8310    0.8990    0.9000 o         1 BXA     -0.826300
      3 C2          0.4750   -0.9130    0.1010 c3        1 BXA     -0.094000
      4 O2          2.4500   -0.1080   -0.9990 o         1 BXA     -0.826300
      5 BR2        -1.1430   -0.2860   -0.7590 br        1 BXA     -0.267400
      6 H2          0.7180   -1.8810   -0.3850 h1        1 BXA      0.047700
      7 H2A         0.2110   -1.0570    1.1700 h1        1 BXA      0.047700
@<TRIPOS>BOND
     1    1    2 1   
     2    1    3 1   
     3    1    4 1   
     4    3    5 1   
     5    3    6 1   
     6    3    7 1   
@<TRIPOS>SUBSTRUCTURE
     1 BXA         1 TEMP              0 ****  ****    0 ROOT
