@<TRIPOS>MOLECULE
BXA
    7     5     1     0     0
SMALL
bcc


@<TRIPOS>ATOM
      1 C1          0.5390   -0.0340   -0.6920 c1        1 BXA      0.338000
      2 O1          1.7980   -0.0340   -0.6920 o         1 BXA     -0.561000
      3 C2         -0.2170   -0.0340    0.6190 c3        1 BXA     -0.250000
      4 O2         -0.0900   -0.0340   -1.7820 os        1 BXA     -0.561000
      5 BR2        -2.0380    0.4550    0.3030 br        1 BXA     -0.140000
      6 H2          0.1910    0.6080    1.2300 h1        1 BXA      0.087000
      7 H2A        -0.1840   -0.9260    1.0140 h1        1 BXA      0.087000
@<TRIPOS>BOND
     1    1    2 1   
     2    1    3 1   
     3    3    5 1   
     4    3    6 1   
     5    3    7 1   
@<TRIPOS>SUBSTRUCTURE
     1 BXA         1 TEMP              0 ****  ****    0 ROOT
