@<TRIPOS>MOLECULE
BXB
   33    35     1     0     0
SMALL
bcc


@<TRIPOS>ATOM
      1 C1          0.0820   -0.0040    0.0070 ca        1 BXB     -0.214600
      2 C2          1.4480   -0.3140    0.1160 ca        1 BXB      0.060400
      3 C3          2.0550   -0.3620    1.3760 ca        1 BXB     -0.109000
      4 C4          1.3030   -0.1000    2.5200 ca        1 BXB     -0.051000
      5 C5         -0.0520    0.2220    2.4230 ca        1 BXB     -0.109000
      6 C6         -0.6600    0.2760    1.1680 ca        1 BXB      0.060400
      7 C7         -0.5840   -0.0490   -1.3080 c         1 BXB      0.577700
      8 N8         -0.9750    1.3170   -1.8350 n4        1 BXB     -0.682800
      9 O9         -0.8520   -1.0140   -2.0010 o         1 BXB     -0.372100
     10 CL10        2.3690   -0.6170   -1.2700 cl        1 BXB     -0.043400
     11 CL11       -2.3080    0.6680    1.0490 cl        1 BXB     -0.043400
     12 C12        -1.5980    1.2820   -3.2010 c3        1 BXB      0.179100
     13 C13        -1.9860    2.6510   -3.6370 ca        1 BXB     -0.197300
     14 C14        -1.1790    3.3480   -4.5370 ca        1 BXB     -0.082000
     15 C15        -1.5270    4.6260   -5.0100 ca        1 BXB     -0.116000
     16 C16        -2.7080    5.1570   -4.5300 ca        1 BXB      0.112100
     17 C17        -3.5340    4.4450   -3.6090 ca        1 BXB      0.069100
     18 C18        -3.1990    3.1920   -3.1490 ca        1 BXB     -0.110000
     19 O19        -4.6460    5.2110   -3.3040 os        1 BXB     -0.319900
     20 C20        -4.5360    6.4400   -4.0690 c3        1 BXB      0.319200
     21 O21        -3.2920    6.3740   -4.8170 os        1 BXB     -0.309900
     22 H3          3.1270   -0.6140    1.4610 ha        1 BXB      0.184500
     23 H4          1.7830   -0.1500    3.5130 ha        1 BXB      0.178000
     24 H5         -0.6400    0.4280    3.3340 ha        1 BXB      0.184500
     25 HN8        -0.1380    1.9100   -1.8590 hn        1 BXB      0.461800
     26 H12        -2.4980    0.6030   -3.1460 hx        1 BXB      0.115200
     27 H12A       -0.8490    0.8180   -3.9060 hx        1 BXB      0.115200
     28 H14        -0.2490    2.8910   -4.9120 ha        1 BXB      0.147000
     29 H15        -0.8940    5.1670   -5.7280 ha        1 BXB      0.182000
     30 H18        -3.8520    2.6350   -2.4640 ha        1 BXB      0.158000
     31 H20        -4.4760    7.2990   -3.3570 h2        1 BXB      0.097200
     32 H20A       -5.3850    6.4880   -4.7950 h2        1 BXB      0.097200
     33 H82        -1.6400    1.7440   -1.1740 hn        1 BXB      0.461800
@<TRIPOS>BOND
     1    1    2 ar  
     2    1    6 ar  
     3    1    7 1   
     4    2    3 ar  
     5    2   10 1   
     6    3    4 ar  
     7    3   22 1   
     8    4    5 ar  
     9    4   23 1   
    10    5    6 ar  
    11    5   24 1   
    12    6   11 1   
    13    7    8 1   
    14    7    9 2   
    15    8   12 1   
    16    8   25 1   
    17    8   33 1   
    18   12   13 1   
    19   12   26 1   
    20   12   27 1   
    21   13   14 ar  
    22   13   18 ar  
    23   14   15 ar  
    24   14   28 1   
    25   15   16 ar  
    26   15   29 1   
    27   16   17 ar  
    28   16   21 1   
    29   17   18 ar  
    30   17   19 1   
    31   18   30 1   
    32   19   20 1   
    33   20   21 1   
    34   20   31 1   
    35   20   32 1   
@<TRIPOS>SUBSTRUCTURE
     1 BXB         1 TEMP              0 ****  ****    0 ROOT
