@<TRIPOS>MOLECULE
BXB
   32    29     1     0     0
SMALL
bcc


@<TRIPOS>ATOM
      1 C1         -0.5630    2.3730    1.7490 c1        1 BXB     -0.111000
      2 C2         -0.9370    3.6470    2.1570 c1        1 BXB     -0.021000
      3 C3          0.0320    4.5980    2.4170 c1        1 BXB     -0.130000
      4 C4          1.3960    4.2760    2.2680 c1        1 BXB     -0.114000
      5 C5          1.7670    3.0090    1.8620 c1        1 BXB     -0.114000
      6 C6          0.8010    2.0510    1.6000 c1        1 BXB     -0.035000
      7 C7         -1.6550    1.2950    1.4880 c2        1 BXB      0.347000
      8 N8         -1.2800   -0.0220    1.0640 n         1 BXB     -0.356000
      9 O9         -2.8120    1.5490    1.7020 o         1 BXB     -0.336000
     10 CL10       -2.6520    4.0140    2.4570 cl        1 BXB      0.018000
     11 CL11        1.2860    0.4260    1.0280 cl        1 BXB      0.011000
     12 C12        -2.0240   -0.6770    0.0730 c3        1 BXB      0.008000
     13 C13        -1.1080   -1.6410   -0.6930 c2        1 BXB     -0.120000
     14 C14        -1.0370   -2.9910   -0.3160 c2        1 BXB     -0.121000
     15 C15        -0.1420   -3.8510   -0.9660 c1        1 BXB     -0.119000
     16 C16         0.6920   -3.3560   -2.0060 c1        1 BXB      0.011500
     17 C17         0.6210   -2.0220   -2.3780 c1        1 BXB      0.011500
     18 C18        -0.2800   -1.1530   -1.7250 c1        1 BXB     -0.094000
     19 O19         1.6550   -1.7740   -3.3560 os        1 BXB     -0.216000
     20 C20         2.3190   -2.9820   -3.6010 c3        1 BXB      0.098000
     21 O21         1.7840   -3.9580   -2.7250 os        1 BXB     -0.216000
     22 H3         -0.2250    5.4850    2.7010 ha        1 BXB      0.156000
     23 H4          2.0790    4.9480    2.4510 ha        1 BXB      0.150500
     24 H5          2.7410    2.7830    1.7570 ha        1 BXB      0.150500
     25 HN8        -0.6300   -0.4310    1.4530 hn        1 BXB      0.225000
     26 H12        -2.7580   -1.1830    0.4940 h1        1 BXB      0.111500
     27 H12A       -2.4200    0.0230   -0.5870 h1        1 BXB      0.111500
     28 H14        -1.7310   -3.3710    0.2910 ha        1 BXB      0.136000
     29 H15        -0.0910   -4.7850   -0.7060 ha        1 BXB      0.155000
     30 H18        -0.2870   -0.1460   -1.9600 ha        1 BXB      0.178000
     31 H20         2.1450   -3.2710   -4.5890 h2        1 BXB      0.111500
     32 H20A        3.3150   -2.8630   -3.4040 h2        1 BXB      0.111500
@<TRIPOS>BOND
     1    1    6 1   
     2    1    7 1   
     3    2    3 1   
     4    2   10 1   
     5    3   22 1   
     6    4    5 1   
     7    4   23 1   
     8    5   24 1   
     9    6   11 1   
    10    7    8 1   
    11    7    9 1   
    12    8   12 1   
    13    8   25 1   
    14   12   13 1   
    15   12   26 1   
    16   12   27 1   
    17   13   14 1   
    18   13   18 1   
    19   14   15 1   
    20   14   28 1   
    21   15   29 1   
    22   16   17 1   
    23   16   21 1   
    24   17   19 1   
    25   18   30 1   
    26   19   20 1   
    27   20   21 1   
    28   20   31 1   
    29   20   32 1   
@<TRIPOS>SUBSTRUCTURE
     1 BXB         1 TEMP              0 ****  ****    0 ROOT
