@<TRIPOS>MOLECULE
BXB
   33    35     1     0     0
SMALL
bcc


@<TRIPOS>ATOM
      1 C1          0.0870   -0.0030    0.0030 ca        1 BXB     -0.214600
      2 C2          1.4560   -0.3000    0.1190 ca        1 BXB      0.060400
      3 C3          2.0550   -0.3490    1.3830 ca        1 BXB     -0.109000
      4 C4          1.2940   -0.1020    2.5240 ca        1 BXB     -0.051000
      5 C5         -0.0640    0.2080    2.4200 ca        1 BXB     -0.109000
      6 C6         -0.6650    0.2630    1.1620 ca        1 BXB      0.060400
      7 C7         -0.5690   -0.0470   -1.3160 c         1 BXB      0.577700
      8 N8         -0.9700    1.3190   -1.8380 ny        1 BXB     -0.682800
      9 O9         -0.8240   -1.0110   -2.0150 o         1 BXB     -0.372100
     10 Cl10        2.3890   -0.5860   -1.2620 cl        1 BXB     -0.043400
     11 Cl11       -2.3160    0.6390    1.0340 cl        1 BXB     -0.043400
     12 C12        -1.5880    1.2850   -3.2060 c3        1 BXB      0.179100
     13 C13        -1.9810    2.6540   -3.6380 ca        1 BXB     -0.197300
     14 C14        -1.1760    3.3570   -4.5350 ca        1 BXB     -0.082000
     15 C15        -1.5290    4.6350   -5.0050 ca        1 BXB     -0.116000
     16 C16        -2.7140    5.1580   -4.5260 ca        1 BXB      0.112100
     17 C17        -3.5370    4.4400   -3.6090 ca        1 BXB      0.069100
     18 C18        -3.1980    3.1870   -3.1510 ca        1 BXB     -0.110000
     19 O19        -4.6540    5.2000   -3.3040 os        1 BXB     -0.319900
     20 C20        -4.5480    6.4320   -4.0650 c3        1 BXB      0.319200
     21 O21        -3.3020    6.3740   -4.8100 os        1 BXB     -0.309900
     22 H3          3.1290   -0.5910    1.4740 ha        1 BXB      0.184500
     23 H4          1.7670   -0.1520    3.5200 ha        1 BXB      0.178000
     24 H5         -0.6600    0.4020    3.3290 ha        1 BXB      0.184500
     25 HN8        -1.6400    1.7380   -1.1770 hn        1 BXB      0.461800
     26 H12        -0.8350    0.8270   -3.9100 hx        1 BXB      0.115200
     27 H12A       -2.4850    0.6010   -3.1560 hx        1 BXB      0.115200
     28 H14        -0.2430    2.9050   -4.9100 ha        1 BXB      0.147000
     29 H15        -0.8970    5.1800   -5.7200 ha        1 BXB      0.182000
     30 H18        -3.8490    2.6250   -2.4700 ha        1 BXB      0.158000
     31 H20        -4.4930    7.2890   -3.3500 h2        1 BXB      0.097200
     32 H20A       -5.3960    6.4780   -4.7920 h2        1 BXB      0.097200
     33 H82        -0.1360    1.9170   -1.8570 hn        1 BXB      0.461800
@<TRIPOS>BOND
     1    1    2 ar  
     2    1    6 ar  
     3    1    7 1   
     4    2    3 ar  
     5    2   10 1   
     6    3    4 ar  
     7    3   22 1   
     8    4    5 ar  
     9    4   23 1   
    10    5    6 ar  
    11    5   24 1   
    12    6   11 1   
    13    7    8 1   
    14    7    9 2   
    15    8   12 1   
    16    8   25 1   
    17    8   33 1   
    18   12   13 1   
    19   12   26 1   
    20   12   27 1   
    21   13   14 ar  
    22   13   18 ar  
    23   14   15 ar  
    24   14   28 1   
    25   15   16 ar  
    26   15   29 1   
    27   16   17 ar  
    28   16   21 1   
    29   17   18 ar  
    30   17   19 1   
    31   18   30 1   
    32   19   20 1   
    33   20   21 1   
    34   20   31 1   
    35   20   32 1   
@<TRIPOS>SUBSTRUCTURE
     1 BXB         1 TEMP              0 ****  ****    0 ROOT
