@<TRIPOS>MOLECULE
BXB
   32    34     1     0     0
SMALL
bcc


@<TRIPOS>ATOM
      1 C1          2.4400   -0.0150   -0.0490 ca        1 BXB     -0.131600
      2 C2          2.3050   -0.4270   -1.3820 ca        1 BXB      0.050400
      3 C3          3.3970   -0.3860   -2.2540 ca        1 BXB     -0.129000
      4 C4          4.6280    0.0780   -1.7950 ca        1 BXB     -0.099000
      5 C5          4.7760    0.5030   -0.4770 ca        1 BXB     -0.129000
      6 C6          3.6820    0.4590    0.3950 ca        1 BXB      0.050400
      7 C7          1.2820   -0.1170    0.8970 c         1 BXB      0.673700
      8 N8          0.3560    0.9100    0.8330 n         1 BXB     -0.545900
      9 O9          1.1900   -1.0460    1.7210 o         1 BXB     -0.577100
     10 CL10        0.8070   -0.9830   -1.9580 cl        1 BXB     -0.064400
     11 CL11        3.8810    0.9950    1.9920 cl        1 BXB     -0.064400
     12 C12        -0.8510    0.8850    1.6170 c3        1 BXB      0.132300
     13 C13        -2.0270    0.2210    0.9540 ca        1 BXB     -0.130300
     14 C14        -2.0650   -1.1720    0.8700 ca        1 BXB     -0.110000
     15 C15        -3.1470   -1.8540    0.2860 ca        1 BXB     -0.115000
     16 C16        -4.1720   -1.0690   -0.2010 ca        1 BXB      0.061100
     17 C17        -4.1350    0.3480   -0.1180 ca        1 BXB      0.049100
     18 C18        -3.0750    1.0210    0.4520 ca        1 BXB     -0.104000
     19 O19        -5.2930    0.8720   -0.6850 os        1 BXB     -0.335900
     20 C20        -6.0830   -0.2530   -1.1350 c3        1 BXB      0.321200
     21 O21        -5.3530   -1.4620   -0.8210 os        1 BXB     -0.333900
     22 H3          3.2840   -0.7200   -3.2970 ha        1 BXB      0.155500
     23 H4          5.4900    0.1080   -2.4790 ha        1 BXB      0.147000
     24 H5          5.7510    0.8710   -0.1200 ha        1 BXB      0.155500
     25 HN8         0.3510    1.4810    0.0200 hn        1 BXB      0.311500
     26 H12        -0.6320    0.3450    2.5850 h1        1 BXB      0.072200
     27 H12A       -1.1130    1.9560    1.8590 h1        1 BXB      0.072200
     28 H14        -1.2180   -1.7540    1.2740 ha        1 BXB      0.163000
     29 H15        -3.1710   -2.9490    0.2250 ha        1 BXB      0.158000
     30 H18        -3.0500    2.1150    0.5180 ha        1 BXB      0.153000
     31 H20        -7.0470   -0.2620   -0.5700 h2        1 BXB      0.072200
     32 H20A       -6.2000   -0.1860   -2.2450 h2        1 BXB      0.072200
@<TRIPOS>BOND
     1    1    2 ar  
     2    1    6 ar  
     3    1    7 1   
     4    2    3 ar  
     5    2   10 1   
     6    3    4 ar  
     7    3   22 1   
     8    4    5 ar  
     9    4   23 1   
    10    5    6 ar  
    11    5   24 1   
    12    6   11 1   
    13    7    8 1   
    14    7    9 2   
    15    8   12 1   
    16    8   25 1   
    17   12   13 1   
    18   12   26 1   
    19   12   27 1   
    20   13   14 ar  
    21   13   18 ar  
    22   14   15 ar  
    23   14   28 1   
    24   15   16 ar  
    25   15   29 1   
    26   16   17 ar  
    27   16   21 1   
    28   17   18 ar  
    29   17   19 1   
    30   18   30 1   
    31   19   20 1   
    32   20   21 1   
    33   20   31 1   
    34   20   32 1   
@<TRIPOS>SUBSTRUCTURE
     1 BXB         1 TEMP              0 ****  ****    0 ROOT
