@<TRIPOS>MOLECULE
BXB
   33    35     1     0     0
SMALL
bcc


@<TRIPOS>ATOM
      1 C1          0.0790   -0.0050    0.0080 ca        1 BXB     -0.214600
      2 C2          1.4460   -0.3130    0.1170 ca        1 BXB      0.060400
      3 C3          2.0520   -0.3610    1.3770 ca        1 BXB     -0.109000
      4 C4          1.3000   -0.1010    2.5210 ca        1 BXB     -0.051000
      5 C5         -0.0560    0.2200    2.4240 ca        1 BXB     -0.109000
      6 C6         -0.6640    0.2740    1.1690 ca        1 BXB      0.060400
      7 C7         -0.5860   -0.0500   -1.3070 c         1 BXB      0.577700
      8 N8         -0.9780    1.3160   -1.8340 n4        1 BXB     -0.682800
      9 O9         -0.8540   -1.0150   -2.0000 o         1 BXB     -0.372100
     10 CL10        2.3680   -0.6140   -1.2680 cl        1 BXB     -0.043400
     11 CL11       -2.3120    0.6640    1.0490 cl        1 BXB     -0.043400
     12 C12        -1.6010    1.2810   -3.2000 c3        1 BXB      0.179100
     13 C13        -1.9860    2.6510   -3.6370 ca        1 BXB     -0.197300
     14 C14        -1.1780    3.3450   -4.5380 ca        1 BXB     -0.082000
     15 C15        -1.5240    4.6240   -5.0120 ca        1 BXB     -0.116000
     16 C16        -2.7040    5.1570   -4.5330 ca        1 BXB      0.112100
     17 C17        -3.5300    4.4480   -3.6100 ca        1 BXB      0.069100
     18 C18        -3.1990    3.1950   -3.1490 ca        1 BXB     -0.110000
     19 O19        -4.6410    5.2170   -3.3060 os        1 BXB     -0.319900
     20 C20        -4.5280    6.4450   -4.0720 c3        1 BXB      0.319200
     21 O21        -3.2840    6.3760   -4.8200 os        1 BXB     -0.309900
     22 H3          3.1240   -0.6110    1.4620 ha        1 BXB      0.184500
     23 H4          1.7790   -0.1500    3.5150 ha        1 BXB      0.178000
     24 H5         -0.6450    0.4240    3.3350 ha        1 BXB      0.184500
     25 HN8        -1.6420    1.7440   -1.1730 hn        1 BXB      0.461800
     26 H12        -2.5030    0.6040   -3.1430 hx        1 BXB      0.115200
     27 H12A       -0.8540    0.8150   -3.9050 hx        1 BXB      0.115200
     28 H14        -0.2490    2.8860   -4.9130 ha        1 BXB      0.147000
     29 H15        -0.8890    5.1620   -5.7310 ha        1 BXB      0.182000
     30 H18        -3.8520    2.6400   -2.4630 ha        1 BXB      0.158000
     31 H20        -4.4660    7.3050   -3.3600 h2        1 BXB      0.097200
     32 H20A       -5.3770    6.4940   -4.7980 h2        1 BXB      0.097200
     33 H82        -0.1400    1.9090   -1.8580 hn        1 BXB      0.461800
@<TRIPOS>BOND
     1    1    2 ar  
     2    1    6 ar  
     3    1    7 1   
     4    2    3 ar  
     5    2   10 1   
     6    3    4 ar  
     7    3   22 1   
     8    4    5 ar  
     9    4   23 1   
    10    5    6 ar  
    11    5   24 1   
    12    6   11 1   
    13    7    8 1   
    14    7    9 2   
    15    8   12 1   
    16    8   25 1   
    17    8   33 1   
    18   12   13 1   
    19   12   26 1   
    20   12   27 1   
    21   13   14 ar  
    22   13   18 ar  
    23   14   15 ar  
    24   14   28 1   
    25   15   16 ar  
    26   15   29 1   
    27   16   17 ar  
    28   16   21 1   
    29   17   18 ar  
    30   17   19 1   
    31   18   30 1   
    32   19   20 1   
    33   20   21 1   
    34   20   31 1   
    35   20   32 1   
@<TRIPOS>SUBSTRUCTURE
     1 BXB         1 TEMP              0 ****  ****    0 ROOT
