@<TRIPOS>MOLECULE
BXC
   80    80     1     0     0
SMALL
bcc


@<TRIPOS>ATOM
      1 CAA        -1.0100   -1.5600   -0.1840 c3        1 BXC     -0.089600
      2 CAB         0.4700   -1.3140    0.0190 c3        1 BXC     -0.067700
      3 CAC         0.8470   -1.5740    1.4640 c3        1 BXC     -0.089600
      4 CAD         1.3110   -2.1830   -0.9050 c3        1 BXC     -0.076400
      5 CAE         1.2900   -1.6900   -2.3360 c3        1 BXC     -0.079400
      6 CAF         2.1700   -2.5500   -3.2190 c3        1 BXC     -0.076400
      7 CAG         2.1090   -2.1350   -4.6830 c3        1 BXC     -0.064700
      8 CAH         2.8290   -0.8210   -4.9030 c3        1 BXC     -0.089100
      9 CAI         2.7040   -3.2330   -5.5560 c3        1 BXC     -0.076400
     10 CAJ         2.3150   -3.0860   -7.0120 c3        1 BXC     -0.079400
     11 CAK         2.8840   -4.2180   -7.8410 c3        1 BXC     -0.076400
     12 CAL         2.4670   -4.1330   -9.3040 c3        1 BXC     -0.064700
     13 CAM         3.2100   -3.0200  -10.0130 c3        1 BXC     -0.089100
     14 CAN         2.7110   -5.4720   -9.9880 c3        1 BXC     -0.076400
     15 CAO         1.9840   -5.5840  -11.3120 c3        1 BXC     -0.079400
     16 CAP         2.1950   -6.9500  -11.9300 c3        1 BXC     -0.076400
     17 CAQ         1.4580   -7.1050  -13.2550 c3        1 BXC     -0.062700
     18 CAR         2.1750   -6.3640  -14.3640 c3        1 BXC     -0.093100
     19 CAS         1.3180   -8.5830  -13.5880 c3        1 BXC     -0.083400
     20 CAT         0.3800   -8.8000  -14.7630 c3        1 BXC      0.140400
     21 OAU         0.1680  -10.2160  -14.8420 os        1 BXC     -0.431600
     22 CAV        -0.7530  -10.5990  -15.8370 c3        1 BXC      0.298900
     23 OAW        -0.0920  -10.2310  -17.0430 os        1 BXC     -0.439600
     24 CAX        -0.7910  -10.6450  -18.2100 c3        1 BXC      0.100400
     25 CAY        -1.0010  -12.1590  -18.2530 c3        1 BXC      0.082100
     26 OAZ         0.2140  -12.8470  -18.4660 oh        1 BXC     -0.593800
     27 CBA        -1.6850  -12.6440  -16.9620 c3        1 BXC      0.118100
     28 OBB        -1.7700  -14.0500  -16.9350 oh        1 BXC     -0.580800
     29 CBC        -0.9420  -12.1230  -15.7170 c3        1 BXC      0.091100
     30 OBD         0.2990  -12.8070  -15.6660 oh        1 BXC     -0.606800
     31 HAA        -1.6080   -0.9070    0.4960 hc        1 BXC      0.033200
     32 HAAA       -1.3040   -1.3360   -1.2380 hc        1 BXC      0.033200
     33 HAAB       -1.2650   -2.6250    0.0350 hc        1 BXC      0.033200
     34 HAB         0.6860   -0.2330   -0.2140 hc        1 BXC      0.045700
     35 HAC         1.9220   -1.3270    1.6380 hc        1 BXC      0.033200
     36 HACA        0.2240   -0.9470    2.1460 hc        1 BXC      0.033200
     37 HACB        0.6840   -2.6480    1.7240 hc        1 BXC      0.033200
     38 HAD         0.9380   -3.2400   -0.8640 hc        1 BXC      0.040200
     39 HADA        2.3720   -2.1910   -0.5370 hc        1 BXC      0.040200
     40 HAE         1.6420   -0.6250   -2.3700 hc        1 BXC      0.040700
     41 HAEA        0.2380   -1.7040   -2.7270 hc        1 BXC      0.040700
     42 HAF         1.8420   -3.6200   -3.1230 hc        1 BXC      0.039700
     43 HAFA        3.2320   -2.4970   -2.8610 hc        1 BXC      0.039700
     44 HAG         1.0270   -2.0010   -4.9680 hc        1 BXC      0.047700
     45 HAH         3.9050   -0.9080   -4.6150 hc        1 BXC      0.033367
     46 HAHA        2.3640   -0.0120   -4.2890 hc        1 BXC      0.033367
     47 HAHB        2.7750   -0.5190   -5.9770 hc        1 BXC      0.033367
     48 HAI         3.8210   -3.2210   -5.4600 hc        1 BXC      0.039700
     49 HAIA        2.3500   -4.2330   -5.1860 hc        1 BXC      0.039700
     50 HAJ         2.6880   -2.1040   -7.4060 hc        1 BXC      0.040200
     51 HAJA        1.1970   -3.0770   -7.1040 hc        1 BXC      0.040200
     52 HAK         2.5310   -5.1940   -7.4110 hc        1 BXC      0.039700
     53 HAKA        4.0030   -4.2120   -7.7720 hc        1 BXC      0.039700
     54 HAL         1.3630   -3.9090   -9.3450 hc        1 BXC      0.047700
     55 HAM         3.0140   -2.0400   -9.5150 hc        1 BXC      0.033367
     56 HAMA        4.3100   -3.2090   -9.9980 hc        1 BXC      0.033367
     57 HAMB        2.8780   -2.9440  -11.0760 hc        1 BXC      0.033367
     58 HAN         2.3650   -6.3010   -9.3140 hc        1 BXC      0.040700
     59 HANA        3.8120   -5.6130  -10.1480 hc        1 BXC      0.040700
     60 HAO         2.3510   -4.7900  -12.0140 hc        1 BXC      0.041200
     61 HAOA        0.8870   -5.4070  -11.1550 hc        1 BXC      0.041200
     62 HAP         3.2910   -7.1270  -12.0910 hc        1 BXC      0.042200
     63 HAPA        1.8350   -7.7340  -11.2100 hc        1 BXC      0.042200
     64 HAQ         0.4260   -6.6660  -13.1400 hc        1 BXC      0.046700
     65 HAR         2.3040   -5.2880  -14.0960 hc        1 BXC      0.036033
     66 HARA        3.1850   -6.8060  -14.5430 hc        1 BXC      0.036033
     67 HARB        1.5910   -6.4210  -15.3140 hc        1 BXC      0.036033
     68 HAS         0.9170   -9.1370  -12.6990 hc        1 BXC      0.054700
     69 HASA        2.3220   -9.0180  -13.8290 hc        1 BXC      0.054700
     70 HAT         0.8300   -8.4410  -15.7250 h1        1 BXC      0.041200
     71 HATA       -0.6060   -8.2890  -14.5970 h1        1 BXC      0.041200
     72 HAV        -1.7320  -10.0520  -15.7470 h2        1 BXC      0.045700
     73 HAX        -0.1240  -10.3180  -19.0520 h1        1 BXC      0.062700
     74 HAXA       -1.7800  -10.1180  -18.2670 h1        1 BXC      0.062700
     75 HAY        -1.6360  -12.4350  -19.1410 h1        1 BXC      0.092700
     76 HOAZ        0.8140  -12.6050  -17.7450 ho        1 BXC      0.427000
     77 HBA        -2.7510  -12.2850  -16.9310 h1        1 BXC      0.079700
     78 HOBB       -0.8680  -14.3890  -17.0410 ho        1 BXC      0.429000
     79 HBC        -1.5280  -12.3530  -14.7860 h1        1 BXC      0.067700
     80 HOBD        0.8550  -12.3450  -15.0230 ho        1 BXC      0.434000
@<TRIPOS>BOND
     1    1    2 1   
     2    1   31 1   
     3    1   32 1   
     4    1   33 1   
     5    2    3 1   
     6    2    4 1   
     7    2   34 1   
     8    3   35 1   
     9    3   36 1   
    10    3   37 1   
    11    4    5 1   
    12    4   38 1   
    13    4   39 1   
    14    5    6 1   
    15    5   40 1   
    16    5   41 1   
    17    6    7 1   
    18    6   42 1   
    19    6   43 1   
    20    7    8 1   
    21    7    9 1   
    22    7   44 1   
    23    8   45 1   
    24    8   46 1   
    25    8   47 1   
    26    9   10 1   
    27    9   48 1   
    28    9   49 1   
    29   10   11 1   
    30   10   50 1   
    31   10   51 1   
    32   11   12 1   
    33   11   52 1   
    34   11   53 1   
    35   12   13 1   
    36   12   14 1   
    37   12   54 1   
    38   13   55 1   
    39   13   56 1   
    40   13   57 1   
    41   14   15 1   
    42   14   58 1   
    43   14   59 1   
    44   15   16 1   
    45   15   60 1   
    46   15   61 1   
    47   16   17 1   
    48   16   62 1   
    49   16   63 1   
    50   17   18 1   
    51   17   19 1   
    52   17   64 1   
    53   18   65 1   
    54   18   66 1   
    55   18   67 1   
    56   19   20 1   
    57   19   68 1   
    58   19   69 1   
    59   20   21 1   
    60   20   70 1   
    61   20   71 1   
    62   21   22 1   
    63   22   23 1   
    64   22   29 1   
    65   22   72 1   
    66   23   24 1   
    67   24   25 1   
    68   24   73 1   
    69   24   74 1   
    70   25   26 1   
    71   25   27 1   
    72   25   75 1   
    73   26   76 1   
    74   27   28 1   
    75   27   29 1   
    76   27   77 1   
    77   28   78 1   
    78   29   30 1   
    79   29   79 1   
    80   30   80 1   
@<TRIPOS>SUBSTRUCTURE
     1 BXC         1 TEMP              0 ****  ****    0 ROOT
