@<TRIPOS>MOLECULE
BXC
   80    80     1     0     0
SMALL
bcc


@<TRIPOS>ATOM
      1 CAA        -9.3590    1.2580    6.4270 c3        1 BXC     -0.089600
      2 CAB        -8.3050    0.1640    6.6660 c3        1 BXC     -0.067700
      3 CAC        -8.5320   -0.4740    8.0510 c3        1 BXC     -0.089600
      4 CAD        -6.8780    0.7930    6.6090 c3        1 BXC     -0.076400
      5 CAE        -6.2070    0.4300    5.2650 c3        1 BXC     -0.079400
      6 CAF        -4.7090    0.8250    5.3110 c3        1 BXC     -0.076400
      7 CAG        -4.1920    1.0210    3.8910 c3        1 BXC     -0.064700
      8 CAH        -4.4200    2.4410    3.4680 c3        1 BXC     -0.089100
      9 CAI        -2.6890    0.7060    3.8430 c3        1 BXC     -0.076400
     10 CAJ        -2.2380    0.5660    2.3710 c3        1 BXC     -0.079400
     11 CAK        -0.8100   -0.0280    2.3210 c3        1 BXC     -0.076400
     12 CAL        -0.2880    0.0130    0.8750 c3        1 BXC     -0.064700
     13 CAM        -1.1970   -0.7770   -0.0040 c3        1 BXC     -0.090100
     14 CAN         1.1210   -0.5810    0.8200 c3        1 BXC     -0.076400
     15 CAO         1.9360    0.1160   -0.3140 c3        1 BXC     -0.079400
     16 CAP         2.7440   -0.9520   -1.1030 c3        1 BXC     -0.075400
     17 CAQ         3.9570   -0.2880   -1.7680 c3        1 BXC     -0.061700
     18 CAR         5.2020   -0.6580   -1.0210 c3        1 BXC     -0.092100
     19 CAS         4.0700   -0.7630   -3.2040 c3        1 BXC     -0.113400
     20 CAT         5.3650   -0.2090   -3.8270 c3        1 BXC      0.140400
     21 OAU         5.3320   -0.3990   -5.2500 os        1 BXC     -0.461600
     22 CAV         6.5160   -0.9110   -5.7790 c3        1 BXC      0.289900
     23 OAW         6.2560   -2.2470   -6.3190 os        1 BXC     -0.429600
     24 CAX         5.4040   -2.2230   -7.5230 c3        1 BXC      0.093400
     25 CAY         5.9260   -1.2640   -8.5890 c3        1 BXC      0.077100
     26 OAZ         4.9530   -1.1660   -9.6420 oh        1 BXC     -0.574800
     27 CBA         6.1850    0.0900   -8.0480 c3        1 BXC      0.122100
     28 OBB         4.9130    0.7120   -7.7070 oh        1 BXC     -0.579800
     29 CBC         7.0430    0.0550   -6.8370 c3        1 BXC      0.095100
     30 OBD         7.1030    1.3710   -6.2740 oh        1 BXC     -0.582800
     31 HAA        -9.1760    2.0200    7.0140 hc        1 BXC      0.033200
     32 HAAA      -10.2560    0.8990    6.6250 hc        1 BXC      0.033200
     33 HAAB       -9.3220    1.5500    5.4900 hc        1 BXC      0.033200
     34 HAB        -8.3860   -0.5220    5.9740 hc        1 BXC      0.045700
     35 HAC        -9.4360   -0.8620    8.0900 hc        1 BXC      0.033200
     36 HACA       -7.8660   -1.1790    8.2000 hc        1 BXC      0.033200
     37 HACB       -8.4410    0.2100    8.7450 hc        1 BXC      0.033200
     38 HAD        -6.3400    0.4450    7.3470 hc        1 BXC      0.039700
     39 HADA       -6.9480    1.7690    6.6870 hc        1 BXC      0.039700
     40 HAE        -6.2850   -0.5310    5.1110 hc        1 BXC      0.040200
     41 HAEA       -6.6470    0.9110    4.5420 hc        1 BXC      0.040200
     42 HAF        -4.1990    0.1180    5.7480 hc        1 BXC      0.039700
     43 HAFA       -4.6060    1.6600    5.8140 hc        1 BXC      0.039700
     44 HAG        -4.6670    0.4250    3.2900 hc        1 BXC      0.047700
     45 HAH        -5.3100    2.7320    3.7640 hc        1 BXC      0.033367
     46 HAHA       -3.7350    3.0170    3.8730 hc        1 BXC      0.033367
     47 HAHB       -4.3640    2.5040    2.4930 hc        1 BXC      0.033367
     48 HAI        -2.1870    1.4370    4.2710 hc        1 BXC      0.039200
     49 HAIA       -2.5150   -0.1290    4.3170 hc        1 BXC      0.039200
     50 HAJ        -2.2400    1.4510    1.9430 hc        1 BXC      0.040700
     51 HAJA       -2.8550   -0.0270    1.8970 hc        1 BXC      0.040700
     52 HAK        -0.8310   -0.9550    2.6350 hc        1 BXC      0.039700
     53 HAKA       -0.2180    0.4970    2.8960 hc        1 BXC      0.039700
     54 HAL        -0.2620    0.9350    0.5660 hc        1 BXC      0.047700
     55 HAM        -0.7240   -1.0220   -0.8240 hc        1 BXC      0.033700
     56 HAMA       -1.9820   -0.2400   -0.2290 hc        1 BXC      0.033700
     57 HAMB       -1.4810   -1.5910    0.4660 hc        1 BXC      0.033700
     58 HAN         1.0630   -1.5420    0.6380 hc        1 BXC      0.040200
     59 HANA        1.5680   -0.4390    1.6780 hc        1 BXC      0.040200
     60 HAO         2.5510    0.7640    0.0790 hc        1 BXC      0.040700
     61 HAOA        1.3200    0.5760   -0.9230 hc        1 BXC      0.040700
     62 HAP         3.0480   -1.6470   -0.4920 hc        1 BXC      0.041700
     63 HAPA        2.1720   -1.3500   -1.7920 hc        1 BXC      0.041700
     64 HAQ         3.8450    0.6840   -1.7550 hc        1 BXC      0.046700
     65 HAR         5.0310   -0.6110   -0.0580 hc        1 BXC      0.035033
     66 HARA        5.4700   -1.5700   -1.2620 hc        1 BXC      0.035033
     67 HARB        5.9230   -0.0320   -1.2560 hc        1 BXC      0.035033
     68 HAS         4.0910   -1.7420   -3.2240 hc        1 BXC      0.056200
     69 HASA        3.3010   -0.4430   -3.7150 hc        1 BXC      0.056200
     70 HAT         5.4410    0.7480   -3.6260 h1        1 BXC      0.051200
     71 HATA        6.1360   -0.6830   -3.4530 h1        1 BXC      0.051200
     72 HAV         7.1710   -0.9840   -5.0680 h2        1 BXC      0.091700
     73 HAX         5.3660   -3.1180   -7.8990 h1        1 BXC      0.061200
     74 HAXA        4.5050   -1.9500   -7.2680 h1        1 BXC      0.061200
     75 HAY         6.7560   -1.6210   -8.9570 h1        1 BXC      0.049700
     76 HOAZ        5.2420   -1.6100  -10.3530 ho        1 BXC      0.401000
     77 HBA         6.6280    0.6260   -8.7350 h1        1 BXC      0.099700
     78 HOBB        4.6550    1.2400   -8.3720 ho        1 BXC      0.416000
     79 HBC         7.9450   -0.2200   -7.0960 h1        1 BXC      0.090700
     80 HOBD        7.8450    1.7750   -6.5440 ho        1 BXC      0.427000
@<TRIPOS>BOND
     1    1    2 1   
     2    1   31 1   
     3    1   32 1   
     4    1   33 1   
     5    2    3 1   
     6    2    4 1   
     7    2   34 1   
     8    3   35 1   
     9    3   36 1   
    10    3   37 1   
    11    4    5 1   
    12    4   38 1   
    13    4   39 1   
    14    5    6 1   
    15    5   40 1   
    16    5   41 1   
    17    6    7 1   
    18    6   42 1   
    19    6   43 1   
    20    7    8 1   
    21    7    9 1   
    22    7   44 1   
    23    8   45 1   
    24    8   46 1   
    25    8   47 1   
    26    9   10 1   
    27    9   48 1   
    28    9   49 1   
    29   10   11 1   
    30   10   50 1   
    31   10   51 1   
    32   11   12 1   
    33   11   52 1   
    34   11   53 1   
    35   12   13 1   
    36   12   14 1   
    37   12   54 1   
    38   13   55 1   
    39   13   56 1   
    40   13   57 1   
    41   14   15 1   
    42   14   58 1   
    43   14   59 1   
    44   15   16 1   
    45   15   60 1   
    46   15   61 1   
    47   16   17 1   
    48   16   62 1   
    49   16   63 1   
    50   17   18 1   
    51   17   19 1   
    52   17   64 1   
    53   18   65 1   
    54   18   66 1   
    55   18   67 1   
    56   19   20 1   
    57   19   68 1   
    58   19   69 1   
    59   20   21 1   
    60   20   70 1   
    61   20   71 1   
    62   21   22 1   
    63   22   23 1   
    64   22   29 1   
    65   22   72 1   
    66   23   24 1   
    67   24   25 1   
    68   24   73 1   
    69   24   74 1   
    70   25   26 1   
    71   25   27 1   
    72   25   75 1   
    73   26   76 1   
    74   27   28 1   
    75   27   29 1   
    76   27   77 1   
    77   28   78 1   
    78   29   30 1   
    79   29   79 1   
    80   30   80 1   
@<TRIPOS>SUBSTRUCTURE
     1 BXC         1 TEMP              0 ****  ****    0 ROOT
