@<TRIPOS>MOLECULE
BXC
   80    80     1     0     0
SMALL
bcc


@<TRIPOS>ATOM
      1 CAA        11.3280    2.4020   -2.2850 c3        1 BXC     -0.089600
      2 CAB        11.7560    1.7640   -0.9800 c3        1 BXC     -0.067700
      3 CAC        12.8560    2.5840   -0.3360 c3        1 BXC     -0.089600
      4 CAD        10.5830    1.6170   -0.0210 c3        1 BXC     -0.076400
      5 CAE         9.6510    0.4920   -0.4190 c3        1 BXC     -0.079400
      6 CAF         8.5210    0.3460    0.5790 c3        1 BXC     -0.076400
      7 CAG         7.5170   -0.7220    0.1670 c3        1 BXC     -0.064700
      8 CAH         8.1050   -2.1090    0.3290 c3        1 BXC     -0.089100
      9 CAI         6.2420   -0.5740    0.9870 c3        1 BXC     -0.076400
     10 CAJ         5.0710   -1.3130    0.3720 c3        1 BXC     -0.079400
     11 CAK         3.8120   -1.1030    1.1870 c3        1 BXC     -0.076400
     12 CAL         2.6000   -1.7900    0.5670 c3        1 BXC     -0.064700
     13 CAM         2.6720   -3.2900    0.7610 c3        1 BXC     -0.089100
     14 CAN         1.3220   -1.2240    1.1730 c3        1 BXC     -0.076400
     15 CAO         0.0940   -1.5730    0.3580 c3        1 BXC     -0.079400
     16 CAP        -1.1460   -0.9370    0.9510 c3        1 BXC     -0.076400
     17 CAQ        -2.3980   -1.2510    0.1410 c3        1 BXC     -0.062700
     18 CAR        -2.8650   -2.6690    0.3950 c3        1 BXC     -0.093100
     19 CAS        -3.4910   -0.2480    0.4860 c3        1 BXC     -0.083400
     20 CAT        -4.6680   -0.3620   -0.4670 c3        1 BXC      0.140400
     21 OAU        -5.5190    0.7550   -0.1760 os        1 BXC     -0.431600
     22 CAV        -6.6350    0.8580   -1.0310 c3        1 BXC      0.298900
     23 OAW        -7.3890   -0.3060   -0.7120 os        1 BXC     -0.439600
     24 CAX        -8.6470   -0.3520   -1.3740 c3        1 BXC      0.100400
     25 CAY        -9.5200    0.8580   -1.0420 c3        1 BXC      0.082100
     26 OAZ        -9.9720    0.8230    0.2960 oh        1 BXC     -0.593800
     27 CBA        -8.7600    2.1660   -1.3290 c3        1 BXC      0.118100
     28 OBB        -9.5060    3.2840   -0.9100 oh        1 BXC     -0.580800
     29 CBC        -7.3760    2.1550   -0.6530 c3        1 BXC      0.091100
     30 OBD        -7.6010    2.2480    0.7430 oh        1 BXC     -0.606800
     31 HAA        12.2000    2.4920   -2.9760 hc        1 BXC      0.033200
     32 HAAA       10.5430    1.7850   -2.7850 hc        1 BXC      0.033200
     33 HAAB       10.9130    3.4230   -2.1050 hc        1 BXC      0.033200
     34 HAB        12.1650    0.7380   -1.2040 hc        1 BXC      0.045700
     35 HAC        12.4780    3.5990   -0.0620 hc        1 BXC      0.033200
     36 HACA       13.2260    2.0830    0.5900 hc        1 BXC      0.033200
     37 HACB       13.7130    2.7040   -1.0410 hc        1 BXC      0.033200
     38 HAD        10.9760    1.4180    1.0110 hc        1 BXC      0.040200
     39 HADA       10.0140    2.5830    0.0220 hc        1 BXC      0.040200
     40 HAE         9.2280    0.6930   -1.4390 hc        1 BXC      0.040700
     41 HAEA       10.2290   -0.4670   -0.4830 hc        1 BXC      0.040700
     42 HAF         8.9390    0.0950    1.5880 hc        1 BXC      0.039700
     43 HAFA        7.9940    1.3330    0.6740 hc        1 BXC      0.039700
     44 HAG         7.2600   -0.5680   -0.9190 hc        1 BXC      0.047700
     45 HAH         8.3870   -2.2950    1.3940 hc        1 BXC      0.033367
     46 HAHA        7.3660   -2.8860    0.0190 hc        1 BXC      0.033367
     47 HAHB        9.0180   -2.2220   -0.3030 hc        1 BXC      0.033367
     48 HAI         6.4220   -0.9510    2.0280 hc        1 BXC      0.039700
     49 HAIA        5.9790    0.5150    1.0710 hc        1 BXC      0.039700
     50 HAJ         4.9060   -0.9500   -0.6760 hc        1 BXC      0.040200
     51 HAJA        5.3050   -2.4080    0.3110 hc        1 BXC      0.040200
     52 HAK         3.9660   -1.4900    2.2280 hc        1 BXC      0.039700
     53 HAKA        3.6120   -0.0020    1.2680 hc        1 BXC      0.039700
     54 HAL         2.5960   -1.5720   -0.5380 hc        1 BXC      0.047700
     55 HAM         2.6700   -3.5470    1.8480 hc        1 BXC      0.033367
     56 HAMA        1.7980   -3.7900    0.2790 hc        1 BXC      0.033367
     57 HAMB        3.6050   -3.7000    0.3040 hc        1 BXC      0.033367
     58 HAN         1.2030   -1.6090    2.2190 hc        1 BXC      0.040700
     59 HANA        1.4070   -0.1060    1.2380 hc        1 BXC      0.040700
     60 HAO         0.2300   -1.2200   -0.6980 hc        1 BXC      0.041200
     61 HAOA       -0.0320   -2.6870    0.3220 hc        1 BXC      0.041200
     62 HAP        -1.2860   -1.2910    2.0050 hc        1 BXC      0.042200
     63 HAPA       -0.9990    0.1760    0.9910 hc        1 BXC      0.042200
     64 HAQ        -2.1500   -1.1450   -0.9530 hc        1 BXC      0.046700
     65 HAR        -3.7390   -2.9150   -0.2560 hc        1 BXC      0.036033
     66 HARA       -2.0470   -3.3960    0.1720 hc        1 BXC      0.036033
     67 HARB       -3.1720   -2.7990    1.4610 hc        1 BXC      0.036033
     68 HAS        -3.8440   -0.4130    1.5360 hc        1 BXC      0.054700
     69 HASA       -3.0800    0.7950    0.4310 hc        1 BXC      0.054700
     70 HAT        -4.3340   -0.3010   -1.5370 h1        1 BXC      0.041200
     71 HATA       -5.2410   -1.3110   -0.3060 h1        1 BXC      0.041200
     72 HAV        -6.3430    0.8490   -2.1170 h2        1 BXC      0.045700
     73 HAX        -8.4910   -0.4210   -2.4820 h1        1 BXC      0.062700
     74 HAXA       -9.1200   -1.2940   -0.9850 h1        1 BXC      0.062700
     75 HAY       -10.4660    0.8320   -1.6540 h1        1 BXC      0.092700
     76 HOAZ       -9.1880    0.8010    0.8660 ho        1 BXC      0.427000
     77 HBA        -8.6270    2.3000   -2.4380 h1        1 BXC      0.079700
     78 HOBB       -9.7050    3.1550    0.0300 ho        1 BXC      0.429000
     79 HBC        -6.7700    3.0410   -0.9880 h1        1 BXC      0.067700
     80 HOBD       -6.7680    2.0320    1.1840 ho        1 BXC      0.434000
@<TRIPOS>BOND
     1    1    2 1   
     2    1   31 1   
     3    1   32 1   
     4    1   33 1   
     5    2    3 1   
     6    2    4 1   
     7    2   34 1   
     8    3   35 1   
     9    3   36 1   
    10    3   37 1   
    11    4    5 1   
    12    4   38 1   
    13    4   39 1   
    14    5    6 1   
    15    5   40 1   
    16    5   41 1   
    17    6    7 1   
    18    6   42 1   
    19    6   43 1   
    20    7    8 1   
    21    7    9 1   
    22    7   44 1   
    23    8   45 1   
    24    8   46 1   
    25    8   47 1   
    26    9   10 1   
    27    9   48 1   
    28    9   49 1   
    29   10   11 1   
    30   10   50 1   
    31   10   51 1   
    32   11   12 1   
    33   11   52 1   
    34   11   53 1   
    35   12   13 1   
    36   12   14 1   
    37   12   54 1   
    38   13   55 1   
    39   13   56 1   
    40   13   57 1   
    41   14   15 1   
    42   14   58 1   
    43   14   59 1   
    44   15   16 1   
    45   15   60 1   
    46   15   61 1   
    47   16   17 1   
    48   16   62 1   
    49   16   63 1   
    50   17   18 1   
    51   17   19 1   
    52   17   64 1   
    53   18   65 1   
    54   18   66 1   
    55   18   67 1   
    56   19   20 1   
    57   19   68 1   
    58   19   69 1   
    59   20   21 1   
    60   20   70 1   
    61   20   71 1   
    62   21   22 1   
    63   22   23 1   
    64   22   29 1   
    65   22   72 1   
    66   23   24 1   
    67   24   25 1   
    68   24   73 1   
    69   24   74 1   
    70   25   26 1   
    71   25   27 1   
    72   25   75 1   
    73   26   76 1   
    74   27   28 1   
    75   27   29 1   
    76   27   77 1   
    77   28   78 1   
    78   29   30 1   
    79   29   79 1   
    80   30   80 1   
@<TRIPOS>SUBSTRUCTURE
     1 BXC         1 TEMP              0 ****  ****    0 ROOT
