@<TRIPOS>MOLECULE
BXC
   80    80     1     0     0
SMALL
bcc


@<TRIPOS>ATOM
      1 CAA        -0.9720   -1.5420   -0.1800 c3        1 BXC     -0.089600
      2 CAB         0.5110   -1.3140    0.0210 c3        1 BXC     -0.067700
      3 CAC         0.8900   -1.5850    1.4620 c3        1 BXC     -0.089600
      4 CAD         1.3400   -2.1870   -0.9110 c3        1 BXC     -0.076400
      5 CAE         1.3190   -1.6870   -2.3400 c3        1 BXC     -0.079400
      6 CAF         2.1880   -2.5520   -3.2290 c3        1 BXC     -0.076400
      7 CAG         2.1230   -2.1320   -4.6920 c3        1 BXC     -0.064700
      8 CAH         2.8460   -0.8190   -4.9110 c3        1 BXC     -0.089100
      9 CAI         2.7120   -3.2290   -5.5700 c3        1 BXC     -0.076400
     10 CAJ         2.3130   -3.0800   -7.0230 c3        1 BXC     -0.079400
     11 CAK         2.8800   -4.2090   -7.8580 c3        1 BXC     -0.076400
     12 CAL         2.4500   -4.1250   -9.3170 c3        1 BXC     -0.064700
     13 CAM         3.1750   -3.0020  -10.0310 c3        1 BXC     -0.089100
     14 CAN         2.7020   -5.4600  -10.0070 c3        1 BXC     -0.076400
     15 CAO         1.9590   -5.5790  -11.3210 c3        1 BXC     -0.079400
     16 CAP         2.1830   -6.9400  -11.9460 c3        1 BXC     -0.076400
     17 CAQ         1.4280   -7.1040  -13.2590 c3        1 BXC     -0.062700
     18 CAR         2.1130   -6.3460  -14.3770 c3        1 BXC     -0.093100
     19 CAS         1.3100   -8.5830  -13.5970 c3        1 BXC     -0.083400
     20 CAT         0.3540   -8.8130  -14.7540 c3        1 BXC      0.140400
     21 OAU         0.1720  -10.2340  -14.8380 os        1 BXC     -0.431600
     22 CAV        -0.7610  -10.6310  -15.8160 c3        1 BXC      0.298900
     23 OAW        -0.1340  -10.2400  -17.0330 os        1 BXC     -0.439600
     24 CAX        -0.8500  -10.6620  -18.1880 c3        1 BXC      0.100400
     25 CAY        -1.0260  -12.1800  -18.2360 c3        1 BXC      0.082100
     26 OAZ         0.1990  -12.8390  -18.4810 oh        1 BXC     -0.593800
     27 CBA        -1.6720  -12.6890  -16.9340 c3        1 BXC      0.118100
     28 OBB        -1.7240  -14.0970  -16.9150 oh        1 BXC     -0.580800
     29 CBC        -0.9130  -12.1600  -15.7030 c3        1 BXC      0.091100
     30 OBD         0.3440  -12.8160  -15.6820 oh        1 BXC     -0.606800
     31 HAA        -1.2670   -1.3090   -1.2310 hc        1 BXC      0.033200
     32 HAAA       -1.2380   -2.6060    0.0340 hc        1 BXC      0.033200
     33 HAAB       -1.5600   -0.8860    0.5060 hc        1 BXC      0.033200
     34 HAB         0.7390   -0.2340   -0.2080 hc        1 BXC      0.045700
     35 HAC         1.9680   -1.3510    1.6340 hc        1 BXC      0.033200
     36 HACA        0.7160   -2.6590    1.7170 hc        1 BXC      0.033200
     37 HACB        0.2760   -0.9550    2.1500 hc        1 BXC      0.033200
     38 HAD         2.4010   -2.2080   -0.5470 hc        1 BXC      0.040200
     39 HADA        0.9560   -3.2410   -0.8730 hc        1 BXC      0.040200
     40 HAE         0.2660   -1.6900   -2.7270 hc        1 BXC      0.040700
     41 HAEA        1.6810   -0.6260   -2.3700 hc        1 BXC      0.040700
     42 HAF         3.2510   -2.5070   -2.8770 hc        1 BXC      0.039700
     43 HAFA        1.8510   -3.6190   -3.1360 hc        1 BXC      0.039700
     44 HAG         1.0400   -1.9950   -4.9730 hc        1 BXC      0.047700
     45 HAH         2.3820   -0.0100   -4.2960 hc        1 BXC      0.033367
     46 HAHA        3.9210   -0.9090   -4.6220 hc        1 BXC      0.033367
     47 HAHB        2.7920   -0.5170   -5.9840 hc        1 BXC      0.033367
     48 HAI         2.3610   -4.2290   -5.1990 hc        1 BXC      0.039700
     49 HAIA        3.8290   -3.2170   -5.4820 hc        1 BXC      0.039700
     50 HAJ         2.6800   -2.0960   -7.4180 hc        1 BXC      0.040200
     51 HAJA        1.1940   -3.0750   -7.1080 hc        1 BXC      0.040200
     52 HAK         4.0000   -4.1960   -7.7990 hc        1 BXC      0.039700
     53 HAKA        2.5370   -5.1860   -7.4260 hc        1 BXC      0.039700
     54 HAL         1.3430   -3.9130   -9.3490 hc        1 BXC      0.047700
     55 HAM         4.2770   -3.1780  -10.0220 hc        1 BXC      0.033367
     56 HAMA        2.8370   -2.9310  -11.0930 hc        1 BXC      0.033367
     57 HAMB        2.9690   -2.0250   -9.5320 hc        1 BXC      0.033367
     58 HAN         3.8030   -5.5860  -10.1820 hc        1 BXC      0.040700
     59 HANA        2.3760   -6.2940   -9.3300 hc        1 BXC      0.040700
     60 HAO         0.8620   -5.4200  -11.1480 hc        1 BXC      0.041200
     61 HAOA        2.3030   -4.7770  -12.0250 hc        1 BXC      0.041200
     62 HAP         1.8480   -7.7310  -11.2230 hc        1 BXC      0.042200
     63 HAPA        3.2790   -7.0980  -12.1250 hc        1 BXC      0.042200
     64 HAQ         0.3900   -6.6850  -13.1270 hc        1 BXC      0.046700
     65 HAR         1.5160   -6.4120  -15.3180 hc        1 BXC      0.036033
     66 HARA        3.1290   -6.7660  -14.5730 hc        1 BXC      0.036033
     67 HARB        2.2230   -5.2680  -14.1070 hc        1 BXC      0.036033
     68 HAS         2.3180   -8.9970  -13.8580 hc        1 BXC      0.054700
     69 HASA        0.9380   -9.1490  -12.7030 hc        1 BXC      0.054700
     70 HAT        -0.6390   -8.3260  -14.5660 h1        1 BXC      0.041200
     71 HATA        0.7780   -8.4400  -15.7220 h1        1 BXC      0.041200
     72 HAV        -1.7500  -10.1070  -15.7010 h2        1 BXC      0.045700
     73 HAX        -0.2080  -10.3150  -19.0420 h1        1 BXC      0.062700
     74 HAXA       -1.8510  -10.1580  -18.2200 h1        1 BXC      0.062700
     75 HAY        -1.6740  -12.4650  -19.1130 h1        1 BXC      0.092700
     76 HOAZ        0.8090  -12.5890  -17.7710 ho        1 BXC      0.427000
     77 HBA        -2.7440  -12.3540  -16.8780 h1        1 BXC      0.079700
     78 HOBB       -0.8170  -14.4150  -17.0440 ho        1 BXC      0.429000
     79 HBC        -1.4740  -12.4090  -14.7600 h1        1 BXC      0.067700
     80 HOBD        0.9030  -12.3460  -15.0490 ho        1 BXC      0.434000
@<TRIPOS>BOND
     1    1    2 1   
     2    1   31 1   
     3    1   32 1   
     4    1   33 1   
     5    2    3 1   
     6    2    4 1   
     7    2   34 1   
     8    3   35 1   
     9    3   36 1   
    10    3   37 1   
    11    4    5 1   
    12    4   38 1   
    13    4   39 1   
    14    5    6 1   
    15    5   40 1   
    16    5   41 1   
    17    6    7 1   
    18    6   42 1   
    19    6   43 1   
    20    7    8 1   
    21    7    9 1   
    22    7   44 1   
    23    8   45 1   
    24    8   46 1   
    25    8   47 1   
    26    9   10 1   
    27    9   48 1   
    28    9   49 1   
    29   10   11 1   
    30   10   50 1   
    31   10   51 1   
    32   11   12 1   
    33   11   52 1   
    34   11   53 1   
    35   12   13 1   
    36   12   14 1   
    37   12   54 1   
    38   13   55 1   
    39   13   56 1   
    40   13   57 1   
    41   14   15 1   
    42   14   58 1   
    43   14   59 1   
    44   15   16 1   
    45   15   60 1   
    46   15   61 1   
    47   16   17 1   
    48   16   62 1   
    49   16   63 1   
    50   17   18 1   
    51   17   19 1   
    52   17   64 1   
    53   18   65 1   
    54   18   66 1   
    55   18   67 1   
    56   19   20 1   
    57   19   68 1   
    58   19   69 1   
    59   20   21 1   
    60   20   70 1   
    61   20   71 1   
    62   21   22 1   
    63   22   23 1   
    64   22   29 1   
    65   22   72 1   
    66   23   24 1   
    67   24   25 1   
    68   24   73 1   
    69   24   74 1   
    70   25   26 1   
    71   25   27 1   
    72   25   75 1   
    73   26   76 1   
    74   27   28 1   
    75   27   29 1   
    76   27   77 1   
    77   28   78 1   
    78   29   30 1   
    79   29   79 1   
    80   30   80 1   
@<TRIPOS>SUBSTRUCTURE
     1 BXC         1 TEMP              0 ****  ****    0 ROOT
