@<TRIPOS>MOLECULE
BXD
   80    82     1     0     0
SMALL
bcc


@<TRIPOS>ATOM
      1 F1          0.6680   -0.8740   -1.4540 f         1 BXD     -0.216967
      2 C2          1.8950   -0.3040   -1.6370 c3        1 BXD      0.625900
      3 F3          2.7320   -0.9260   -0.7450 f         1 BXD     -0.216967
      4 F4          2.3180   -0.7040   -2.8740 f         1 BXD     -0.216967
      5 C5          1.9140    1.2620   -1.4700 c3        1 BXD      0.062100
      6 O7          1.3390    1.5180   -0.1790 os        1 BXD     -0.324900
      7 C8          2.1250    2.2480    0.6930 ca        1 BXD      0.172100
      8 C9          1.5760    3.4600    1.1780 ca        1 BXD     -0.117400
      9 C10         2.2950    4.1770    2.1710 ca        1 BXD      0.190900
     10 C11         3.5240    3.6850    2.6420 ca        1 BXD     -0.157000
     11 C13         4.0490    2.4890    2.1430 ca        1 BXD      0.008700
     12 C14         3.3490    1.7720    1.1650 ca        1 BXD     -0.159000
     13 C16         5.3690    1.9910    2.6300 c3        1 BXD     -0.047100
     14 C19         5.2370    0.7440    3.4980 c3        1 BXD     -0.051700
     15 C21         6.6180    0.1200    3.7690 c3        1 BXD      0.121100
     16 C23         6.4220   -1.2240    4.5370 c3        1 BXD      0.160500
     17 C25         5.7930   -0.9430    5.8860 c3        1 BXD     -0.336600
     18 S28         4.1770   -0.3050    5.7560 s6        1 BXD      1.345000
     19 C29         4.5610    1.0680    4.8150 c3        1 BXD     -0.341600
     20 O32         3.7590    0.0880    7.0150 o         1 BXD     -0.606800
     21 O33         3.4340   -1.1970    4.9920 o         1 BXD     -0.606800
     22 N34         7.7130   -1.9800    4.6490 n4        1 BXD     -0.764000
     23 C36         7.5150   -3.4610    4.8520 c3        1 BXD      0.184100
     24 C39         8.8310   -4.1400    4.9880 ca        1 BXD     -0.202300
     25 C40         9.3550   -4.4010    6.2570 ca        1 BXD     -0.099000
     26 C42        10.5720   -5.0830    6.4040 ca        1 BXD     -0.043300
     27 C43        11.2510   -5.4930    5.2490 ca        1 BXD     -0.074000
     28 C45        10.7280   -5.2320    3.9800 ca        1 BXD     -0.115000
     29 C47         9.5190   -4.5580    3.8410 ca        1 BXD     -0.111000
     30 C49        11.0970   -5.3570    7.7900 c3        1 BXD     -0.018700
     31 C50        11.2980   -4.0360    8.5270 c3        1 BXD     -0.090767
     32 C54        10.0880   -6.2140    8.5500 c3        1 BXD     -0.090767
     33 C58        12.4290   -6.0970    7.7660 c3        1 BXD     -0.090767
     34 O62         7.2770   -0.2300    2.5640 oh        1 BXD     -0.609800
     35 F64         1.7920    5.3310    2.6560 f         1 BXD     -0.100900
     36 N65         0.3010    3.9460    0.6730 n4        1 BXD     -0.701000
     37 C68         1.0670    1.9850   -2.5290 c3        1 BXD      0.122400
     38 O71        -0.0690    2.5910   -1.9410 os        1 BXD     -0.473600
     39 C72        -1.2730    1.8080   -2.0560 c3        1 BXD      0.113400
     40 C75        -2.3570    2.5760   -1.3410 c3        1 BXD     -0.107100
     41 H1          2.9870    1.5870   -1.5270 h1        1 BXD      0.101700
     42 H2          4.0660    4.2680    3.4060 ha        1 BXD      0.189000
     43 H3          3.7420    0.8200    0.7670 ha        1 BXD      0.186000
     44 H4          5.8960    2.7960    3.2090 hc        1 BXD      0.077700
     45 H5          5.9990    1.7500    1.7280 hc        1 BXD      0.077700
     46 H6          4.6120   -0.0110    2.9350 hc        1 BXD      0.098700
     47 H7          7.2500    0.8280    4.3750 h1        1 BXD      0.068700
     48 H8          5.7230   -1.8770    3.9210 hx        1 BXD      0.137700
     49 H9          6.4360   -0.2430    6.4860 h1        1 BXD      0.135200
     50 H10         5.7380   -1.8880    6.4950 h1        1 BXD      0.135200
     51 H11         5.1940    1.7960    5.3920 h1        1 BXD      0.132700
     52 H12         3.6170    1.6410    4.5880 h1        1 BXD      0.132700
     53 H13         8.2670   -1.6090    5.4280 hn        1 BXD      0.458800
     54 H15         6.9470   -3.8530    3.9590 hx        1 BXD      0.106200
     55 H16         6.8860   -3.6010    5.7770 hx        1 BXD      0.106200
     56 H17         8.7990   -4.0880    7.1560 ha        1 BXD      0.138000
     57 H18        12.2090   -6.0360    5.3240 ha        1 BXD      0.168000
     58 H19        11.2730   -5.5730    3.0850 ha        1 BXD      0.161000
     59 H20         9.1010   -4.3760    2.8400 ha        1 BXD      0.136000
     60 H21        11.6910   -4.2350    9.5540 hc        1 BXD      0.045478
     61 H22        10.3340   -3.4830    8.6220 hc        1 BXD      0.045478
     62 H23        12.0320   -3.3940    7.9840 hc        1 BXD      0.045478
     63 H24         9.9210   -7.1820    8.0200 hc        1 BXD      0.045478
     64 H25         9.1110   -5.6850    8.6490 hc        1 BXD      0.045478
     65 H26        10.4760   -6.4330    9.5750 hc        1 BXD      0.045478
     66 H27        13.2070   -5.4970    7.2360 hc        1 BXD      0.045478
     67 H28        12.3220   -7.0900    7.2670 hc        1 BXD      0.045478
     68 H29        12.7770   -6.2710    8.8140 hc        1 BXD      0.045478
     69 H30         7.6510    0.5760    2.1820 ho        1 BXD      0.445000
     70 H31        -0.0360    3.3170   -0.0910 hn        1 BXD      0.482467
     71 H32        -0.3910    3.9580    1.4310 hn        1 BXD      0.482467
     72 H33         0.7860    1.2690   -3.3470 h1        1 BXD      0.094200
     73 H34         1.6600    2.8380   -2.9600 h1        1 BXD      0.094200
     74 H35        -1.0970    0.8020   -1.5900 h1        1 BXD      0.066200
     75 H36        -1.5170    1.6850   -3.1450 h1        1 BXD      0.066200
     76 H37        -3.3300    2.0400   -1.4760 hc        1 BXD      0.052367
     77 H38        -2.4570    3.6060   -1.7590 hc        1 BXD      0.052367
     78 H39        -2.1430    2.6460   -0.2470 hc        1 BXD      0.052367
     79 H342        8.2490   -1.8400    3.7780 hn        1 BXD      0.458800
     80 H653        0.4150    4.8980    0.3050 hn        1 BXD      0.482467
@<TRIPOS>BOND
     1    1    2 1   
     2    2    3 1   
     3    2    4 1   
     4    2    5 1   
     5    5    6 1   
     6    5   37 1   
     7    5   41 1   
     8    6    7 1   
     9    7    8 ar  
    10    7   12 ar  
    11    8    9 ar  
    12    8   36 1   
    13    9   10 ar  
    14    9   35 1   
    15   10   11 ar  
    16   10   42 1   
    17   11   12 ar  
    18   11   13 1   
    19   12   43 1   
    20   13   14 1   
    21   13   44 1   
    22   13   45 1   
    23   14   15 1   
    24   14   19 1   
    25   14   46 1   
    26   15   16 1   
    27   15   34 1   
    28   15   47 1   
    29   16   17 1   
    30   16   22 1   
    31   16   48 1   
    32   17   18 1   
    33   17   49 1   
    34   17   50 1   
    35   18   19 1   
    36   18   20 2   
    37   18   21 2   
    38   19   51 1   
    39   19   52 1   
    40   22   23 1   
    41   22   53 1   
    42   22   79 1   
    43   23   24 1   
    44   23   54 1   
    45   23   55 1   
    46   24   25 ar  
    47   24   29 ar  
    48   25   26 ar  
    49   25   56 1   
    50   26   27 ar  
    51   26   30 1   
    52   27   28 ar  
    53   27   57 1   
    54   28   29 ar  
    55   28   58 1   
    56   29   59 1   
    57   30   31 1   
    58   30   32 1   
    59   30   33 1   
    60   31   60 1   
    61   31   61 1   
    62   31   62 1   
    63   32   63 1   
    64   32   64 1   
    65   32   65 1   
    66   33   66 1   
    67   33   67 1   
    68   33   68 1   
    69   34   69 1   
    70   36   70 1   
    71   36   71 1   
    72   36   80 1   
    73   37   38 1   
    74   37   72 1   
    75   37   73 1   
    76   38   39 1   
    77   39   40 1   
    78   39   74 1   
    79   39   75 1   
    80   40   76 1   
    81   40   77 1   
    82   40   78 1   
@<TRIPOS>SUBSTRUCTURE
     1 BXD         1 TEMP              0 ****  ****    0 ROOT
