@<TRIPOS>MOLECULE
BXD
   79    81     1     0     0
SMALL
bcc


@<TRIPOS>ATOM
      1 F1          1.6020   -0.8820   -2.0500 f         1 BXD     -0.234967
      2 C2          2.5560    0.0950   -2.0630 c3        1 BXD      0.612900
      3 F3          3.5810   -0.3990   -1.2920 f         1 BXD     -0.234967
      4 F4          3.0570    0.0940   -3.3400 f         1 BXD     -0.234967
      5 C5          2.0730    1.5200   -1.5970 c3        1 BXD      0.109100
      6 O7          1.6190    1.3570   -0.2540 os        1 BXD     -0.292900
      7 C8          2.2650    2.1740    0.6710 ca        1 BXD      0.004100
      8 C9          1.5800    3.3300    1.1430 ca        1 BXD      0.185600
      9 C10         2.2120    4.0370    2.2200 ca        1 BXD      0.044900
     10 C11         3.4390    3.6170    2.7430 ca        1 BXD     -0.108000
     11 C13         4.0830    2.4850    2.2360 ca        1 BXD     -0.151300
     12 C14         3.4900    1.7680    1.1950 ca        1 BXD     -0.096000
     13 C16         5.3910    2.0440    2.7870 c3        1 BXD     -0.018100
     14 C19         5.2250    0.8250    3.6970 c3        1 BXD     -0.054700
     15 C21         6.5640    0.0930    3.8410 c3        1 BXD      0.120100
     16 C23         6.3750   -1.1700    4.7410 c3        1 BXD      0.122500
     17 C25         5.9380   -0.7470    6.1250 c3        1 BXD     -0.324600
     18 S28         4.3390   -0.0300    6.1100 s6        1 BXD      1.343000
     19 C29         4.6870    1.2430    5.0500 c3        1 BXD     -0.347600
     20 O32         4.0850    0.4460    7.3870 o         1 BXD     -0.615800
     21 O33         3.4940   -0.9660    5.5200 o         1 BXD     -0.615800
     22 N34         7.6340   -1.9900    4.7580 ny        1 BXD     -0.760000
     23 C36         7.3880   -3.4370    5.0760 c3        1 BXD      0.178100
     24 C39         8.6740   -4.1870    5.1180 ca        1 BXD     -0.190300
     25 C40         9.2990   -4.4350    6.3430 ca        1 BXD     -0.099000
     26 C42        10.4900   -5.1730    6.4030 ca        1 BXD     -0.047300
     27 C43        11.0410   -5.6520    5.2070 ca        1 BXD     -0.081000
     28 C45        10.4160   -5.4050    3.9820 ca        1 BXD     -0.117000
     29 C47         9.2330   -4.6740    3.9300 ca        1 BXD     -0.111000
     30 C49        11.1270   -5.4280    7.7440 c3        1 BXD     -0.017700
     31 C50        11.4580   -4.0950    8.4110 c3        1 BXD     -0.090433
     32 C54        10.1530   -6.2070    8.6250 c3        1 BXD     -0.090433
     33 C58        12.4150   -6.2350    7.6280 c3        1 BXD     -0.090433
     34 O62         7.1080   -0.3270    2.6070 oh        1 BXD     -0.605800
     35 F64         1.6070    5.1340    2.7430 f         1 BXD     -0.133900
     36 N65         0.4220    3.7750    0.5570 nv        1 BXD     -0.833200
     37 C68         0.9370    2.0370   -2.4840 c3        1 BXD      0.116400
     38 O71        -0.2840    1.8810   -1.7740 os        1 BXD     -0.421600
     39 C72        -1.4280    2.0390   -2.6220 c3        1 BXD      0.126400
     40 C75        -2.6410    1.9130   -1.7300 c3        1 BXD     -0.099100
     41 H1          2.9610    2.2030   -1.6690 h1        1 BXD      0.091700
     42 H2          3.8950    4.2020    3.5580 ha        1 BXD      0.149000
     43 H3          3.9750    0.8720    0.7750 ha        1 BXD      0.144000
     44 H4          6.0830    1.7840    1.9400 hc        1 BXD      0.064700
     45 H5          5.8740    2.8770    3.3640 hc        1 BXD      0.064700
     46 H6          4.4830    0.1220    3.2130 hc        1 BXD      0.089700
     47 H7          7.3410    0.7750    4.2910 h1        1 BXD      0.096700
     48 H8          5.5710   -1.8230    4.2760 hx        1 BXD      0.126700
     49 H9          5.9080   -1.6300    6.8210 h1        1 BXD      0.124700
     50 H10         6.6740   -0.0300    6.5750 h1        1 BXD      0.124700
     51 H11         3.7530    1.8520    4.8460 h1        1 BXD      0.146700
     52 H12         5.3950    1.9850    5.5140 h1        1 BXD      0.146700
     53 H13         8.0740   -1.9220    3.8260 hn        1 BXD      0.457800
     54 H15         6.8550   -3.4880    6.0680 hx        1 BXD      0.105700
     55 H16         6.7080   -3.8520    4.2770 hx        1 BXD      0.105700
     56 H17         8.8440   -4.0630    7.2750 ha        1 BXD      0.139000
     57 H18        11.9750   -6.2380    5.2130 ha        1 BXD      0.162000
     58 H19        10.8610   -5.7970    3.0540 ha        1 BXD      0.157000
     59 H20         8.7350   -4.4990    2.9640 ha        1 BXD      0.137000
     60 H21        12.1650   -3.5080    7.7780 hc        1 BXD      0.043922
     61 H22        10.5340   -3.4930    8.5740 hc        1 BXD      0.043922
     62 H23        11.9380   -4.2790    9.4030 hc        1 BXD      0.043922
     63 H24         9.8930   -7.1820    8.1480 hc        1 BXD      0.043922
     64 H25        10.6230   -6.4110    9.6170 hc        1 BXD      0.043922
     65 H26         9.2160   -5.6260    8.7910 hc        1 BXD      0.043922
     66 H27        12.8490   -6.3930    8.6460 hc        1 BXD      0.043922
     67 H28        13.1680   -5.6920    7.0080 hc        1 BXD      0.043922
     68 H29        12.2160   -7.2360    7.1750 hc        1 BXD      0.043922
     69 H30         6.3910   -0.4380    1.9660 ho        1 BXD      0.440000
     70 H31        -0.0630    3.1390   -0.0400 hn        1 BXD      0.445300
     71 H32        -0.1170    4.4410    1.0580 hn        1 BXD      0.445300
     72 H33         1.0950    3.1280   -2.6980 h1        1 BXD      0.055700
     73 H34         0.9140    1.4640   -3.4490 h1        1 BXD      0.055700
     74 H35        -1.4170    1.2400   -3.4090 h1        1 BXD      0.036700
     75 H36        -1.3870    3.0460   -3.1160 h1        1 BXD      0.036700
     76 H37        -3.5630    2.0330   -2.3470 hc        1 BXD      0.050367
     77 H38        -2.6270    2.6990   -0.9380 hc        1 BXD      0.050367
     78 H39        -2.6580    0.9140   -1.2340 hc        1 BXD      0.050367
     79 H342        8.2870   -1.6000    5.4450 hn        1 BXD      0.457800
@<TRIPOS>BOND
     1    1    2 1   
     2    2    3 1   
     3    2    4 1   
     4    2    5 1   
     5    5    6 1   
     6    5   37 1   
     7    5   41 1   
     8    6    7 1   
     9    7    8 ar  
    10    7   12 ar  
    11    8    9 ar  
    12    8   36 1   
    13    9   10 ar  
    14    9   35 1   
    15   10   11 ar  
    16   10   42 1   
    17   11   12 ar  
    18   11   13 1   
    19   12   43 1   
    20   13   14 1   
    21   13   44 1   
    22   13   45 1   
    23   14   15 1   
    24   14   19 1   
    25   14   46 1   
    26   15   16 1   
    27   15   34 1   
    28   15   47 1   
    29   16   17 1   
    30   16   22 1   
    31   16   48 1   
    32   17   18 1   
    33   17   49 1   
    34   17   50 1   
    35   18   19 1   
    36   18   20 2   
    37   18   21 2   
    38   19   51 1   
    39   19   52 1   
    40   22   23 1   
    41   22   53 1   
    42   22   79 1   
    43   23   24 1   
    44   23   54 1   
    45   23   55 1   
    46   24   25 ar  
    47   24   29 ar  
    48   25   26 ar  
    49   25   56 1   
    50   26   27 ar  
    51   26   30 1   
    52   27   28 ar  
    53   27   57 1   
    54   28   29 ar  
    55   28   58 1   
    56   29   59 1   
    57   30   31 1   
    58   30   32 1   
    59   30   33 1   
    60   31   60 1   
    61   31   61 1   
    62   31   62 1   
    63   32   63 1   
    64   32   64 1   
    65   32   65 1   
    66   33   66 1   
    67   33   67 1   
    68   33   68 1   
    69   34   69 1   
    70   36   70 1   
    71   36   71 1   
    72   37   38 1   
    73   37   72 1   
    74   37   73 1   
    75   38   39 1   
    76   39   40 1   
    77   39   74 1   
    78   39   75 1   
    79   40   76 1   
    80   40   77 1   
    81   40   78 1   
@<TRIPOS>SUBSTRUCTURE
     1 BXD         1 TEMP              0 ****  ****    0 ROOT
