@<TRIPOS>MOLECULE
BXD
   78    74     1     0     0
SMALL
bcc


@<TRIPOS>ATOM
      1 F1         -3.0150    7.7860   -0.6910 f         1 BXD     -0.159667
      2 C2         -3.1750    6.9090    0.3470 c3        1 BXD      0.421000
      3 F3         -2.0230    6.3130    0.6000 f         1 BXD     -0.159667
      4 F4         -3.5720    7.5600    1.4070 f         1 BXD     -0.159667
      5 C5         -4.1860    5.8900   -0.0110 c3        1 BXD     -0.002000
      6 O7         -3.8120    5.2530   -1.2450 os        1 BXD     -0.192000
      7 C8         -3.6320    3.8140   -1.1350 c2        1 BXD     -0.030000
      8 C9         -4.7360    2.9530   -1.3180 c1        1 BXD      0.061000
      9 C10        -4.5490    1.5930   -1.3420 c2        1 BXD      0.025000
     10 C11        -3.2600    1.0560   -1.1850 c1        1 BXD     -0.114000
     11 C13        -2.1580    1.9080   -1.0040 c1        1 BXD     -0.101000
     12 C14        -2.3420    3.2780   -0.9790 c2        1 BXD     -0.108000
     13 C16        -0.7080    1.3090   -0.9520 c2        1 BXD     -0.486000
     14 C19        -0.7310    0.0060   -0.1850 c3        1 BXD     -0.099000
     15 C21         0.7400   -0.5520   -0.0940 c3        1 BXD      0.014000
     16 C23         0.8990   -1.8360    0.7950 c3        1 BXD      0.026000
     17 C25         0.3260   -1.7030    2.2140 c3        1 BXD     -0.873000
     18 S28        -1.3180   -1.1610    2.1270 s4        1 BXD      2.029800
     19 C29        -1.4060    0.2500    1.1700 c2        1 BXD     -0.486000
     20 O32        -1.7970   -0.9060    3.4360 o         1 BXD     -0.537900
     21 O33        -2.1380   -2.1950    1.5080 o         1 BXD     -0.537900
     22 N34         2.2910   -2.1480    0.8940 n3        1 BXD     -0.297000
     23 C36         2.4610   -3.5960    0.9600 c3        1 BXD     -0.035000
     24 C39         4.0180   -3.9580    0.9120 c2        1 BXD     -0.091000
     25 C40         4.4250   -5.3020    0.7500 c2        1 BXD     -0.120000
     26 C42         5.7520   -5.6040    0.6040 c1        1 BXD     -0.059000
     27 C43         6.6980   -4.5910    0.6160 c1        1 BXD     -0.128500
     28 C45         6.2960   -3.2560    0.7770 c1        1 BXD     -0.128500
     29 C47         4.9630   -2.9500    0.9230 c1        1 BXD     -0.114000
     30 C49         6.1910   -7.0570    0.4220 c3        1 BXD     -0.017000
     31 C50         5.8140   -7.8650    1.6660 c3        1 BXD     -0.203667
     32 C54         5.4870   -7.6610   -0.8120 c3        1 BXD     -0.203667
     33 C58         7.7380   -7.1110    0.2160 c3        1 BXD     -0.203667
     34 O62         1.1700   -0.8450   -1.3610 oh        1 BXD     -0.322000
     35 F64        -5.6090    0.7730   -1.4360 f         1 BXD     -0.105000
     36 N65        -6.0350    3.4970   -1.5760 n2        1 BXD     -0.334000
     37 C68        -5.5590    6.5660   -0.1770 c3        1 BXD     -0.050000
     38 O71        -5.4640    7.5900   -1.1360 os        1 BXD     -0.274000
     39 C72        -6.6800    8.4130   -1.2540 c3        1 BXD     -0.025000
     40 C75        -6.5220    9.4000   -2.4250 c3        1 BXD     -0.216000
     41 H1         -4.2410    5.1700    0.7520 h1        1 BXD      0.124000
     42 H2         -3.1310    0.0960   -1.2030 ha        1 BXD      0.156000
     43 H3         -1.5600    3.8850   -0.8510 ha        1 BXD      0.149000
     44 H4         -0.1150    1.9340   -0.5130 ha        1 BXD      0.126250
     45 H5         -0.3890    1.1420   -1.8690 ha        1 BXD      0.126250
     46 H6         -1.2600   -0.6210   -0.6730 hc        1 BXD      0.127000
     47 H7          1.2800    0.1070    0.2490 h1        1 BXD      0.092000
     48 H8          0.4290   -2.6130    0.3320 h1        1 BXD      0.093000
     49 H9          0.8900   -1.1950    2.8540 h1        1 BXD      0.167000
     50 H10         0.3400   -2.5960    2.6350 h1        1 BXD      0.167000
     51 H11        -1.0340    1.0870    1.5640 ha        1 BXD      0.126250
     52 H12        -2.3750    0.4980    1.0780 ha        1 BXD      0.126250
     53 H13         2.7320   -1.8210    0.1560 hn        1 BXD      0.180000
     54 H15         2.0950   -3.9130    1.7470 h1        1 BXD      0.079500
     55 H16         2.0060   -4.0140    0.1970 h1        1 BXD      0.079500
     56 H17         3.7480   -6.0300    0.7430 ha        1 BXD      0.133000
     57 H18         7.6080   -4.7990    0.5160 ha        1 BXD      0.132500
     58 H19         6.9510   -2.5550    0.7840 ha        1 BXD      0.132500
     59 H20         4.6910   -2.0380    1.0340 ha        1 BXD      0.143000
     60 H21         4.8140   -8.0960    1.6360 hc        1 BXD      0.076556
     61 H22         6.3510   -8.7120    1.6880 hc        1 BXD      0.076556
     62 H23         5.9940   -7.3670    2.4230 hc        1 BXD      0.076556
     63 H24         4.5260   -7.7430   -0.6330 hc        1 BXD      0.076556
     64 H25         5.8670   -8.5590   -1.0020 hc        1 BXD      0.076556
     65 H26         5.6240   -7.0890   -1.5730 hc        1 BXD      0.076556
     66 H27         7.9980   -6.5110   -0.5590 hc        1 BXD      0.076556
     67 H28         8.2150   -6.7870    1.0800 hc        1 BXD      0.076556
     68 H29         8.0080   -8.0340    0.0200 hc        1 BXD      0.076556
     69 H30         1.8350   -0.2980   -1.5820 ho        1 BXD      0.209000
     70 H31        -6.7920    2.9870   -1.4050 hn        1 BXD      0.219500
     71 H32        -6.1130    4.2830   -1.9740 hn        1 BXD      0.219500
     72 H33        -5.8400    6.9430    0.6720 h1        1 BXD      0.096000
     73 H34        -6.2220    5.8960   -0.4740 h1        1 BXD      0.096000
     74 H35        -6.8150    8.9070   -0.4350 h1        1 BXD      0.072500
     75 H36        -7.4720    7.8210   -1.4220 h1        1 BXD      0.072500
     76 H37        -6.1770    8.9320   -3.1960 hc        1 BXD      0.087333
     77 H38        -5.9160   10.0920   -2.1760 hc        1 BXD      0.087333
     78 H39        -7.3920    9.7900   -2.6420 hc        1 BXD      0.087333
@<TRIPOS>BOND
     1    1    2 1   
     2    2    3 1   
     3    2    4 1   
     4    2    5 1   
     5    5    6 1   
     6    5   37 1   
     7    5   41 1   
     8    6    7 1   
     9    7    8 1   
    10    7   12 1   
    11    8    9 1   
    12    9   10 1   
    13    9   35 1   
    14   10   42 1   
    15   11   12 1   
    16   12   43 1   
    17   13   14 1   
    18   13   44 1   
    19   13   45 1   
    20   14   15 1   
    21   14   19 1   
    22   14   46 1   
    23   15   16 1   
    24   15   34 1   
    25   15   47 1   
    26   16   17 1   
    27   16   22 1   
    28   16   48 1   
    29   17   18 1   
    30   17   49 1   
    31   17   50 1   
    32   18   20 1   
    33   18   21 1   
    34   19   51 1   
    35   19   52 1   
    36   22   23 1   
    37   22   53 1   
    38   23   24 1   
    39   23   54 1   
    40   23   55 1   
    41   24   25 1   
    42   24   29 1   
    43   25   26 1   
    44   25   56 1   
    45   26   30 1   
    46   27   28 1   
    47   27   57 1   
    48   28   58 1   
    49   29   59 1   
    50   30   31 1   
    51   30   32 1   
    52   30   33 1   
    53   31   60 1   
    54   31   61 1   
    55   31   62 1   
    56   32   63 1   
    57   32   64 1   
    58   32   65 1   
    59   33   66 1   
    60   33   67 1   
    61   33   68 1   
    62   34   69 1   
    63   36   70 1   
    64   36   71 1   
    65   37   38 1   
    66   37   72 1   
    67   37   73 1   
    68   38   39 1   
    69   39   40 1   
    70   39   74 1   
    71   39   75 1   
    72   40   76 1   
    73   40   77 1   
    74   40   78 1   
@<TRIPOS>SUBSTRUCTURE
     1 BXD         1 TEMP              0 ****  ****    0 ROOT
