@<TRIPOS>MOLECULE
BXD
   79    81     1     0     0
SMALL
bcc


@<TRIPOS>ATOM
      1 F1          1.6110   -0.8880   -2.0420 f         1 BXD     -0.234967
      2 C2          2.5610    0.0930   -2.0520 c3        1 BXD      0.612900
      3 F3          3.5870   -0.3960   -1.2810 f         1 BXD     -0.234967
      4 F4          3.0640    0.0950   -3.3290 f         1 BXD     -0.234967
      5 C5          2.0710    1.5160   -1.5870 c3        1 BXD      0.109100
      6 O7          1.6170    1.3510   -0.2440 os        1 BXD     -0.293900
      7 C8          2.2590    2.1710    0.6810 ca        1 BXD      0.004100
      8 C9          1.5680    3.3240    1.1530 ca        1 BXD      0.185600
      9 C10         2.1950    4.0340    2.2310 ca        1 BXD      0.044900
     10 C11         3.4240    3.6200    2.7540 ca        1 BXD     -0.108000
     11 C13         4.0740    2.4910    2.2470 ca        1 BXD     -0.151300
     12 C14         3.4850    1.7710    1.2060 ca        1 BXD     -0.096000
     13 C16         5.3840    2.0570    2.8000 c3        1 BXD     -0.018100
     14 C19         5.2220    0.8380    3.7110 c3        1 BXD     -0.054700
     15 C21         6.5610    0.1060    3.8500 c3        1 BXD      0.120100
     16 C23         6.3770   -1.1560    4.7510 c3        1 BXD      0.122500
     17 C25         5.9450   -0.7340    6.1370 c3        1 BXD     -0.324600
     18 S28         4.3470   -0.0160    6.1290 s6        1 BXD      1.343000
     19 C29         4.6890    1.2560    5.0660 c3        1 BXD     -0.347600
     20 O32         4.0980    0.4610    7.4070 o         1 BXD     -0.615800
     21 O33         3.4990   -0.9520    5.5430 o         1 BXD     -0.615800
     22 N34         7.6350   -1.9770    4.7620 n4        1 BXD     -0.760000
     23 C36         7.3910   -3.4240    5.0820 c3        1 BXD      0.178100
     24 C39         8.6760   -4.1760    5.1110 ca        1 BXD     -0.190300
     25 C40         9.3070   -4.4330    6.3310 ca        1 BXD     -0.099000
     26 C42        10.4980   -5.1720    6.3790 ca        1 BXD     -0.047300
     27 C43        11.0410   -5.6430    5.1770 ca        1 BXD     -0.081000
     28 C45        10.4100   -5.3870    3.9580 ca        1 BXD     -0.117000
     29 C47         9.2280   -4.6550    3.9170 ca        1 BXD     -0.111000
     30 C49        11.1430   -5.4380    7.7150 c3        1 BXD     -0.017700
     31 C50        11.4790   -4.1100    8.3890 c3        1 BXD     -0.090433
     32 C54        10.1720   -6.2210    8.5960 c3        1 BXD     -0.090433
     33 C58        12.4280   -6.2460    7.5860 c3        1 BXD     -0.090433
     34 O62         7.1010   -0.3150    2.6130 oh        1 BXD     -0.605800
     35 F64         1.5850    5.1280    2.7530 f         1 BXD     -0.133900
     36 N65         0.4080    3.7620    0.5660 nh        1 BXD     -0.832200
     37 C68         0.9330    2.0280   -2.4740 c3        1 BXD      0.116400
     38 O71        -0.2870    1.8650   -1.7660 os        1 BXD     -0.421600
     39 C72        -1.4310    2.0200   -2.6140 c3        1 BXD      0.126400
     40 C75        -2.6440    1.8860   -1.7240 c3        1 BXD     -0.099100
     41 H1          2.9560    2.2030   -1.6580 h1        1 BXD      0.092700
     42 H2          3.8760    4.2070    3.5700 ha        1 BXD      0.149000
     43 H3          3.9740    0.8770    0.7860 ha        1 BXD      0.144000
     44 H4          6.0770    1.7980    1.9530 hc        1 BXD      0.064700
     45 H5          5.8630    2.8920    3.3760 hc        1 BXD      0.064700
     46 H6          4.4780    0.1340    3.2300 hc        1 BXD      0.089700
     47 H7          7.3410    0.7890    4.2960 h1        1 BXD      0.096700
     48 H8          5.5700   -1.8100    4.2890 hx        1 BXD      0.126700
     49 H9          5.9190   -1.6160    6.8330 h1        1 BXD      0.124700
     50 H10         6.6840   -0.0160    6.5830 h1        1 BXD      0.124700
     51 H11         3.7550    1.8650    4.8660 h1        1 BXD      0.146700
     52 H12         5.3990    1.9990    5.5260 h1        1 BXD      0.146700
     53 H13         8.2910   -1.5870    5.4460 hn        1 BXD      0.457800
     54 H15         6.7030   -3.8380    4.2890 hx        1 BXD      0.105700
     55 H16         6.8660   -3.4740    6.0790 hx        1 BXD      0.105700
     56 H17         8.8590   -4.0670    7.2680 ha        1 BXD      0.139000
     57 H18        11.9750   -6.2310    5.1740 ha        1 BXD      0.162000
     58 H19        10.8490   -5.7730    3.0240 ha        1 BXD      0.157000
     59 H20         8.7240   -4.4730    2.9550 ha        1 BXD      0.137000
     60 H21        11.9630   -4.3010    9.3770 hc        1 BXD      0.043922
     61 H22        10.5560   -3.5070    8.5610 hc        1 BXD      0.043922
     62 H23        12.1840   -3.5200    7.7560 hc        1 BXD      0.043922
     63 H24         9.2370   -5.6390    8.7720 hc        1 BXD      0.043922
     64 H25        10.6480   -6.4330    9.5850 hc        1 BXD      0.043922
     65 H26         9.9070   -7.1920    8.1140 hc        1 BXD      0.043922
     66 H27        12.8680   -6.4120    8.6010 hc        1 BXD      0.043922
     67 H28        13.1790   -5.7000    6.9660 hc        1 BXD      0.043922
     68 H29        12.2250   -7.2430    7.1280 hc        1 BXD      0.043922
     69 H30         6.3810   -0.4250    1.9750 ho        1 BXD      0.440000
     70 H31        -0.0740    3.1240   -0.0310 hn        1 BXD      0.445300
     71 H32        -0.1350    4.4260    1.0660 hn        1 BXD      0.445300
     72 H33         1.0870    3.1210   -2.6870 h1        1 BXD      0.055700
     73 H34         0.9150    1.4560   -3.4400 h1        1 BXD      0.055700
     74 H35        -1.4160    1.2230   -3.4040 h1        1 BXD      0.036700
     75 H36        -1.3950    3.0290   -3.1060 h1        1 BXD      0.036700
     76 H37        -3.5670    2.0040   -2.3410 hc        1 BXD      0.050367
     77 H38        -2.6580    0.8840   -1.2320 hc        1 BXD      0.050367
     78 H39        -2.6340    2.6690   -0.9290 hc        1 BXD      0.050367
     79 H342        8.0710   -1.9100    3.8280 hn        1 BXD      0.457800
@<TRIPOS>BOND
     1    1    2 1   
     2    2    3 1   
     3    2    4 1   
     4    2    5 1   
     5    5    6 1   
     6    5   37 1   
     7    5   41 1   
     8    6    7 1   
     9    7    8 ar  
    10    7   12 ar  
    11    8    9 ar  
    12    8   36 1   
    13    9   10 ar  
    14    9   35 1   
    15   10   11 ar  
    16   10   42 1   
    17   11   12 ar  
    18   11   13 1   
    19   12   43 1   
    20   13   14 1   
    21   13   44 1   
    22   13   45 1   
    23   14   15 1   
    24   14   19 1   
    25   14   46 1   
    26   15   16 1   
    27   15   34 1   
    28   15   47 1   
    29   16   17 1   
    30   16   22 1   
    31   16   48 1   
    32   17   18 1   
    33   17   49 1   
    34   17   50 1   
    35   18   19 1   
    36   18   20 2   
    37   18   21 2   
    38   19   51 1   
    39   19   52 1   
    40   22   23 1   
    41   22   53 1   
    42   22   79 1   
    43   23   24 1   
    44   23   54 1   
    45   23   55 1   
    46   24   25 ar  
    47   24   29 ar  
    48   25   26 ar  
    49   25   56 1   
    50   26   27 ar  
    51   26   30 1   
    52   27   28 ar  
    53   27   57 1   
    54   28   29 ar  
    55   28   58 1   
    56   29   59 1   
    57   30   31 1   
    58   30   32 1   
    59   30   33 1   
    60   31   60 1   
    61   31   61 1   
    62   31   62 1   
    63   32   63 1   
    64   32   64 1   
    65   32   65 1   
    66   33   66 1   
    67   33   67 1   
    68   33   68 1   
    69   34   69 1   
    70   36   70 1   
    71   36   71 1   
    72   37   38 1   
    73   37   72 1   
    74   37   73 1   
    75   38   39 1   
    76   39   40 1   
    77   39   74 1   
    78   39   75 1   
    79   40   76 1   
    80   40   77 1   
    81   40   78 1   
@<TRIPOS>SUBSTRUCTURE
     1 BXD         1 TEMP              0 ****  ****    0 ROOT
