@<TRIPOS>MOLECULE
BXD
   78    80     1     0     0
SMALL
bcc


@<TRIPOS>ATOM
      1 F1         -5.6730   -3.5720    1.8350 f         1 BXD     -0.230633
      2 C2         -5.1580   -3.6770    0.5760 c3        1 BXD      0.636900
      3 F3         -3.8540   -4.0670    0.7530 f         1 BXD     -0.230633
      4 F4         -5.7700   -4.7740    0.0230 f         1 BXD     -0.230633
      5 C5         -5.2880   -2.3930   -0.3210 c3        1 BXD      0.108100
      6 O7         -4.7970   -1.3320    0.4990 os        1 BXD     -0.308900
      7 C8         -4.2820   -0.2550   -0.2210 ca        1 BXD      0.021100
      8 C9         -5.0510    0.9400   -0.2730 ca        1 BXD      0.134600
      9 C10        -4.4080    2.0780   -0.8540 ca        1 BXD      0.056900
     10 C11        -3.1130    1.9890   -1.3780 ca        1 BXD     -0.125000
     11 C13        -2.4060    0.7850   -1.3370 ca        1 BXD     -0.102300
     12 C14        -2.9940   -0.3370   -0.7490 ca        1 BXD     -0.104000
     13 C16        -1.0400    0.6900   -1.9220 c3        1 BXD     -0.023100
     14 C19         0.0490    0.7220   -0.8540 c3        1 BXD     -0.026700
     15 C21         1.3940    0.2990   -1.4710 c3        1 BXD      0.146100
     16 C23         2.5120    0.2610   -0.3870 c3        1 BXD      0.176500
     17 C25         2.6500    1.6550    0.2400 c3        1 BXD     -0.359600
     18 S28         1.2560    2.2080    1.0520 s6        1 BXD      1.339000
     19 C29         0.1520    2.1010   -0.2350 c3        1 BXD     -0.330600
     20 O32         1.4410    3.5560    1.3870 o         1 BXD     -0.647800
     21 O33         0.9190    1.3290    2.0850 o         1 BXD     -0.647800
     22 N34         3.7440   -0.2660   -0.9500 n3        1 BXD     -0.829200
     23 C36         4.6410   -0.8550    0.0310 c3        1 BXD      0.211100
     24 C39         6.0450   -1.0140   -0.4730 ca        1 BXD     -0.104300
     25 C40         7.1110   -0.4880    0.2600 ca        1 BXD     -0.121000
     26 C42         8.4350   -0.6540   -0.1720 ca        1 BXD     -0.064300
     27 C43         8.6700   -1.3550   -1.3600 ca        1 BXD     -0.122000
     28 C45         7.6060   -1.8800   -2.0950 ca        1 BXD     -0.132000
     29 C47         6.2950   -1.7150   -1.6580 ca        1 BXD     -0.115000
     30 C49         9.5530   -0.0740    0.6550 c3        1 BXD     -0.010700
     31 C50         9.3680    1.4370    0.7680 c3        1 BXD     -0.086100
     32 C54         9.5220   -0.6920    2.0510 c3        1 BXD     -0.086100
     33 C58        10.9240   -0.3410    0.0470 c3        1 BXD     -0.086100
     34 O62         1.1730   -0.9920   -2.0170 oh        1 BXD     -0.597800
     35 F64        -5.0620    3.2670   -0.8970 f         1 BXD     -0.142900
     36 N65        -6.3760    0.9800    0.1360 nh        1 BXD     -0.823200
     37 C68        -6.7260   -2.1520   -0.7720 c3        1 BXD      0.100400
     38 O71        -7.5000   -1.8280    0.3750 os        1 BXD     -0.416600
     39 C72        -8.8650   -1.5560    0.0450 c3        1 BXD      0.125400
     40 C75        -9.5680   -1.2460    1.3450 c3        1 BXD     -0.097100
     41 H1         -4.6350   -2.5440   -1.2240 h1        1 BXD      0.085700
     42 H2         -2.6600    2.8860   -1.8290 ha        1 BXD      0.148000
     43 H3         -2.4420   -1.2870   -0.6840 ha        1 BXD      0.156000
     44 H4         -0.9510   -0.2750   -2.4940 hc        1 BXD      0.064700
     45 H5         -0.8710    1.5290   -2.6490 hc        1 BXD      0.064700
     46 H6         -0.2200   -0.0250   -0.0520 hc        1 BXD      0.087700
     47 H7          1.6830    1.0100   -2.2940 h1        1 BXD      0.037700
     48 H8          2.1670   -0.4560    0.4210 h1        1 BXD      0.090700
     49 H9          3.5110    1.6310    0.9640 h1        1 BXD      0.116700
     50 H10         2.9580    2.3820   -0.5580 h1        1 BXD      0.116700
     51 H11         0.3990    2.8440   -1.0410 h1        1 BXD      0.124200
     52 H12        -0.8820    2.3880    0.1120 h1        1 BXD      0.124200
     53 H13         4.2110    0.4310   -1.4970 hn        1 BXD      0.368800
     54 H15         4.6600   -0.2610    0.9930 h1        1 BXD      0.045200
     55 H16         4.2290   -1.8760    0.2800 h1        1 BXD      0.045200
     56 H17         6.9090    0.0600    1.1930 ha        1 BXD      0.133000
     57 H18         9.6940   -1.5060   -1.7340 ha        1 BXD      0.136000
     58 H19         7.8070   -2.4300   -3.0270 ha        1 BXD      0.133000
     59 H20         5.4580   -2.1350   -2.2350 ha        1 BXD      0.141000
     60 H21         8.3990    1.6800    1.2640 hc        1 BXD      0.037811
     61 H22        10.1970    1.8760    1.3750 hc        1 BXD      0.037811
     62 H23         9.3800    1.9050   -0.2450 hc        1 BXD      0.037811
     63 H24         9.6480   -1.7990    1.9870 hc        1 BXD      0.037811
     64 H25        10.3520   -0.2720    2.6700 hc        1 BXD      0.037811
     65 H26         8.5540   -0.4710    2.5590 hc        1 BXD      0.037811
     66 H27        11.0020    0.1170   -0.9680 hc        1 BXD      0.037811
     67 H28        11.7160    0.1070    0.6960 hc        1 BXD      0.037811
     68 H29        11.1140   -1.4390   -0.0300 hc        1 BXD      0.037811
     69 H30         2.0240   -1.3340   -2.3180 ho        1 BXD      0.426000
     70 H31        -6.6670    0.2110    0.7060 hn        1 BXD      0.420800
     71 H32        -6.6970    1.8740    0.4340 hn        1 BXD      0.420800
     72 H33        -6.7500   -1.2990   -1.5030 h1        1 BXD      0.055200
     73 H34        -7.1290   -3.0820   -1.2580 h1        1 BXD      0.055200
     74 H35        -8.9080   -0.6830   -0.6600 h1        1 BXD      0.032200
     75 H36        -9.3140   -2.4550   -0.4550 h1        1 BXD      0.032200
     76 H37        -9.4970   -2.1140    2.0430 hc        1 BXD      0.048033
     77 H38        -9.1000   -0.3610    1.8390 hc        1 BXD      0.048033
     78 H39       -10.6420   -1.0260    1.1400 hc        1 BXD      0.048033
@<TRIPOS>BOND
     1    1    2 1   
     2    2    3 1   
     3    2    4 1   
     4    2    5 1   
     5    5    6 1   
     6    5   37 1   
     7    5   41 1   
     8    6    7 1   
     9    7    8 ar  
    10    7   12 ar  
    11    8    9 ar  
    12    8   36 1   
    13    9   10 ar  
    14    9   35 1   
    15   10   11 ar  
    16   10   42 1   
    17   11   12 ar  
    18   11   13 1   
    19   12   43 1   
    20   13   14 1   
    21   13   44 1   
    22   13   45 1   
    23   14   15 1   
    24   14   19 1   
    25   14   46 1   
    26   15   16 1   
    27   15   34 1   
    28   15   47 1   
    29   16   17 1   
    30   16   22 1   
    31   16   48 1   
    32   17   18 1   
    33   17   49 1   
    34   17   50 1   
    35   18   19 1   
    36   18   20 2   
    37   18   21 2   
    38   19   51 1   
    39   19   52 1   
    40   22   23 1   
    41   22   53 1   
    42   23   24 1   
    43   23   54 1   
    44   23   55 1   
    45   24   25 ar  
    46   24   29 ar  
    47   25   26 ar  
    48   25   56 1   
    49   26   27 ar  
    50   26   30 1   
    51   27   28 ar  
    52   27   57 1   
    53   28   29 ar  
    54   28   58 1   
    55   29   59 1   
    56   30   31 1   
    57   30   32 1   
    58   30   33 1   
    59   31   60 1   
    60   31   61 1   
    61   31   62 1   
    62   32   63 1   
    63   32   64 1   
    64   32   65 1   
    65   33   66 1   
    66   33   67 1   
    67   33   68 1   
    68   34   69 1   
    69   36   70 1   
    70   36   71 1   
    71   37   38 1   
    72   37   72 1   
    73   37   73 1   
    74   38   39 1   
    75   39   40 1   
    76   39   74 1   
    77   39   75 1   
    78   40   76 1   
    79   40   77 1   
    80   40   78 1   
@<TRIPOS>SUBSTRUCTURE
     1 BXD         1 TEMP              0 ****  ****    0 ROOT
