@<TRIPOS>MOLECULE
BXF
   19    19     1     0     0
SMALL
bcc


@<TRIPOS>ATOM
      1 C1         -1.3980   -0.5450   -0.4850 c3        1 BXF      0.320900
      2 O1         -2.7170   -0.7050   -0.0540 oh        1 BXF     -0.573800
      3 C2         -0.7160    0.7040    0.1410 c3        1 BXF      0.078600
      4 F          -1.2780    1.8690   -0.3480 f         1 BXF     -0.228300
      5 C3          0.7950    0.6650   -0.1780 c3        1 BXF      0.073100
      6 O3          1.4890    1.6710    0.5390 oh        1 BXF     -0.600800
      7 C4          1.3930   -0.6780    0.2720 c3        1 BXF      0.118100
      8 O4          2.7280   -0.8020   -0.1790 oh        1 BXF     -0.591800
      9 C5          0.6040   -1.8320   -0.3550 c3        1 BXF      0.137400
     10 O5         -0.7720   -1.7330   -0.0200 os        1 BXF     -0.445600
     11 H1         -1.4200   -0.4810   -1.6070 h2        1 BXF      0.090700
     12 H2         -0.8600    0.6820    1.2600 h1        1 BXF      0.077700
     13 H3          0.9540    0.8090   -1.2830 h1        1 BXF      0.063700
     14 H4          1.3580   -0.7400    1.3960 h1        1 BXF      0.062700
     15 HO4         3.2080   -0.0430    0.1790 ho        1 BXF      0.425000
     16 H51         0.7370   -1.8380   -1.4680 h1        1 BXF      0.072700
     17 H52         0.9280   -2.8140    0.0780 h1        1 BXF      0.072700
     18 HO1        -2.7000   -1.0500    0.8500 ho        1 BXF      0.424000
     19 HO3         1.0950    2.5160    0.2870 ho        1 BXF      0.421000
@<TRIPOS>BOND
     1    1    2 1   
     2    1    3 1   
     3    1   10 1   
     4    1   11 1   
     5    2   18 1   
     6    3    4 1   
     7    3    5 1   
     8    3   12 1   
     9    5    6 1   
    10    5    7 1   
    11    5   13 1   
    12    6   19 1   
    13    7    8 1   
    14    7    9 1   
    15    7   14 1   
    16    8   15 1   
    17    9   10 1   
    18    9   16 1   
    19    9   17 1   
@<TRIPOS>SUBSTRUCTURE
     1 BXF         1 TEMP              0 ****  ****    0 ROOT
