@<TRIPOS>MOLECULE
BXF
   19    19     1     0     0
SMALL
bcc


@<TRIPOS>ATOM
      1 C1         -1.1010   -0.3960   -1.1850 c3        1 BXF      0.320900
      2 O1         -1.5480   -0.2250   -2.4800 oh        1 BXF     -0.573800
      3 C2          0.4140   -0.3960   -1.1850 c3        1 BXF      0.078600
      4 F           0.8570   -1.5130   -1.8460 f         1 BXF     -0.228300
      5 C3          0.9790   -0.3960    0.1890 c3        1 BXF      0.073100
      6 O3          2.4160   -0.2140    0.1050 oh        1 BXF     -0.600800
      7 C4          0.4040    0.6880    1.0350 c3        1 BXF      0.118100
      8 O4          0.8570    0.5130    2.3830 oh        1 BXF     -0.591800
      9 C5         -1.1180    0.6850    1.0250 c3        1 BXF      0.137400
     10 O5         -1.6700    0.6800   -0.3350 os        1 BXF     -0.445600
     11 H1         -1.4160   -1.2590   -0.8540 h2        1 BXF      0.090700
     12 H2          0.7310    0.3970   -1.6570 h1        1 BXF      0.077700
     13 H3          0.7930   -1.2580    0.6080 h1        1 BXF      0.063700
     14 H4          0.7200    1.5500    0.7040 h1        1 BXF      0.062700
     15 HO4         1.0980    1.2990    2.7180 ho        1 BXF      0.425000
     16 H51        -1.4390    1.4790    1.4920 h1        1 BXF      0.072700
     17 H52        -1.4360   -0.1090    1.4960 h1        1 BXF      0.072700
     18 HO1        -2.3660   -0.5620   -2.5580 ho        1 BXF      0.424000
     19 HO3         2.8240   -0.9640    0.3460 ho        1 BXF      0.421000
@<TRIPOS>BOND
     1    1    2 1   
     2    1    3 1   
     3    1   10 1   
     4    1   11 1   
     5    2   18 1   
     6    3    4 1   
     7    3    5 1   
     8    3   12 1   
     9    5    6 1   
    10    5    7 1   
    11    5   13 1   
    12    6   19 1   
    13    7    8 1   
    14    7    9 1   
    15    7   14 1   
    16    8   15 1   
    17    9   10 1   
    18    9   16 1   
    19    9   17 1   
@<TRIPOS>SUBSTRUCTURE
     1 BXF         1 TEMP              0 ****  ****    0 ROOT
