@<TRIPOS>MOLECULE
BXL
   48    49     1     0     0
SMALL
bcc


@<TRIPOS>ATOM
      1 C1          0.7760    0.7220    0.7620 ca        1 BXL     -0.104500
      2 N1         -0.3080    0.5170    4.2940 n         1 BXL     -0.465100
      3 O1          1.1990    0.8220    6.0330 o         1 BXL     -0.597100
      4 C2          2.1650    0.7030    0.8800 ca        1 BXL     -0.157000
      5 N2          1.5270    7.6010    8.5440 n         1 BXL     -0.481100
      6 O2         -0.6460    7.6470    7.7680 o         1 BXL     -0.595100
      7 C3          2.7430    0.6310    2.1450 ca        1 BXL     -0.104500
      8 N3          3.3060    8.6800   10.5060 nh        1 BXL     -0.806200
      9 C4          1.9540    0.5740    3.2910 ca        1 BXL     -0.169500
     10 C5          0.5480    0.5940    3.1820 ca        1 BXL      0.067600
     11 C6         -0.0320    0.6690    1.8910 ca        1 BXL     -0.169500
     12 C7          0.0340    0.6530    5.6310 c         1 BXL      0.670100
     13 C8         -1.1190    0.5550    6.6260 c3        1 BXL     -0.123200
     14 C9         -2.1590    1.5800    6.3790 c2        1 BXL     -0.208200
     15 C10        -2.0680    2.8550    6.7730 c2        1 BXL     -0.127200
     16 C11        -0.9030    3.4190    7.4960 c3        1 BXL     -0.067200
     17 C12        -0.8730    4.9310    7.4250 c3        1 BXL     -0.070400
     18 C13         0.3670    5.4730    8.1020 c3        1 BXL     -0.153400
     19 C14         0.3570    6.9950    8.1080 c         1 BXL      0.661100
     20 C15         1.7630    8.9880    8.5940 ca        1 BXL      0.027600
     21 C16         1.1630    9.8670    7.6720 ca        1 BXL     -0.114000
     22 C17         1.4350   11.2300    7.6990 ca        1 BXL     -0.141000
     23 C18         2.3160   11.7500    8.6430 ca        1 BXL     -0.118000
     24 C19         2.9090   10.9110    9.5780 ca        1 BXL     -0.170000
     25 C20         2.6450    9.5260    9.5900 ca        1 BXL      0.079600
     26 H1          0.3100    0.7790   -0.2340 ha        1 BXL      0.132500
     27 HN1        -1.2820    0.4830    4.0850 hn        1 BXL      0.317500
     28 H2          2.7970    0.7470   -0.0180 ha        1 BXL      0.133000
     29 HN2         2.3030    7.0150    8.7570 hn        1 BXL      0.324500
     30 H3          3.8390    0.6160    2.2480 ha        1 BXL      0.132500
     31 HN3         3.8490    9.1910   11.1710 hn        1 BXL      0.376300
     32 HN3A        2.6800    8.0510   10.9670 hn        1 BXL      0.376300
     33 H4          2.4410    0.5190    4.2790 ha        1 BXL      0.149000
     34 H6         -1.1250    0.6860    1.7700 ha        1 BXL      0.149000
     35 H8         -1.5600   -0.4750    6.5700 hc        1 BXL      0.078700
     36 H8A        -0.6780    0.6820    7.6530 hc        1 BXL      0.078700
     37 H9         -3.0570    1.2250    5.8480 ha        1 BXL      0.123000
     38 H10        -2.8930    3.5600    6.5690 ha        1 BXL      0.131000
     39 H11        -0.9500    3.0930    8.5720 hc        1 BXL      0.060200
     40 H11A        0.0510    2.9980    7.0700 hc        1 BXL      0.060200
     41 H12        -1.7860    5.3620    7.9150 hc        1 BXL      0.061700
     42 H12A       -0.8890    5.2670    6.3550 hc        1 BXL      0.061700
     43 H13         1.2820    5.0970    7.5730 hc        1 BXL      0.066700
     44 H13A        0.4120    5.1130    9.1640 hc        1 BXL      0.066700
     45 H16         0.4550    9.4710    6.9240 ha        1 BXL      0.161000
     46 H17         0.9520   11.8940    6.9680 ha        1 BXL      0.135000
     47 H18         2.5400   12.8270    8.6570 ha        1 BXL      0.132000
     48 H19         3.5980   11.3400   10.3230 ha        1 BXL      0.129000
@<TRIPOS>BOND
     1    1    4 ar  
     2    1   11 ar  
     3    1   26 1   
     4    2   10 1   
     5    2   12 1   
     6    2   27 1   
     7    3   12 2   
     8    4    7 ar  
     9    4   28 1   
    10    5   19 1   
    11    5   20 1   
    12    5   29 1   
    13    6   19 2   
    14    7    9 ar  
    15    7   30 1   
    16    8   25 1   
    17    8   31 1   
    18    8   32 1   
    19    9   10 ar  
    20    9   33 1   
    21   10   11 ar  
    22   11   34 1   
    23   12   13 1   
    24   13   14 1   
    25   13   35 1   
    26   13   36 1   
    27   14   15 2   
    28   14   37 1   
    29   15   16 1   
    30   15   38 1   
    31   16   17 1   
    32   16   39 1   
    33   16   40 1   
    34   17   18 1   
    35   17   41 1   
    36   17   42 1   
    37   18   19 1   
    38   18   43 1   
    39   18   44 1   
    40   20   21 ar  
    41   20   25 ar  
    42   21   22 ar  
    43   21   45 1   
    44   22   23 ar  
    45   22   46 1   
    46   23   24 ar  
    47   23   47 1   
    48   24   25 ar  
    49   24   48 1   
@<TRIPOS>SUBSTRUCTURE
     1 BXL         1 TEMP              0 ****  ****    0 ROOT
