@<TRIPOS>MOLECULE
BXL
   48    43     1     0     0
SMALL
bcc


@<TRIPOS>ATOM
      1 C1         -5.3590    1.9810   -6.2920 c1        1 BXL     -0.139833
      2 N1         -3.1110    0.2700   -3.9080 n         1 BXL     -0.330000
      3 O1         -1.5080    1.7430   -4.5950 o         1 BXL     -0.344000
      4 C2         -5.6210    0.9590   -7.1900 c1        1 BXL     -0.139833
      5 N2          1.9160   -0.8250    4.3390 n         1 BXL     -0.336000
      6 O2          3.0980    0.3130    2.7520 o         1 BXL     -0.351000
      7 C3         -5.0330   -0.2830   -7.0170 c1        1 BXL     -0.139833
      8 N3          3.2190   -3.5210    3.9100 n3        1 BXL     -0.315000
      9 C4         -4.1810   -0.5030   -5.9460 c1        1 BXL     -0.139833
     10 C5         -3.9180    0.5190   -5.0480 c1        1 BXL      0.078000
     11 C6         -4.5070    1.7610   -5.2210 c1        1 BXL     -0.155000
     12 C7         -1.8750    0.9490   -3.7520 c2        1 BXL      0.313000
     13 C8         -1.0330    0.7150   -2.5160 c3        1 BXL     -0.154000
     14 C9         -0.4000    2.0190   -2.0830 c2        1 BXL     -0.167000
     15 C10         0.1110    2.1390   -0.8420 c1        1 BXL     -0.163000
     16 C11         0.0510    0.9720    0.1180 c2        1 BXL     -0.134000
     17 C12         1.1380    1.1200    1.1610 c3        1 BXL     -0.151000
     18 C13         0.7590    0.3340    2.3990 c3        1 BXL     -0.181000
     19 C14         2.0090   -0.0260    3.1690 c2        1 BXL      0.304000
     20 C15         3.0880   -1.2230    5.0160 c2        1 BXL      0.036000
     21 C16         3.6260   -0.4100    6.0020 c2        1 BXL     -0.115000
     22 C17         4.6990   -0.8560    6.7590 c1        1 BXL     -0.140000
     23 C18         5.2330   -2.1130    6.5300 c1        1 BXL     -0.139833
     24 C19         4.6960   -2.9260    5.5450 c1        1 BXL     -0.139833
     25 C20         3.6230   -2.4810    4.7870 c1        1 BXL     -0.005000
     26 H1         -5.7730    2.8560   -6.4140 ha        1 BXL      0.131333
     27 HN1        -3.3800   -0.3360   -3.2820 hn        1 BXL      0.226000
     28 H2         -6.2210    1.1140   -7.9440 ha        1 BXL      0.131333
     29 HN2         1.1190   -1.1210    4.6150 hn        1 BXL      0.236000
     30 H3         -5.2170   -1.0020   -7.6490 ha        1 BXL      0.131333
     31 HN3         3.6780   -4.3120    3.8960 hn        1 BXL      0.170500
     32 HN3A        2.5030   -3.3990    3.3550 hn        1 BXL      0.170500
     33 H4         -3.7670   -1.3780   -5.8240 ha        1 BXL      0.131333
     34 H6         -4.3230    2.4810   -4.5880 ha        1 BXL      0.173000
     35 H8         -1.6000    0.3720   -1.7960 hc        1 BXL      0.109000
     36 H8A        -0.3320    0.0630   -2.7180 hc        1 BXL      0.109000
     37 H9         -0.3620    2.7720   -2.7020 ha        1 BXL      0.160000
     38 H10         0.5190    2.9800   -0.5620 ha        1 BXL      0.135000
     39 H11        -0.8220    0.9550    0.5570 ha        1 BXL      0.082500
     40 H11A        0.1840    0.1380   -0.3760 ha        1 BXL      0.082500
     41 H12         1.2400    2.0650    1.3930 hc        1 BXL      0.104000
     42 H12A        1.9820    0.7780    0.8030 hc        1 BXL      0.104000
     43 H13         0.2920   -0.4840    2.1350 hc        1 BXL      0.101500
     44 H13A        0.1730    0.8760    2.9630 hc        1 BXL      0.101500
     45 H16         3.2490    0.4760    6.1630 ha        1 BXL      0.161000
     46 H17         5.0770   -0.2830    7.4530 ha        1 BXL      0.136000
     47 H18         5.9880   -2.4260    7.0630 ha        1 BXL      0.131333
     48 H19         5.0730   -3.8120    5.3840 ha        1 BXL      0.131333
@<TRIPOS>BOND
     1    1    4 1   
     2    1   26 1   
     3    2   10 1   
     4    2   12 1   
     5    2   27 1   
     6    3   12 1   
     7    4   28 1   
     8    5   19 1   
     9    5   20 1   
    10    5   29 1   
    11    6   19 1   
    12    7    9 1   
    13    7   30 1   
    14    8   25 1   
    15    8   31 1   
    16    8   32 1   
    17    9   33 1   
    18   10   11 1   
    19   11   34 1   
    20   12   13 1   
    21   13   14 1   
    22   13   35 1   
    23   13   36 1   
    24   14   15 1   
    25   14   37 1   
    26   15   38 1   
    27   16   17 1   
    28   16   39 1   
    29   16   40 1   
    30   17   18 1   
    31   17   41 1   
    32   17   42 1   
    33   18   19 1   
    34   18   43 1   
    35   18   44 1   
    36   20   21 1   
    37   20   25 1   
    38   21   22 1   
    39   21   45 1   
    40   22   46 1   
    41   23   24 1   
    42   23   47 1   
    43   24   48 1   
@<TRIPOS>SUBSTRUCTURE
     1 BXL         1 TEMP              0 ****  ****    0 ROOT
