@<TRIPOS>MOLECULE
BXL
   48    49     1     0     0
SMALL
bcc


@<TRIPOS>ATOM
      1 C1          0.8820    0.7140    0.7760 ca        1 BXL     -0.104500
      2 N1         -0.3060    0.5290    4.2760 ns        1 BXL     -0.465100
      3 O1          1.1530    0.8170    6.0570 o         1 BXL     -0.597100
      4 C2          2.2670    0.6800    0.9340 ca        1 BXL     -0.157000
      5 N2          1.5070    7.5900    8.5610 ns        1 BXL     -0.481100
      6 O2         -0.6430    7.6660    7.7240 o         1 BXL     -0.595100
      7 C3          2.8070    0.6020    2.2160 ca        1 BXL     -0.104500
      8 N3          3.2460    8.6500   10.5690 nv        1 BXL     -0.806200
      9 C4          1.9850    0.5570    3.3390 ca        1 BXL     -0.169500
     10 C5          0.5820    0.5930    3.1890 ca        1 BXL      0.067600
     11 C6          0.0420    0.6730    1.8820 ca        1 BXL     -0.169500
     12 C7         -0.0020    0.6610    5.6220 c         1 BXL      0.670100
     13 C8         -1.1840    0.5800    6.5830 c3        1 BXL     -0.123200
     14 C9         -2.2030    1.6190    6.3050 c2        1 BXL     -0.208200
     15 C10        -2.1050    2.8930    6.7010 c2        1 BXL     -0.127200
     16 C11        -0.9530    3.4410    7.4560 c3        1 BXL     -0.067200
     17 C12        -0.8990    4.9530    7.3810 c3        1 BXL     -0.070400
     18 C13         0.3290    5.4790    8.0920 c3        1 BXL     -0.153400
     19 C14         0.3410    7.0000    8.0940 c         1 BXL      0.661100
     20 C15         1.7620    8.9750    8.6140 ca        1 BXL      0.027600
     21 C16         1.2010    9.8590    7.6730 ca        1 BXL     -0.114000
     22 C17         1.4920   11.2180    7.7040 ca        1 BXL     -0.141000
     23 C18         2.3540   11.7280    8.6710 ca        1 BXL     -0.118000
     24 C19         2.9080   10.8830    9.6240 ca        1 BXL     -0.170000
     25 C20         2.6240    9.5020    9.6320 ca        1 BXL      0.079600
     26 H1          0.4460    0.7760   -0.2330 ha        1 BXL      0.132500
     27 HN1        -1.2740    0.5060    4.0380 hn        1 BXL      0.317500
     28 H2          2.9250    0.7150    0.0550 ha        1 BXL      0.133000
     29 HN2         2.2680    6.9940    8.7970 hn        1 BXL      0.324500
     30 H3          3.8990    0.5750    2.3510 ha        1 BXL      0.132500
     31 HN3         3.7780    9.1550   11.2470 hn        1 BXL      0.376300
     32 HN3A        2.5990    8.0310   11.0130 hn        1 BXL      0.376300
     33 H4          2.4410    0.4970    4.3400 ha        1 BXL      0.148500
     34 H6         -1.0480    0.7030    1.7280 ha        1 BXL      0.148500
     35 H8         -0.7710    0.7010    7.6230 hc        1 BXL      0.078700
     36 H8A        -1.6370   -0.4450    6.5140 hc        1 BXL      0.078700
     37 H9         -3.0900    1.2750    5.7500 ha        1 BXL      0.123000
     38 H10        -2.9140    3.6080    6.4730 ha        1 BXL      0.131000
     39 H11         0.0060    3.0050    7.0590 hc        1 BXL      0.060200
     40 H11A       -1.0360    3.1190    8.5310 hc        1 BXL      0.060200
     41 H12        -0.8810    5.2860    6.3100 hc        1 BXL      0.061700
     42 H12A       -1.8200    5.3980    7.8440 hc        1 BXL      0.061700
     43 H13         1.2530    5.0880    7.5900 hc        1 BXL      0.066700
     44 H13A        0.3380    5.1210    9.1560 hc        1 BXL      0.066700
     45 H16         0.5090    9.4710    6.9060 ha        1 BXL      0.161000
     46 H17         1.0390   11.8870    6.9570 ha        1 BXL      0.135000
     47 H18         2.5930   12.8010    8.6880 ha        1 BXL      0.132000
     48 H19         3.5820   11.3050   10.3870 ha        1 BXL      0.129000
@<TRIPOS>BOND
     1    1    4 ar  
     2    1   11 ar  
     3    1   26 1   
     4    2   10 1   
     5    2   12 1   
     6    2   27 1   
     7    3   12 2   
     8    4    7 ar  
     9    4   28 1   
    10    5   19 1   
    11    5   20 1   
    12    5   29 1   
    13    6   19 2   
    14    7    9 ar  
    15    7   30 1   
    16    8   25 1   
    17    8   31 1   
    18    8   32 1   
    19    9   10 ar  
    20    9   33 1   
    21   10   11 ar  
    22   11   34 1   
    23   12   13 1   
    24   13   14 1   
    25   13   35 1   
    26   13   36 1   
    27   14   15 2   
    28   14   37 1   
    29   15   16 1   
    30   15   38 1   
    31   16   17 1   
    32   16   39 1   
    33   16   40 1   
    34   17   18 1   
    35   17   41 1   
    36   17   42 1   
    37   18   19 1   
    38   18   43 1   
    39   18   44 1   
    40   20   21 ar  
    41   20   25 ar  
    42   21   22 ar  
    43   21   45 1   
    44   22   23 ar  
    45   22   46 1   
    46   23   24 ar  
    47   23   47 1   
    48   24   25 ar  
    49   24   48 1   
@<TRIPOS>SUBSTRUCTURE
     1 BXL         1 TEMP              0 ****  ****    0 ROOT
