@<TRIPOS>MOLECULE
BXL
   51    52     1     0     0
SMALL
bcc


@<TRIPOS>ATOM
      1 C1         -1.8340   -1.3810    2.2770 ca        1 BXL     -0.098500
      2 N1          1.4010   -0.5410    3.9900 n4        1 BXL     -0.540200
      3 O1          2.5630    1.4550    4.1510 o         1 BXL     -0.405100
      4 C2         -1.5360   -1.0340    0.9570 ca        1 BXL     -0.058000
      5 N2          0.7260    8.0110   10.0980 n4        1 BXL     -0.578200
      6 O2         -0.3020    8.3330    8.0420 o         1 BXL     -0.446100
      7 C3         -0.2840   -0.5050    0.6370 ca        1 BXL     -0.098500
      8 N3         -0.1350   10.8470    9.4530 n4        1 BXL     -0.722000
      9 C4          0.6800   -0.3220    1.6260 ca        1 BXL     -0.104000
     10 C5          0.3730   -0.6760    2.9530 ca        1 BXL     -0.077400
     11 C6         -0.8870   -1.2070    3.2840 ca        1 BXL     -0.104000
     12 C7          1.5380    0.8840    4.4900 c         1 BXL      0.550100
     13 C8          0.4400    1.4240    5.3680 c3        1 BXL     -0.104200
     14 C9         -0.1140    2.6750    4.7930 c2        1 BXL     -0.177200
     15 C10        -0.1350    3.8810    5.3680 c2        1 BXL     -0.124200
     16 C11         0.4300    4.2500    6.6910 c3        1 BXL     -0.055200
     17 C12         0.1030    5.6980    7.0230 c3        1 BXL     -0.084400
     18 C13         0.7020    6.1010    8.3630 c3        1 BXL     -0.148400
     19 C14         0.3160    7.5110    8.6970 c         1 BXL      0.591100
     20 C15         1.6480    9.1520   10.0840 ca        1 BXL     -0.035400
     21 C16         2.9940    8.9060   10.4030 ca        1 BXL     -0.076000
     22 C17         3.9250    9.9490   10.4420 ca        1 BXL     -0.045000
     23 C18         3.5260   11.2530   10.1660 ca        1 BXL     -0.037000
     24 C19         2.1910   11.5230    9.8450 ca        1 BXL     -0.066000
     25 C20         1.2420   10.4900    9.7990 ca        1 BXL     -0.027400
     26 H1         -2.8200   -1.8090    2.5270 ha        1 BXL      0.181500
     27 HN1         2.3050   -0.8440    3.5920 hn        1 BXL      0.469800
     28 H2         -2.2900   -1.1870    0.1640 ha        1 BXL      0.183000
     29 HN2         1.1850    7.2340   10.6000 hn        1 BXL      0.471800
     30 H3         -0.0460   -0.2390   -0.4080 ha        1 BXL      0.181500
     31 HN3        -0.4330   10.3630    8.5910 hn        1 BXL      0.484133
     32 HN3A       -0.7770   10.6190   10.2220 hn        1 BXL      0.484133
     33 H4          1.6690    0.0830    1.3520 ha        1 BXL      0.157500
     34 H6         -1.1350   -1.5050    4.3160 ha        1 BXL      0.157500
     35 H8         -0.3980    0.6800    5.4890 hc        1 BXL      0.102200
     36 H8A         0.8980    1.6010    6.3830 hc        1 BXL      0.102200
     37 H9         -0.5770    2.5490    3.7950 ha        1 BXL      0.161000
     38 H10        -0.6200    4.7090    4.8160 ha        1 BXL      0.153000
     39 H11         1.5460    4.1070    6.6760 hc        1 BXL      0.066200
     40 H11A        0.0140    3.5760    7.4890 hc        1 BXL      0.066200
     41 H12         0.5040    6.3700    6.2170 hc        1 BXL      0.083700
     42 H12A       -1.0110    5.8330    7.0510 hc        1 BXL      0.083700
     43 H13         0.3350    5.4060    9.1710 hc        1 BXL      0.119200
     44 H13A        1.8260    6.0300    8.3200 hc        1 BXL      0.119200
     45 H16         3.3480    7.8850   10.6430 ha        1 BXL      0.184000
     46 H17         4.9810    9.7290   10.7010 ha        1 BXL      0.216000
     47 H18         4.2590   12.0860   10.2000 ha        1 BXL      0.220000
     48 H19         1.9080   12.5740    9.6320 ha        1 BXL      0.199000
     49 H121        1.1640   -1.1570    4.7780 hn        1 BXL      0.469800
     50 H22        -0.1190    8.2580   10.6290 hn        1 BXL      0.471800
     51 H33        -0.1940   11.8660    9.2830 hn        1 BXL      0.484133
@<TRIPOS>BOND
     1    1    4 ar  
     2    1   11 ar  
     3    1   26 1   
     4    2   10 1   
     5    2   12 1   
     6    2   27 1   
     7    2   49 1   
     8    3   12 2   
     9    4    7 ar  
    10    4   28 1   
    11    5   19 1   
    12    5   20 1   
    13    5   29 1   
    14    5   50 1   
    15    6   19 2   
    16    7    9 ar  
    17    7   30 1   
    18    8   25 1   
    19    8   31 1   
    20    8   32 1   
    21    8   51 1   
    22    9   10 ar  
    23    9   33 1   
    24   10   11 ar  
    25   11   34 1   
    26   12   13 1   
    27   13   14 1   
    28   13   35 1   
    29   13   36 1   
    30   14   15 2   
    31   14   37 1   
    32   15   16 1   
    33   15   38 1   
    34   16   17 1   
    35   16   39 1   
    36   16   40 1   
    37   17   18 1   
    38   17   41 1   
    39   17   42 1   
    40   18   19 1   
    41   18   43 1   
    42   18   44 1   
    43   20   21 ar  
    44   20   25 ar  
    45   21   22 ar  
    46   21   45 1   
    47   22   23 ar  
    48   22   46 1   
    49   23   24 ar  
    50   23   47 1   
    51   24   25 ar  
    52   24   48 1   
@<TRIPOS>SUBSTRUCTURE
     1 BXL         1 TEMP              0 ****  ****    0 ROOT
