@<TRIPOS>MOLECULE
BXL
   48    49     1     0     0
SMALL
bcc


@<TRIPOS>ATOM
      1 C1         -5.5190    2.8460   -0.0200 ca        1 BXL     -0.104500
      2 N1         -4.5400   -0.7200    0.0830 n         1 BXL     -0.468100
      3 O1         -6.0700   -2.4230   -0.2940 o         1 BXL     -0.591100
      4 C2         -6.8910    2.7680   -0.2550 ca        1 BXL     -0.159000
      5 N2          4.2590   -0.1080   -0.3730 n         1 BXL     -0.480100
      6 O2          2.6390    0.1390    1.2550 o         1 BXL     -0.593100
      7 C3         -7.4930    1.5190   -0.3820 ca        1 BXL     -0.104500
      8 N3          7.0360   -0.6280   -0.8090 nh        1 BXL     -0.806200
      9 C4         -6.7460    0.3480   -0.2770 ca        1 BXL     -0.171000
     10 C5         -5.3570    0.4160   -0.0400 ca        1 BXL      0.069600
     11 C6         -4.7520    1.6920    0.0870 ca        1 BXL     -0.171000
     12 C7         -4.9080   -2.0490   -0.0500 c         1 BXL      0.668100
     13 C8         -3.8010   -3.0760    0.1550 c3        1 BXL     -0.126200
     14 C9         -2.5470   -2.7310   -0.5520 c2        1 BXL     -0.191200
     15 C10        -1.3440   -2.7550    0.0290 c2        1 BXL     -0.152200
     16 C11        -0.0820   -2.4700   -0.6940 c3        1 BXL     -0.054200
     17 C12         0.8200   -1.5560    0.1120 c3        1 BXL     -0.071400
     18 C13         2.1140   -1.2920   -0.6260 c3        1 BXL     -0.153400
     19 C14         3.0090   -0.3580    0.1750 c         1 BXL      0.660100
     20 C15         5.2310    0.7610    0.1600 ca        1 BXL      0.027600
     21 C16         4.8650    1.9110    0.8860 ca        1 BXL     -0.115000
     22 C17         5.8280    2.7900    1.3690 ca        1 BXL     -0.140000
     23 C18         7.1780    2.5470    1.1350 ca        1 BXL     -0.117000
     24 C19         7.5710    1.4100    0.4400 ca        1 BXL     -0.169000
     25 C20         6.6230    0.4890   -0.0510 ca        1 BXL      0.078600
     26 H1         -5.0330    3.8290    0.0820 ha        1 BXL      0.132500
     27 HN1        -3.5740   -0.5380    0.2500 hn        1 BXL      0.320500
     28 H2         -7.4910    3.6850   -0.3390 ha        1 BXL      0.132000
     29 HN2         4.4700   -0.5150   -1.2560 hn        1 BXL      0.323500
     30 H3         -8.5760    1.4480   -0.5670 ha        1 BXL      0.132500
     31 HN3         6.6180   -1.4790   -0.4920 hn        1 BXL      0.375800
     32 HN3A        8.0310   -0.7140   -0.8460 hn        1 BXL      0.375800
     33 H4         -7.2520   -0.6250   -0.3820 ha        1 BXL      0.150500
     34 H6         -3.6710    1.7820    0.2740 ha        1 BXL      0.150500
     35 H8         -3.6360   -3.1890    1.2600 hc        1 BXL      0.083700
     36 H8A        -4.1880   -4.0590   -0.2330 hc        1 BXL      0.083700
     37 H9         -2.6650   -2.4750   -1.6190 ha        1 BXL      0.133000
     38 H10        -1.2270   -3.0090    1.0960 ha        1 BXL      0.127000
     39 H11         0.4470   -3.4430   -0.8870 hc        1 BXL      0.049700
     40 H11A       -0.2920   -2.0050   -1.6950 hc        1 BXL      0.049700
     41 H12         0.3010   -0.5820    0.3150 hc        1 BXL      0.062700
     42 H12A        1.0460   -2.0160    1.1100 hc        1 BXL      0.062700
     43 H13         2.6510   -2.2600   -0.8110 hc        1 BXL      0.064200
     44 H13A        1.8980   -0.8220   -1.6220 hc        1 BXL      0.064200
     45 H16         3.7990    2.1120    1.0870 ha        1 BXL      0.161000
     46 H17         5.5150    3.6800    1.9330 ha        1 BXL      0.136000
     47 H18         7.9390    3.2480    1.5070 ha        1 BXL      0.133000
     48 H19         8.6440    1.2290    0.2720 ha        1 BXL      0.130000
@<TRIPOS>BOND
     1    1    4 ar  
     2    1   11 ar  
     3    1   26 1   
     4    2   10 1   
     5    2   12 1   
     6    2   27 1   
     7    3   12 2   
     8    4    7 ar  
     9    4   28 1   
    10    5   19 1   
    11    5   20 1   
    12    5   29 1   
    13    6   19 2   
    14    7    9 ar  
    15    7   30 1   
    16    8   25 1   
    17    8   31 1   
    18    8   32 1   
    19    9   10 ar  
    20    9   33 1   
    21   10   11 ar  
    22   11   34 1   
    23   12   13 1   
    24   13   14 1   
    25   13   35 1   
    26   13   36 1   
    27   14   15 2   
    28   14   37 1   
    29   15   16 1   
    30   15   38 1   
    31   16   17 1   
    32   16   39 1   
    33   16   40 1   
    34   17   18 1   
    35   17   41 1   
    36   17   42 1   
    37   18   19 1   
    38   18   43 1   
    39   18   44 1   
    40   20   21 ar  
    41   20   25 ar  
    42   21   22 ar  
    43   21   45 1   
    44   22   23 ar  
    45   22   46 1   
    46   23   24 ar  
    47   23   47 1   
    48   24   25 ar  
    49   24   48 1   
@<TRIPOS>SUBSTRUCTURE
     1 BXL         1 TEMP              0 ****  ****    0 ROOT
