@<TRIPOS>MOLECULE
BXO
   15    14     1     0     0
SMALL
bcc


@<TRIPOS>ATOM
      1 C4          2.8910    0.4300   -0.1070 c3        1 BXO     -0.093100
      2 C3          1.7120   -0.3890    0.3490 c3        1 BXO     -0.077400
      3 C2          0.4210    0.1220   -0.2570 c3        1 BXO     -0.150700
      4 C1         -0.7520   -0.6830    0.1890 c2        1 BXO      0.361200
      5 N1         -2.0170   -0.3990    0.1200 n2        1 BXO     -0.454200
      6 O1         -2.3490    0.7620   -0.4030 oh        1 BXO     -0.362500
      7 H4          3.8330    0.0390    0.3480 hc        1 BXO      0.035367
      8 H4A         2.9930    0.3910   -1.2180 hc        1 BXO      0.035367
      9 H4B         2.7700    1.4980    0.1960 hc        1 BXO      0.035367
     10 H3          1.8640   -1.4630    0.0590 hc        1 BXO      0.041200
     11 H3A         1.6390   -0.3560    1.4680 hc        1 BXO      0.041200
     12 H2          0.2710    1.2010    0.0200 hc        1 BXO      0.064200
     13 H2A         0.4840    0.0780   -1.3780 hc        1 BXO      0.064200
     14 H1         -0.5360   -1.6730    0.6390 h4        1 BXO      0.025800
     15 HO1        -3.3250    0.7860   -0.3500 ho        1 BXO      0.435000
@<TRIPOS>BOND
     1    1    2 1   
     2    1    7 1   
     3    1    8 1   
     4    1    9 1   
     5    2    3 1   
     6    2   10 1   
     7    2   11 1   
     8    3    4 1   
     9    3   12 1   
    10    3   13 1   
    11    4    5 2   
    12    4   14 1   
    13    5    6 1   
    14    6   15 1   
@<TRIPOS>SUBSTRUCTURE
     1 BXO         1 TEMP              0 ****  ****    0 ROOT
