@<TRIPOS>MOLECULE
BXO
   15    14     1     0     0
SMALL
bcc


@<TRIPOS>ATOM
      1 C4         -0.0360   -0.2070   -0.0200 c3        1 BXO     -0.093100
      2 C3          1.4690   -0.1280   -0.0210 c3        1 BXO     -0.077400
      3 C2          1.9960    0.3080    1.3300 c3        1 BXO     -0.150700
      4 C1          3.4850    0.3890    1.3390 c2        1 BXO      0.361200
      5 N1          4.2700    0.9840    2.1840 n2        1 BXO     -0.454200
      6 O1          3.7080    1.6270    3.1840 oh        1 BXO     -0.362500
      7 H4         -0.4830    0.7890    0.2170 hc        1 BXO      0.035367
      8 H4A        -0.4070   -0.5300   -1.0230 hc        1 BXO      0.035367
      9 H4B        -0.3930   -0.9410    0.7420 hc        1 BXO      0.035367
     10 H3          1.8080    0.5970   -0.8070 hc        1 BXO      0.041200
     11 H3A         1.8980   -1.1300   -0.2870 hc        1 BXO      0.041200
     12 H2          1.5580    1.3050    1.6070 hc        1 BXO      0.064200
     13 H2A         1.6700   -0.4220    2.1200 hc        1 BXO      0.064200
     14 H1          4.0170   -0.1340    0.5200 h4        1 BXO      0.025800
     15 HO1         4.4570    2.0090    3.6840 ho        1 BXO      0.435000
@<TRIPOS>BOND
     1    1    2 1   
     2    1    7 1   
     3    1    8 1   
     4    1    9 1   
     5    2    3 1   
     6    2   10 1   
     7    2   11 1   
     8    3    4 1   
     9    3   12 1   
    10    3   13 1   
    11    4    5 2   
    12    4   14 1   
    13    5    6 1   
    14    6   15 1   
@<TRIPOS>SUBSTRUCTURE
     1 BXO         1 TEMP              0 ****  ****    0 ROOT
