@<TRIPOS>MOLECULE
BXO
   15    13     1     0     0
SMALL
bcc


@<TRIPOS>ATOM
      1 C4         -1.9280   -0.0000   -1.1340 c3        1 BXO     -0.211000
      2 C3         -0.4150   -0.0000   -1.1340 c3        1 BXO     -0.157000
      3 C2          0.0890   -0.0000    0.2930 c3        1 BXO     -0.154000
      4 C1          1.6020   -0.0000    0.2930 c2        1 BXO     -0.131000
      5 N1          2.2550    0.0000    1.4240 n1        1 BXO     -0.069000
      6 O1          1.5710    0.0010    2.6090 o         1 BXO     -0.260000
      7 H4         -2.2540   -0.7970   -0.6740 hc        1 BXO      0.074333
      8 H4A        -2.2530    0.0000   -2.0540 hc        1 BXO      0.074333
      9 H4B        -2.2540    0.7970   -0.6730 hc        1 BXO      0.074333
     10 H3         -0.0900    0.7970   -1.5940 hc        1 BXO      0.081000
     11 H3A        -0.0900   -0.7970   -1.5940 hc        1 BXO      0.081000
     12 H2         -0.2360    0.7970    0.7530 hc        1 BXO      0.103000
     13 H2A        -0.2360   -0.7970    0.7530 hc        1 BXO      0.103000
     14 H1          2.0900   -0.0010   -0.5530 h4        1 BXO      0.156000
     15 HO1         2.1480    0.0010    3.2840 ho        1 BXO      0.234000
@<TRIPOS>BOND
     1    1    2 1   
     2    1    7 1   
     3    1    8 1   
     4    1    9 1   
     5    2    3 1   
     6    2   10 1   
     7    2   11 1   
     8    3    4 1   
     9    3   12 1   
    10    3   13 1   
    11    4    5 1   
    12    4   14 1   
    13    6   15 1   
@<TRIPOS>SUBSTRUCTURE
     1 BXO         1 TEMP              0 ****  ****    0 ROOT
