@<TRIPOS>MOLECULE
BXO
   15    14     1     0     0
SMALL
bcc


@<TRIPOS>ATOM
      1 C4         -0.0410   -0.1680   -0.0300 c3        1 BXO     -0.093100
      2 C3          1.4650   -0.1080   -0.0280 c3        1 BXO     -0.077400
      3 C2          1.9960    0.3060    1.3280 c3        1 BXO     -0.150700
      4 C1          3.4850    0.3680    1.3400 c2        1 BXO      0.361200
      5 N1          4.2770    0.9370    2.1970 n2        1 BXO     -0.454200
      6 O1          3.7210    1.5670    3.2100 oh        1 BXO     -0.362500
      7 H4         -0.4760    0.8300    0.2180 hc        1 BXO      0.035367
      8 H4A        -0.4150   -0.4760   -1.0360 hc        1 BXO      0.035367
      9 H4B        -0.4080   -0.9070    0.7240 hc        1 BXO      0.035367
     10 H3          1.8140    0.6210   -0.8050 hc        1 BXO      0.041200
     11 H3A         1.8820   -1.1130   -0.3050 hc        1 BXO      0.041200
     12 H2          1.5700    1.3050    1.6160 hc        1 BXO      0.064200
     13 H2A         1.6590   -0.4290    2.1100 hc        1 BXO      0.064200
     14 H1          4.0120   -0.1460    0.5110 h4        1 BXO      0.025800
     15 HO1         4.4740    1.9290    3.7180 ho        1 BXO      0.435000
@<TRIPOS>BOND
     1    1    2 1   
     2    1    7 1   
     3    1    8 1   
     4    1    9 1   
     5    2    3 1   
     6    2   10 1   
     7    2   11 1   
     8    3    4 1   
     9    3   12 1   
    10    3   13 1   
    11    4    5 2   
    12    4   14 1   
    13    5    6 1   
    14    6   15 1   
@<TRIPOS>SUBSTRUCTURE
     1 BXO         1 TEMP              0 ****  ****    0 ROOT
