@<TRIPOS>MOLECULE
BXO
   15    14     1     0     0
SMALL
bcc


@<TRIPOS>ATOM
      1 C4         -0.0360   -0.1910   -0.0270 c3        1 BXO     -0.093100
      2 C3          1.4690   -0.1250   -0.0220 c3        1 BXO     -0.077400
      3 C2          1.9950    0.3050    1.3320 c3        1 BXO     -0.151700
      4 C1          3.4840    0.3720    1.3470 c2        1 BXO      0.362200
      5 N1          4.2710    0.9670    2.1910 n2        1 BXO     -0.454200
      6 O1          3.7100    1.6230    3.1840 oh        1 BXO     -0.362500
      7 H4         -0.4020   -0.9230    0.7320 hc        1 BXO      0.035367
      8 H4A        -0.4060   -0.5100   -1.0320 hc        1 BXO      0.035367
      9 H4B        -0.4760    0.8080    0.2090 hc        1 BXO      0.035367
     10 H3          1.8180    0.5980   -0.8050 hc        1 BXO      0.041200
     11 H3A         1.8910   -1.1310   -0.2870 hc        1 BXO      0.041200
     12 H2          1.6590   -0.4240    2.1200 hc        1 BXO      0.064200
     13 H2A         1.5630    1.3050    1.6080 hc        1 BXO      0.064200
     14 H1          4.0150   -0.1620    0.5350 h4        1 BXO      0.025800
     15 HO1         4.4600    2.0020    3.6840 ho        1 BXO      0.435000
@<TRIPOS>BOND
     1    1    2 1   
     2    1    7 1   
     3    1    8 1   
     4    1    9 1   
     5    2    3 1   
     6    2   10 1   
     7    2   11 1   
     8    3    4 1   
     9    3   12 1   
    10    3   13 1   
    11    4    5 2   
    12    4   14 1   
    13    5    6 1   
    14    6   15 1   
@<TRIPOS>SUBSTRUCTURE
     1 BXO         1 TEMP              0 ****  ****    0 ROOT
