@<TRIPOS>MOLECULE
BXP
   37    38     1     0     0
SMALL
bcc


@<TRIPOS>ATOM
      1 O4B        -3.8390    2.6830   -0.5470 oh        1 BXP     -0.593800
      2 C4B        -2.3110    3.0240   -0.5470 c3        1 BXP      0.075100
      3 C3B        -1.8110    2.7690    0.7220 c3        1 BXP      0.084100
      4 O3B        -0.3970    3.3150    0.8040 oh        1 BXP     -0.582800
      5 C2B        -1.7760    1.3140    1.0690 c3        1 BXP      0.124100
      6 O2B        -3.0940    0.8470    1.1640 oh        1 BXP     -0.581800
      7 C5B        -1.6820    2.2700   -1.5970 c3        1 BXP      0.098400
      8 O5B        -1.6400    0.8110   -1.3410 os        1 BXP     -0.447600
      9 C1B        -0.9860    0.4030    0.0090 c3        1 BXP      0.295900
     10 O4A         0.2340    0.6710    0.0150 os        1 BXP     -0.435600
     11 C4A         1.2290   -0.8910   -0.3220 c3        1 BXP      0.078100
     12 C3A         1.6590   -0.7770   -0.3990 c3        1 BXP      0.113100
     13 O3A         1.7500    0.1670   -1.9660 oh        1 BXP     -0.608800
     14 C5A         1.1260   -2.0410    1.2140 c3        1 BXP      0.107400
     15 O5A         2.3630   -3.4110    1.1700 os        1 BXP     -0.440600
     16 C1A         2.3650   -3.5840    0.8270 c3        1 BXP      0.328900
     17 C2A         2.7060   -2.3220   -0.5580 c3        1 BXP      0.132100
     18 O2A         3.7140   -2.0580   -0.5370 oh        1 BXP     -0.594800
     19 HO4B       -4.3040    3.3700   -0.9200 ho        1 BXP      0.411000
     20 H4B        -2.2050    3.9570   -0.7360 h1        1 BXP      0.081700
     21 H3B        -2.3760    3.2440    1.3880 h1        1 BXP      0.068700
     22 HO3B       -0.3880    4.0370    1.3130 ho        1 BXP      0.407000
     23 H2B        -1.3450    1.2140    1.9470 h1        1 BXP      0.122700
     24 HO2B       -3.3080    0.7390    2.0150 ho        1 BXP      0.407000
     25 H5B1       -2.1720    2.4270   -2.4280 h1        1 BXP      0.075700
     26 H5B2       -0.7460    2.6010   -1.7110 h1        1 BXP      0.075700
     27 H1B        -1.1380   -0.5760    0.1980 h2        1 BXP      0.090700
     28 H4A         0.8650   -1.3510   -1.1040 h1        1 BXP      0.078700
     29 H3A         1.9930   -0.2210    0.3440 h1        1 BXP      0.077700
     30 HO3A        2.6150    0.4090   -2.1260 ho        1 BXP      0.423000
     31 H5A1        1.2850   -1.4820    2.0570 h1        1 BXP      0.064700
     32 H5A2        0.2340   -2.4260    1.2570 h1        1 BXP      0.064700
     33 H1A1        3.0880   -4.3130    0.8160 h2        1 BXP      0.099700
     34 O1A         0.7770   -4.3200    0.5510 oh        1 BXP     -0.621800
     35 H2A         2.5010   -2.7720   -1.4760 h1        1 BXP      0.077700
     36 HO2A        4.1700   -2.5210   -1.2040 ho        1 BXP      0.425000
     37 HO1A        0.8410   -5.2060    0.6380 ho        1 BXP      0.420000
@<TRIPOS>BOND
     1    1    2 1   
     2    1   19 1   
     3    2    3 1   
     4    2    7 1   
     5    2   20 1   
     6    3    4 1   
     7    3    5 1   
     8    3   21 1   
     9    4   22 1   
    10    5    6 1   
    11    5    9 1   
    12    5   23 1   
    13    6   24 1   
    14    7    8 1   
    15    7   25 1   
    16    7   26 1   
    17    8    9 1   
    18    9   10 1   
    19    9   27 1   
    20   10   11 1   
    21   11   12 1   
    22   11   14 1   
    23   11   28 1   
    24   12   13 1   
    25   12   17 1   
    26   12   29 1   
    27   13   30 1   
    28   14   15 1   
    29   14   31 1   
    30   14   32 1   
    31   15   16 1   
    32   16   17 1   
    33   16   33 1   
    34   16   34 1   
    35   17   18 1   
    36   17   35 1   
    37   18   36 1   
    38   34   37 1   
@<TRIPOS>SUBSTRUCTURE
     1 BXP         1 TEMP              0 ****  ****    0 ROOT
