@<TRIPOS>MOLECULE
BXP
   37    38     1     0     0
SMALL
bcc


@<TRIPOS>ATOM
      1 O4B         4.9680    1.0950    1.0950 oh        1 BXP     -0.599800
      2 C4B         3.7440    0.9570    0.3890 c3        1 BXP      0.065100
      3 C3B         3.7000   -0.5080   -0.0840 c3        1 BXP      0.153100
      4 O3B         4.6650   -0.7080   -1.1010 oh        1 BXP     -0.585800
      5 C2B         2.3300   -0.8140   -0.7080 c3        1 BXP      0.129100
      6 O2B         2.2370   -2.2210   -0.8340 oh        1 BXP     -0.583800
      7 C5B         2.5570    1.2710    1.2990 c3        1 BXP      0.106400
      8 O5B         1.3300    1.0180    0.6330 os        1 BXP     -0.424600
      9 C1B         1.1930   -0.3370    0.2260 c3        1 BXP      0.298900
     10 O4A         0.0230   -0.3200   -0.5680 os        1 BXP     -0.406600
     11 C4A        -1.1770    0.0090    0.1400 c3        1 BXP      0.116100
     12 C3A        -2.1660    0.5040   -0.9290 c3        1 BXP      0.154100
     13 O3A        -1.7420    1.7940   -1.3270 oh        1 BXP     -0.580800
     14 C5A        -1.7020   -1.2610    0.8230 c3        1 BXP      0.107400
     15 O5A        -3.0070   -1.0790    1.3510 os        1 BXP     -0.441600
     16 C1A        -3.9660   -0.7320    0.3620 c3        1 BXP      0.306900
     17 C2A        -3.5810    0.5890   -0.3300 c3        1 BXP      0.048100
     18 O2A        -4.4550    0.8520   -1.4140 oh        1 BXP     -0.599800
     19 HO4B        5.0640    2.0300    1.3080 ho        1 BXP      0.410000
     20 H4B         3.7350    1.6370   -0.5080 h1        1 BXP      0.067700
     21 H3B         3.8980   -1.2000    0.7800 h1        1 BXP      0.067700
     22 HO3B        5.5250   -0.5530   -0.6900 ho        1 BXP      0.418000
     23 H2B         2.2420   -0.3090   -1.7080 h1        1 BXP      0.084700
     24 HO2B        1.5180   -2.3910   -1.4560 ho        1 BXP      0.415000
     25 H5B1        2.6210    0.6690    2.2440 h1        1 BXP      0.059200
     26 H5B2        2.5150    2.3650    1.5460 h1        1 BXP      0.059200
     27 H1B         1.0850   -1.0080    1.1220 h2        1 BXP      0.050700
     28 H4A        -0.9860    0.8250    0.8870 h1        1 BXP      0.092700
     29 H3A        -2.1640   -0.1940   -1.8120 h1        1 BXP      0.063700
     30 HO3A       -2.3600    2.0810   -2.0130 ho        1 BXP      0.417000
     31 H5A1       -1.6960   -2.1190    0.1000 h1        1 BXP      0.063200
     32 H5A2       -1.0770   -1.5150    1.7210 h1        1 BXP      0.063200
     33 H1A1       -4.1300   -1.5610   -0.3800 h2        1 BXP      0.087700
     34 O1A        -5.1500   -0.5990    1.1000 oh        1 BXP     -0.595800
     35 H2A        -3.6290    1.4360    0.4100 h1        1 BXP      0.062700
     36 HO2A       -5.3540    0.8070   -1.0600 ho        1 BXP      0.422000
     37 HO1A       -4.9330   -0.1980    1.9530 ho        1 BXP      0.428000
@<TRIPOS>BOND
     1    1    2 1   
     2    1   19 1   
     3    2    3 1   
     4    2    7 1   
     5    2   20 1   
     6    3    4 1   
     7    3    5 1   
     8    3   21 1   
     9    4   22 1   
    10    5    6 1   
    11    5    9 1   
    12    5   23 1   
    13    6   24 1   
    14    7    8 1   
    15    7   25 1   
    16    7   26 1   
    17    8    9 1   
    18    9   10 1   
    19    9   27 1   
    20   10   11 1   
    21   11   12 1   
    22   11   14 1   
    23   11   28 1   
    24   12   13 1   
    25   12   17 1   
    26   12   29 1   
    27   13   30 1   
    28   14   15 1   
    29   14   31 1   
    30   14   32 1   
    31   15   16 1   
    32   16   17 1   
    33   16   33 1   
    34   16   34 1   
    35   17   18 1   
    36   17   35 1   
    37   18   36 1   
    38   34   37 1   
@<TRIPOS>SUBSTRUCTURE
     1 BXP         1 TEMP              0 ****  ****    0 ROOT
