@<TRIPOS>MOLECULE
BXQ
   72    74     1     0     0
SMALL
bcc


@<TRIPOS>ATOM
      1 F1          0.7110   -0.7970   -0.6800 f         1 BXQ     -0.232967
      2 C2          1.8780   -0.3090   -0.1610 c3        1 BXQ      0.580900
      3 F3          2.8150   -1.2780   -0.4160 f         1 BXQ     -0.232967
      4 F4          2.2180    0.7470   -0.9660 f         1 BXQ     -0.232967
      5 C5          1.8140    0.0970    1.3630 c3        1 BXQ      0.120100
      6 O7          0.9450    1.1960    1.5110 oh        1 BXQ     -0.577800
      7 C9          1.2520   -1.0530    2.1970 c3        1 BXQ     -0.033100
      8 C12         1.9700   -1.2150    3.4900 ca        1 BXQ     -0.140300
      9 C13         3.2800   -1.7630    3.5380 ca        1 BXQ      0.168600
     10 C14         3.8750   -1.9370    4.8330 ca        1 BXQ      0.052900
     11 C15         3.2030   -1.5500    5.9960 ca        1 BXQ     -0.114000
     12 C17         1.9270   -0.9900    5.9170 ca        1 BXQ     -0.150300
     13 C18         1.3240   -0.8380    4.6670 ca        1 BXQ     -0.075000
     14 C20         1.2070   -0.5810    7.1520 c3        1 BXQ     -0.018100
     15 C23         1.2950    0.9300    7.3750 c3        1 BXQ     -0.053700
     16 C25         0.2500    1.3640    8.4110 c3        1 BXQ      0.119100
     17 C27         0.3200    2.9110    8.6150 c3        1 BXQ      0.122500
     18 C29         1.6820    3.2970    9.1450 c3        1 BXQ     -0.324600
     19 S32         2.9470    2.9870    7.9730 s6        1 BXQ      1.344000
     20 C33         2.6890    1.3220    7.8210 c3        1 BXQ     -0.350600
     21 O36         2.5820    3.6630    6.8110 o         1 BXQ     -0.616800
     22 O37         4.1600    3.2480    8.5900 o         1 BXQ     -0.616800
     23 N38        -0.7980    3.3670    9.5100 ny        1 BXQ     -0.761000
     24 C40        -1.1670    4.8080    9.3030 c3        1 BXQ      0.178100
     25 C43        -2.2470    5.2100   10.2460 ca        1 BXQ     -0.191300
     26 C44        -1.9270    5.8770   11.4310 ca        1 BXQ     -0.099000
     27 C46        -2.9350    6.2960   12.3120 ca        1 BXQ     -0.046300
     28 C47        -4.2690    6.0280   11.9780 ca        1 BXQ     -0.081000
     29 C49        -4.5890    5.3620   10.7930 ca        1 BXQ     -0.116000
     30 C51        -3.5840    4.9510    9.9220 ca        1 BXQ     -0.111000
     31 C53        -2.5500    7.0230   13.5750 c3        1 BXQ     -0.017700
     32 C54        -1.8050    8.3050   13.2120 c3        1 BXQ     -0.090433
     33 C58        -3.7630    7.3980   14.4180 c3        1 BXQ     -0.090433
     34 C62        -1.6420    6.1300   14.4160 c3        1 BXQ     -0.090433
     35 O66        -1.0740    1.0320    8.0430 oh        1 BXQ     -0.604800
     36 F68         5.1110   -2.4880    4.9360 f         1 BXQ     -0.133900
     37 N69         4.0000   -2.0460    2.3940 nv        1 BXQ     -0.835200
     38 H1          2.8630    0.3690    1.6650 h1        1 BXQ      0.086700
     39 H2          1.3190    1.9310    1.0050 ho        1 BXQ      0.426000
     40 H3          1.3080   -2.0040    1.5990 hc        1 BXQ      0.080200
     41 H4          0.1600   -0.8520    2.3810 hc        1 BXQ      0.080200
     42 H5          3.6910   -1.7080    6.9700 ha        1 BXQ      0.148000
     43 H6          0.3090   -0.4130    4.6040 ha        1 BXQ      0.132000
     44 H7          1.6310   -1.1120    8.0450 hc        1 BXQ      0.064200
     45 H8          0.1260   -0.8790    7.0720 hc        1 BXQ      0.064200
     46 H9          1.0680    1.4460    6.3960 hc        1 BXQ      0.087700
     47 H10         0.4250    0.8360    9.3920 h1        1 BXQ      0.096700
     48 H11         0.1520    3.4120    7.6090 hx        1 BXQ      0.125700
     49 H12         1.7150    4.3910    9.4000 h1        1 BXQ      0.124700
     50 H13         1.9060    2.7540   10.1010 h1        1 BXQ      0.124700
     51 H14         3.4030    0.8790    7.0610 h1        1 BXQ      0.148200
     52 H15         2.9390    0.7730    8.7710 h1        1 BXQ      0.148200
     53 H16        -1.6250    2.7790    9.3180 hn        1 BXQ      0.457800
     54 H18        -1.5050    4.9240    8.2330 hx        1 BXQ      0.105200
     55 H19        -0.2380    5.4290    9.4590 hx        1 BXQ      0.105200
     56 H20        -0.8740    6.0930   11.6720 ha        1 BXQ      0.139000
     57 H21        -5.0890    6.3440   12.6430 ha        1 BXQ      0.162000
     58 H22        -5.6440    5.1670   10.5440 ha        1 BXQ      0.158000
     59 H23        -3.8430    4.4430    8.9810 ha        1 BXQ      0.136000
     60 H24        -1.5260    8.8550   14.1430 hc        1 BXQ      0.044033
     61 H25        -0.8720    8.0750   12.6450 hc        1 BXQ      0.044033
     62 H26        -2.4510    8.9660   12.5880 hc        1 BXQ      0.044033
     63 H27        -4.3280    6.4860   14.7270 hc        1 BXQ      0.044033
     64 H28        -4.4410    8.0810   13.8540 hc        1 BXQ      0.044033
     65 H29        -3.4240    7.9280   15.3420 hc        1 BXQ      0.044033
     66 H30        -2.1680    5.1830   14.6870 hc        1 BXQ      0.044033
     67 H31        -0.7070    5.8780   13.8610 hc        1 BXQ      0.044033
     68 H32        -1.3590    6.6610   15.3570 hc        1 BXQ      0.044033
     69 H33        -1.1280    0.9690    7.0790 ho        1 BXQ      0.438000
     70 H34         4.8160   -2.6030    2.5090 hn        1 BXQ      0.428300
     71 H35         3.4880   -2.1950    1.5540 hn        1 BXQ      0.428300
     72 H382       -0.5300    3.2250   10.4890 hn        1 BXQ      0.457800
@<TRIPOS>BOND
     1    1    2 1   
     2    2    3 1   
     3    2    4 1   
     4    2    5 1   
     5    5    6 1   
     6    5    7 1   
     7    5   38 1   
     8    6   39 1   
     9    7    8 1   
    10    7   40 1   
    11    7   41 1   
    12    8    9 ar  
    13    8   13 ar  
    14    9   10 ar  
    15    9   37 1   
    16   10   11 ar  
    17   10   36 1   
    18   11   12 ar  
    19   11   42 1   
    20   12   13 ar  
    21   12   14 1   
    22   13   43 1   
    23   14   15 1   
    24   14   44 1   
    25   14   45 1   
    26   15   16 1   
    27   15   20 1   
    28   15   46 1   
    29   16   17 1   
    30   16   35 1   
    31   16   47 1   
    32   17   18 1   
    33   17   23 1   
    34   17   48 1   
    35   18   19 1   
    36   18   49 1   
    37   18   50 1   
    38   19   20 1   
    39   19   21 2   
    40   19   22 2   
    41   20   51 1   
    42   20   52 1   
    43   23   24 1   
    44   23   53 1   
    45   23   72 1   
    46   24   25 1   
    47   24   54 1   
    48   24   55 1   
    49   25   26 ar  
    50   25   30 ar  
    51   26   27 ar  
    52   26   56 1   
    53   27   28 ar  
    54   27   31 1   
    55   28   29 ar  
    56   28   57 1   
    57   29   30 ar  
    58   29   58 1   
    59   30   59 1   
    60   31   32 1   
    61   31   33 1   
    62   31   34 1   
    63   32   60 1   
    64   32   61 1   
    65   32   62 1   
    66   33   63 1   
    67   33   64 1   
    68   33   65 1   
    69   34   66 1   
    70   34   67 1   
    71   34   68 1   
    72   35   69 1   
    73   37   70 1   
    74   37   71 1   
@<TRIPOS>SUBSTRUCTURE
     1 BXQ         1 TEMP              0 ****  ****    0 ROOT
