@<TRIPOS>MOLECULE
BXQ
   71    73     1     0     0
SMALL
bcc


@<TRIPOS>ATOM
      1 F1          7.2830   -3.2320   -1.2530 f         1 BXQ     -0.239300
      2 C2          7.1250   -1.9070   -1.5720 c3        1 BXQ      0.579900
      3 F3          8.1530   -1.2650   -0.9290 f         1 BXQ     -0.239300
      4 F4          7.4380   -1.8220   -2.9010 f         1 BXQ     -0.239300
      5 C5          5.6900   -1.3480   -1.2220 c3        1 BXQ      0.122100
      6 O7          4.7360   -2.1450   -1.8750 oh        1 BXQ     -0.558800
      7 C9          5.4920   -1.3040    0.2930 c3        1 BXQ     -0.061100
      8 C12         4.8360   -0.0460    0.7440 ca        1 BXQ     -0.129300
      9 C13         5.5320    1.1900    0.7170 ca        1 BXQ      0.127600
     10 C14         4.8470    2.3450    1.2110 ca        1 BXQ      0.054900
     11 C15         3.5300    2.2620    1.6780 ca        1 BXQ     -0.122000
     12 C17         2.8630    1.0370    1.6810 ca        1 BXQ     -0.105300
     13 C18         3.5240   -0.1020    1.2160 ca        1 BXQ     -0.084000
     14 C20         1.4710    0.9340    2.1990 c3        1 BXQ     -0.024100
     15 C23         0.4400    0.8610    1.0760 c3        1 BXQ     -0.026700
     16 C25        -0.9210    0.4310    1.6500 c3        1 BXQ      0.146100
     17 C27        -1.9830    0.2940    0.5180 c3        1 BXQ      0.176500
     18 C29        -2.1280    1.6420   -0.2000 c3        1 BXQ     -0.359600
     19 S32        -0.7100    2.1800   -0.9820 s6        1 BXQ      1.340000
     20 C33         0.3290    2.1930    0.3620 c3        1 BXQ     -0.330600
     21 O36        -0.3000    1.2420   -1.9330 o         1 BXQ     -0.648300
     22 O37        -0.9140    3.4960   -1.4170 o         1 BXQ     -0.648300
     23 N38        -3.2270   -0.2340    1.0540 n3        1 BXQ     -0.828200
     24 C40        -4.0590   -0.9060    0.0700 c3        1 BXQ      0.211100
     25 C43        -5.4830   -1.0720    0.5150 ca        1 BXQ     -0.104300
     26 C44        -6.5230   -0.6260   -0.3030 ca        1 BXQ     -0.120000
     27 C46        -7.8630   -0.8010    0.0740 ca        1 BXQ     -0.063300
     28 C47        -8.1400   -1.4290    1.2930 ca        1 BXQ     -0.121000
     29 C49        -7.1020   -1.8740    2.1130 ca        1 BXQ     -0.132000
     30 C51        -5.7750   -1.7010    1.7300 ca        1 BXQ     -0.116000
     31 C53        -8.9510   -0.3080   -0.8440 c3        1 BXQ     -0.010700
     32 C54        -8.8350   -1.0140   -2.1920 c3        1 BXQ     -0.086100
     33 C58       -10.3450   -0.5740   -0.2870 c3        1 BXQ     -0.086100
     34 C62        -8.8000    1.1970   -1.0480 c3        1 BXQ     -0.086100
     35 O66        -0.6910   -0.8200    2.2790 oh        1 BXQ     -0.598800
     36 F68         5.4810    3.5470    1.2320 f         1 BXQ     -0.144900
     37 N69         6.8020    1.3060    0.1540 nh        1 BXQ     -0.823200
     38 H1          5.5950   -0.3300   -1.6970 h1        1 BXQ      0.135700
     39 H2          4.7610   -3.0280   -1.4800 ho        1 BXQ      0.413000
     40 H3          4.8660   -2.1870    0.6000 hc        1 BXQ      0.066700
     41 H4          6.4830   -1.4210    0.8110 hc        1 BXQ      0.066700
     42 H5          3.0360    3.1730    2.0480 ha        1 BXQ      0.148000
     43 H6          2.9930   -1.0680    1.2220 ha        1 BXQ      0.144000
     44 H7          1.3790    0.0070    2.8290 hc        1 BXQ      0.064700
     45 H8          1.2380    1.8130    2.8570 hc        1 BXQ      0.064700
     46 H9          0.7750    0.0740    0.3390 hc        1 BXQ      0.086700
     47 H10        -1.2710    1.1780    2.4150 h1        1 BXQ      0.037700
     48 H11        -1.5800   -0.4600   -0.2260 h1        1 BXQ      0.089700
     49 H12        -2.9530    1.5500   -0.9600 h1        1 BXQ      0.116700
     50 H13        -2.4900    2.4080    0.5360 h1        1 BXQ      0.116700
     51 H14         0.0200    2.9780    1.1040 h1        1 BXQ      0.124700
     52 H15         1.3710    2.4890    0.0490 h1        1 BXQ      0.124700
     53 H16        -3.7380    0.4810    1.5350 hn        1 BXQ      0.368800
     54 H18        -4.0450   -0.3730   -0.9270 h1        1 BXQ      0.044700
     55 H19        -3.6110   -1.9290   -0.0940 h1        1 BXQ      0.044700
     56 H20        -6.2880   -0.1340   -1.2600 ha        1 BXQ      0.133000
     57 H21        -9.1770   -1.5840    1.6250 ha        1 BXQ      0.136000
     58 H22        -7.3360   -2.3680    3.0680 ha        1 BXQ      0.133000
     59 H23        -4.9580   -2.0580    2.3740 ha        1 BXQ      0.140000
     60 H24        -8.9350   -2.1170   -2.0610 hc        1 BXQ      0.037700
     61 H25        -9.6420   -0.6590   -2.8770 hc        1 BXQ      0.037700
     62 H26        -7.8480   -0.7990   -2.6660 hc        1 BXQ      0.037700
     63 H27       -10.4850   -0.0530    0.6900 hc        1 BXQ      0.037700
     64 H28       -11.1130   -0.1910   -1.0020 hc        1 BXQ      0.037700
     65 H29       -10.5110   -1.6690   -0.1470 hc        1 BXQ      0.037700
     66 H30        -7.8130    1.4350   -1.5100 hc        1 BXQ      0.037700
     67 H31        -9.6070    1.5720   -1.7220 hc        1 BXQ      0.037700
     68 H32        -8.8740    1.7290   -0.0700 hc        1 BXQ      0.037700
     69 H33        -1.5440   -1.1630    2.5720 ho        1 BXQ      0.426000
     70 H34         7.3750    0.4930    0.2200 hn        1 BXQ      0.407300
     71 H35         7.2770    2.1540    0.3740 hn        1 BXQ      0.407300
@<TRIPOS>BOND
     1    1    2 1   
     2    2    3 1   
     3    2    4 1   
     4    2    5 1   
     5    5    6 1   
     6    5    7 1   
     7    5   38 1   
     8    6   39 1   
     9    7    8 1   
    10    7   40 1   
    11    7   41 1   
    12    8    9 ar  
    13    8   13 ar  
    14    9   10 ar  
    15    9   37 1   
    16   10   11 ar  
    17   10   36 1   
    18   11   12 ar  
    19   11   42 1   
    20   12   13 ar  
    21   12   14 1   
    22   13   43 1   
    23   14   15 1   
    24   14   44 1   
    25   14   45 1   
    26   15   16 1   
    27   15   20 1   
    28   15   46 1   
    29   16   17 1   
    30   16   35 1   
    31   16   47 1   
    32   17   18 1   
    33   17   23 1   
    34   17   48 1   
    35   18   19 1   
    36   18   49 1   
    37   18   50 1   
    38   19   20 1   
    39   19   21 2   
    40   19   22 2   
    41   20   51 1   
    42   20   52 1   
    43   23   24 1   
    44   23   53 1   
    45   24   25 1   
    46   24   54 1   
    47   24   55 1   
    48   25   26 ar  
    49   25   30 ar  
    50   26   27 ar  
    51   26   56 1   
    52   27   28 ar  
    53   27   31 1   
    54   28   29 ar  
    55   28   57 1   
    56   29   30 ar  
    57   29   58 1   
    58   30   59 1   
    59   31   32 1   
    60   31   33 1   
    61   31   34 1   
    62   32   60 1   
    63   32   61 1   
    64   32   62 1   
    65   33   63 1   
    66   33   64 1   
    67   33   65 1   
    68   34   66 1   
    69   34   67 1   
    70   34   68 1   
    71   35   69 1   
    72   37   70 1   
    73   37   71 1   
@<TRIPOS>SUBSTRUCTURE
     1 BXQ         1 TEMP              0 ****  ****    0 ROOT
