@<TRIPOS>MOLECULE
BXQ
   72    74     1     0     0
SMALL
bcc


@<TRIPOS>ATOM
      1 F1          1.1010   -0.6590   -0.7690 f         1 BXQ     -0.233300
      2 C2          2.2450   -0.2280   -0.1560 c3        1 BXQ      0.579900
      3 F3          3.1590   -1.2310   -0.3610 f         1 BXQ     -0.233300
      4 F4          2.6870    0.8260   -0.9140 f         1 BXQ     -0.233300
      5 C5          2.0840    0.1560    1.3670 c3        1 BXQ      0.120100
      6 O7          1.2500    1.2860    1.4700 oh        1 BXQ     -0.575800
      7 C9          1.4150   -0.9830    2.1350 c3        1 BXQ     -0.034100
      8 C12         2.0320   -1.2010    3.4720 ca        1 BXQ     -0.141300
      9 C13         3.3100   -1.8100    3.5990 ca        1 BXQ      0.169600
     10 C14         3.8030   -2.0370    4.9280 ca        1 BXQ      0.049900
     11 C15         3.0680   -1.6440    6.0500 ca        1 BXQ     -0.113000
     12 C17         1.8260   -1.0250    5.8940 ca        1 BXQ     -0.153300
     13 C18         1.3210   -0.8190    4.6090 ca        1 BXQ     -0.073000
     14 C20         1.0320   -0.6190    7.0850 c3        1 BXQ     -0.015100
     15 C23         1.0730    0.8930    7.3060 c3        1 BXQ     -0.054700
     16 C25         0.1370    1.3020    8.4540 c3        1 BXQ      0.124100
     17 C27         0.1540    2.8540    8.6000 c3        1 BXQ      0.158500
     18 C29         1.5430    3.3080    8.9900 c3        1 BXQ     -0.328600
     19 S32         2.7110    3.0150    7.7160 s6        1 BXQ      1.345000
     20 C33         2.4900    1.3420    7.6060 c3        1 BXQ     -0.353600
     21 O36         2.2340    3.6700    6.5850 o         1 BXQ     -0.616300
     22 O37         3.9630    3.3160    8.2290 o         1 BXQ     -0.616300
     23 N38        -0.8950    3.3170    9.5730 n4        1 BXQ     -0.761000
     24 C40        -1.3140    4.7420    9.3470 c3        1 BXQ      0.178100
     25 C43        -2.3330    5.1510   10.3530 ca        1 BXQ     -0.191300
     26 C44        -1.9460    5.8710   11.4860 ca        1 BXQ     -0.099000
     27 C46        -2.8990    6.2980   12.4230 ca        1 BXQ     -0.047300
     28 C47        -4.2450    5.9830   12.1980 ca        1 BXQ     -0.082000
     29 C49        -4.6320    5.2630   11.0650 ca        1 BXQ     -0.117000
     30 C51        -3.6820    4.8450   10.1380 ca        1 BXQ     -0.112000
     31 C53        -2.4440    7.0830   13.6260 c3        1 BXQ     -0.017700
     32 C54        -1.7640    8.3690   13.1610 c3        1 BXQ     -0.090433
     33 C58        -3.6020    7.4600   14.5420 c3        1 BXQ     -0.090433
     34 C62        -1.4520    6.2480   14.4310 c3        1 BXQ     -0.090433
     35 O66        -1.2200    0.9760    8.1930 oh        1 BXQ     -0.626800
     36 F68         5.0040   -2.6450    5.1050 f         1 BXQ     -0.134900
     37 N69         4.0960   -2.1030    2.5020 nh        1 BXQ     -0.836200
     38 H1          3.1180    0.3800    1.7500 h1        1 BXQ      0.085700
     39 H2          1.6940    2.0170    1.0150 ho        1 BXQ      0.426000
     40 H3          1.4710   -1.9240    1.5220 hc        1 BXQ      0.080700
     41 H4          0.3230   -0.7350    2.2480 hc        1 BXQ      0.080700
     42 H5          3.4790   -1.8420    7.0510 ha        1 BXQ      0.148000
     43 H6          0.3340   -0.3430    4.4850 ha        1 BXQ      0.139000
     44 H7          1.4160   -1.1380    8.0040 hc        1 BXQ      0.053700
     45 H8         -0.0310   -0.9460    6.9260 hc        1 BXQ      0.053700
     46 H9          0.7180    1.3920    6.3570 hc        1 BXQ      0.097700
     47 H10         0.4650    0.8140    9.4140 h1        1 BXQ      0.061700
     48 H11        -0.1260    3.3000    7.5930 hx        1 BXQ      0.136700
     49 H12         1.5530    4.4100    9.2110 h1        1 BXQ      0.124700
     50 H13         1.8770    2.8040    9.9350 h1        1 BXQ      0.124700
     51 H14         3.1440    0.9170    6.7830 h1        1 BXQ      0.147700
     52 H15         2.8530    0.8130    8.5310 h1        1 BXQ      0.147700
     53 H16        -0.5430    3.2170   10.5300 hn        1 BXQ      0.457300
     54 H18        -1.7330    4.8120    8.3010 hx        1 BXQ      0.106700
     55 H19        -0.3930    5.3890    9.4130 hx        1 BXQ      0.106700
     56 H20        -0.8850    6.1240   11.6400 ha        1 BXQ      0.139000
     57 H21        -5.0240    6.3030   12.9100 ha        1 BXQ      0.162000
     58 H22        -5.6970    5.0320   10.9020 ha        1 BXQ      0.157000
     59 H23        -3.9940    4.2950    9.2370 ha        1 BXQ      0.138000
     60 H24        -0.8680    8.1420   12.5360 hc        1 BXQ      0.044033
     61 H25        -2.4730    8.9880   12.5620 hc        1 BXQ      0.044033
     62 H26        -1.4350    8.9630   14.0480 hc        1 BXQ      0.044033
     63 H27        -4.1180    6.5480   14.9250 hc        1 BXQ      0.044033
     64 H28        -3.2130    8.0350   15.4180 hc        1 BXQ      0.044033
     65 H29        -4.3390    8.1030   14.0040 hc        1 BXQ      0.044033
     66 H30        -1.1160    6.8230   15.3280 hc        1 BXQ      0.044033
     67 H31        -0.5530    5.9980   13.8180 hc        1 BXQ      0.044033
     68 H32        -1.9300    5.3000   14.7750 hc        1 BXQ      0.044033
     69 H33        -1.2800    0.0220    8.0490 ho        1 BXQ      0.453000
     70 H34         4.8780   -2.6970    2.6600 hn        1 BXQ      0.429800
     71 H35         3.6420   -2.2050    1.6230 hn        1 BXQ      0.429800
     72 H382       -1.7240    2.7100    9.4710 hn        1 BXQ      0.457300
@<TRIPOS>BOND
     1    1    2 1   
     2    2    3 1   
     3    2    4 1   
     4    2    5 1   
     5    5    6 1   
     6    5    7 1   
     7    5   38 1   
     8    6   39 1   
     9    7    8 1   
    10    7   40 1   
    11    7   41 1   
    12    8    9 ar  
    13    8   13 ar  
    14    9   10 ar  
    15    9   37 1   
    16   10   11 ar  
    17   10   36 1   
    18   11   12 ar  
    19   11   42 1   
    20   12   13 ar  
    21   12   14 1   
    22   13   43 1   
    23   14   15 1   
    24   14   44 1   
    25   14   45 1   
    26   15   16 1   
    27   15   20 1   
    28   15   46 1   
    29   16   17 1   
    30   16   35 1   
    31   16   47 1   
    32   17   18 1   
    33   17   23 1   
    34   17   48 1   
    35   18   19 1   
    36   18   49 1   
    37   18   50 1   
    38   19   20 1   
    39   19   21 2   
    40   19   22 2   
    41   20   51 1   
    42   20   52 1   
    43   23   24 1   
    44   23   53 1   
    45   23   72 1   
    46   24   25 1   
    47   24   54 1   
    48   24   55 1   
    49   25   26 ar  
    50   25   30 ar  
    51   26   27 ar  
    52   26   56 1   
    53   27   28 ar  
    54   27   31 1   
    55   28   29 ar  
    56   28   57 1   
    57   29   30 ar  
    58   29   58 1   
    59   30   59 1   
    60   31   32 1   
    61   31   33 1   
    62   31   34 1   
    63   32   60 1   
    64   32   61 1   
    65   32   62 1   
    66   33   63 1   
    67   33   64 1   
    68   33   65 1   
    69   34   66 1   
    70   34   67 1   
    71   34   68 1   
    72   35   69 1   
    73   37   70 1   
    74   37   71 1   
@<TRIPOS>SUBSTRUCTURE
     1 BXQ         1 TEMP              0 ****  ****    0 ROOT
