@<TRIPOS>MOLECULE
BXQ
   73    75     1     0     0
SMALL
bcc


@<TRIPOS>ATOM
      1 F1          1.6210   -0.3800   -0.6940 f         1 BXQ     -0.224633
      2 C2          2.4620    0.2290    0.1900 c3        1 BXQ      0.583900
      3 F3          3.5870   -0.5720    0.2090 f         1 BXQ     -0.224633
      4 F4          2.8570    1.3980   -0.3910 f         1 BXQ     -0.224633
      5 C5          1.8750    0.4390    1.6430 c3        1 BXQ      0.122100
      6 O7          0.7830    1.3200    1.5920 oh        1 BXQ     -0.560800
      7 C9          1.3480   -0.8840    2.2070 c3        1 BXQ     -0.079100
      8 C12         1.9810   -1.2350    3.5090 ca        1 BXQ     -0.012300
      9 C13         3.1530   -2.0190    3.5990 ca        1 BXQ     -0.104400
     10 C14         3.6910   -2.3340    4.8770 ca        1 BXQ      0.177900
     11 C15         3.0580   -1.8730    6.0430 ca        1 BXQ     -0.141000
     12 C17         1.8970   -1.1050    5.9490 ca        1 BXQ     -0.006300
     13 C18         1.3740   -0.7910    4.6870 ca        1 BXQ     -0.118000
     14 C20         1.1860   -0.6680    7.1870 c3        1 BXQ     -0.048100
     15 C23         1.2100    0.8440    7.3780 c3        1 BXQ     -0.052700
     16 C25         0.2680    1.2640    8.5220 c3        1 BXQ      0.121100
     17 C27         0.2070    2.8220    8.5800 c3        1 BXQ      0.161500
     18 C29         1.5830    3.3690    8.9030 c3        1 BXQ     -0.336600
     19 S32         2.7570    3.0370    7.6620 s6        1 BXQ      1.345000
     20 C33         2.6120    1.3350    7.6740 c3        1 BXQ     -0.342600
     21 O36         2.2550    3.5270    6.4590 o         1 BXQ     -0.609300
     22 O37         4.0050    3.4120    8.1240 o         1 BXQ     -0.609300
     23 N38        -0.8410    3.2870    9.5490 n4        1 BXQ     -0.765000
     24 C40        -1.3330    4.6830    9.2630 c3        1 BXQ      0.185100
     25 C43        -2.3470    5.0850   10.2750 ca        1 BXQ     -0.203300
     26 C44        -1.9620    5.8420   11.3860 ca        1 BXQ     -0.099000
     27 C46        -2.9130    6.2700   12.3240 ca        1 BXQ     -0.042300
     28 C47        -4.2540    5.9180   12.1250 ca        1 BXQ     -0.073000
     29 C49        -4.6380    5.1610   11.0150 ca        1 BXQ     -0.115000
     30 C51        -3.6920    4.7420   10.0860 ca        1 BXQ     -0.111000
     31 C53        -2.4610    7.0960   13.5020 c3        1 BXQ     -0.018700
     32 C54        -1.8210    8.3860   12.9950 c3        1 BXQ     -0.090767
     33 C58        -3.6170    7.4670   14.4240 c3        1 BXQ     -0.090767
     34 C62        -1.4380    6.3060   14.3130 c3        1 BXQ     -0.090767
     35 O66        -1.0660    0.8490    8.2770 oh        1 BXQ     -0.609800
     36 F68         4.8140   -3.0800    4.9690 f         1 BXQ     -0.103900
     37 N69         3.8120   -2.5230    2.3990 n4        1 BXQ     -0.709000
     38 H1          2.7100    0.8680    2.2630 h1        1 BXQ      0.074700
     39 H2          1.0890    2.1600    1.2120 ho        1 BXQ      0.448000
     40 H3          0.2310   -0.7750    2.3530 hc        1 BXQ      0.103200
     41 H4          1.4730   -1.7000    1.4470 hc        1 BXQ      0.103200
     42 H5          3.4910   -2.1440    7.0220 ha        1 BXQ      0.190000
     43 H6          0.4520   -0.1870    4.6140 ha        1 BXQ      0.178000
     44 H7          1.6390   -1.1650    8.0870 hc        1 BXQ      0.079200
     45 H8          0.1180   -1.0160    7.1050 hc        1 BXQ      0.079200
     46 H9          0.8410    1.3240    6.4240 hc        1 BXQ      0.095700
     47 H10         0.6380    0.8490    9.5000 h1        1 BXQ      0.069700
     48 H11        -0.1190    3.1950    7.5560 hx        1 BXQ      0.135700
     49 H12         1.5350    4.4860    9.0370 h1        1 BXQ      0.136200
     50 H13         1.9460    2.9700    9.8890 h1        1 BXQ      0.136200
     51 H14         3.3060    0.8930    6.9050 h1        1 BXQ      0.132700
     52 H15         2.9650    0.8970    8.6480 h1        1 BXQ      0.132700
     53 H16        -1.6440    2.6410    9.4940 hn        1 BXQ      0.459300
     54 H18        -0.4430    5.3740    9.2800 hx        1 BXQ      0.105200
     55 H19        -1.7780    4.6800    8.2250 hx        1 BXQ      0.105200
     56 H20        -0.9060    6.1260   11.5180 ha        1 BXQ      0.138000
     57 H21        -5.0320    6.2390   12.8390 ha        1 BXQ      0.168000
     58 H22        -5.7010    4.9040   10.8710 ha        1 BXQ      0.162000
     59 H23        -4.0030    4.1660    9.2020 ha        1 BXQ      0.135000
     60 H24        -0.9270    8.1650   12.3650 hc        1 BXQ      0.045478
     61 H25        -1.4950    9.0100   13.8630 hc        1 BXQ      0.045478
     62 H26        -2.5530    8.9730   12.3910 hc        1 BXQ      0.045478
     63 H27        -4.1060    6.5520   14.8360 hc        1 BXQ      0.045478
     64 H28        -3.2300    8.0720   15.2800 hc        1 BXQ      0.045478
     65 H29        -4.3760    8.0790   13.8800 hc        1 BXQ      0.045478
     66 H30        -1.8890    5.3570   14.6900 hc        1 BXQ      0.045478
     67 H31        -1.1040    6.9130   15.1890 hc        1 BXQ      0.045478
     68 H32        -0.5430    6.0600   13.6940 hc        1 BXQ      0.045478
     69 H33        -1.1300   -0.0930    8.4860 ho        1 BXQ      0.446000
     70 H34         3.9300   -1.7590    1.7100 hn        1 BXQ      0.478467
     71 H35         4.7370   -2.9080    2.6390 hn        1 BXQ      0.478467
     72 H382       -0.4690    3.2550   10.5050 hn        1 BXQ      0.459300
     73 H693        3.2410   -3.2670    1.9780 hn        1 BXQ      0.478467
@<TRIPOS>BOND
     1    1    2 1   
     2    2    3 1   
     3    2    4 1   
     4    2    5 1   
     5    5    6 1   
     6    5    7 1   
     7    5   38 1   
     8    6   39 1   
     9    7    8 1   
    10    7   40 1   
    11    7   41 1   
    12    8    9 ar  
    13    8   13 ar  
    14    9   10 ar  
    15    9   37 1   
    16   10   11 ar  
    17   10   36 1   
    18   11   12 ar  
    19   11   42 1   
    20   12   13 ar  
    21   12   14 1   
    22   13   43 1   
    23   14   15 1   
    24   14   44 1   
    25   14   45 1   
    26   15   16 1   
    27   15   20 1   
    28   15   46 1   
    29   16   17 1   
    30   16   35 1   
    31   16   47 1   
    32   17   18 1   
    33   17   23 1   
    34   17   48 1   
    35   18   19 1   
    36   18   49 1   
    37   18   50 1   
    38   19   20 1   
    39   19   21 2   
    40   19   22 2   
    41   20   51 1   
    42   20   52 1   
    43   23   24 1   
    44   23   53 1   
    45   23   72 1   
    46   24   25 1   
    47   24   54 1   
    48   24   55 1   
    49   25   26 ar  
    50   25   30 ar  
    51   26   27 ar  
    52   26   56 1   
    53   27   28 ar  
    54   27   31 1   
    55   28   29 ar  
    56   28   57 1   
    57   29   30 ar  
    58   29   58 1   
    59   30   59 1   
    60   31   32 1   
    61   31   33 1   
    62   31   34 1   
    63   32   60 1   
    64   32   61 1   
    65   32   62 1   
    66   33   63 1   
    67   33   64 1   
    68   33   65 1   
    69   34   66 1   
    70   34   67 1   
    71   34   68 1   
    72   35   69 1   
    73   37   70 1   
    74   37   71 1   
    75   37   73 1   
@<TRIPOS>SUBSTRUCTURE
     1 BXQ         1 TEMP              0 ****  ****    0 ROOT
