@<TRIPOS>MOLECULE
BXQ
   71    68     1     0     0
SMALL
bcc


@<TRIPOS>ATOM
      1 F1          4.4590   -7.8110   -1.7140 f         1 BXQ     -0.164667
      2 C2          5.3300   -7.2120   -2.4830 c3        1 BXQ      0.367000
      3 F3          6.4710   -7.0000   -1.7900 f         1 BXQ     -0.164667
      4 F4          5.5900   -7.9730   -3.5330 f         1 BXQ     -0.164667
      5 C5          4.7680   -5.8900   -2.9470 c3        1 BXQ      0.013000
      6 O7          5.5900   -5.3600   -3.9140 oh        1 BXQ     -0.316000
      7 C9          3.3290   -6.1040   -3.5410 c3        1 BXQ     -0.116000
      8 C12         2.5790   -4.7220   -3.6090 c2        1 BXQ     -0.139000
      9 C13         2.4370   -4.0500   -4.8520 c2        1 BXQ      0.071000
     10 C14         1.6880   -2.8900   -4.9280 c1        1 BXQ      0.014000
     11 C15         1.0710   -2.3820   -3.7800 c1        1 BXQ     -0.108000
     12 C17         1.2130   -3.0500   -2.5480 c1        1 BXQ     -0.107000
     13 C18         1.9660   -4.2160   -2.4740 c1        1 BXQ     -0.098000
     14 C20         0.5050   -2.5110   -1.2930 c3        1 BXQ     -0.108000
     15 C23         0.8460   -1.0350   -1.1050 c3        1 BXQ     -0.067000
     16 C25        -0.0770   -0.4490    0.0300 c3        1 BXQ      0.035000
     17 C27         0.2530    1.0200    0.4490 c3        1 BXQ     -0.021000
     18 C29         1.7060    1.2620    0.8260 c3        1 BXQ     -0.900000
     19 S32         2.7340    0.6960   -0.4470 s4        1 BXQ      2.035800
     20 C33         2.3350   -0.9210   -0.8290 c2        1 BXQ     -0.870000
     21 O36         2.5320    1.5130   -1.6300 o         1 BXQ     -0.537900
     22 O37         4.1400    0.7970   -0.0150 o         1 BXQ     -0.537900
     23 N38        -0.5870    1.3690    1.5940 n3        1 BXQ     -0.307000
     24 C40        -1.1670    2.6400    1.3900 c3        1 BXQ     -0.032000
     25 C43        -2.3310    2.8570    2.4310 c2        1 BXQ     -0.097000
     26 C44        -2.7720    4.1500    2.7170 c2        1 BXQ     -0.121000
     27 C46        -3.9100    4.3450    3.5260 c1        1 BXQ     -0.057000
     28 C47        -4.5950    3.2460    4.0400 c1        1 BXQ     -0.126500
     29 C49        -4.1500    1.9430    3.7530 c1        1 BXQ     -0.126500
     30 C51        -3.0200    1.7510    2.9480 c1        1 BXQ     -0.115000
     31 C53        -4.4000    5.7860    3.8440 c3        1 BXQ     -0.018000
     32 C54        -4.9160    6.4120    2.6120 c3        1 BXQ     -0.204000
     33 C58        -5.5450    5.7310    4.9210 c3        1 BXQ     -0.204000
     34 C62        -3.2260    6.6200    4.3890 c3        1 BXQ     -0.204000
     35 O66        -1.3850   -0.4900   -0.4110 oh        1 BXQ     -0.323000
     36 F68         1.4270   -2.3380   -6.1280 f         1 BXQ     -0.110000
     37 N69         2.9570   -4.6630   -6.0740 n3        1 BXQ     -0.332000
     38 H1          4.7170   -5.2750   -2.1890 h1        1 BXQ      0.117000
     39 H2          6.3910   -5.1080   -3.5330 ho        1 BXQ      0.226000
     40 H3          3.4010   -6.4890   -4.4580 hc        1 BXQ      0.119500
     41 H4          2.8150   -6.7320   -2.9540 hc        1 BXQ      0.119500
     42 H5          0.5380   -1.5600   -3.8330 ha        1 BXQ      0.156000
     43 H6          2.0620   -4.6750   -1.6290 ha        1 BXQ      0.133000
     44 H7         -0.4470   -2.6110   -1.3960 hc        1 BXQ      0.104000
     45 H8          0.8120   -3.0270   -0.4890 hc        1 BXQ      0.104000
     46 H9          0.6430   -0.5550   -1.9510 hc        1 BXQ      0.125000
     47 H10         0.0030   -1.0100    0.8070 h1        1 BXQ      0.078000
     48 H11         0.0160    1.6280   -0.3170 h1        1 BXQ      0.129000
     49 H12         1.9220    2.1770    1.1630 h1        1 BXQ      0.156500
     50 H13         1.8910    0.7430    1.6140 h1        1 BXQ      0.156500
     51 H14         2.9780   -1.1810   -1.5430 ha        1 BXQ      0.162500
     52 H15         2.5510   -1.5790   -0.1320 ha        1 BXQ      0.162500
     53 H16        -0.0760    1.3850    2.3590 hn        1 BXQ      0.165000
     54 H18        -0.5020    3.3150    1.5100 h1        1 BXQ      0.084000
     55 H19        -1.5220    2.6930    0.4980 h1        1 BXQ      0.084000
     56 H20        -2.2720    4.9500    2.3430 ha        1 BXQ      0.132000
     57 H21        -5.3900    3.3820    4.6050 ha        1 BXQ      0.134500
     58 H22        -4.6530    1.1360    4.1300 ha        1 BXQ      0.134500
     59 H23        -2.7010    0.8190    2.7430 ha        1 BXQ      0.141000
     60 H24        -5.4190    7.2260    2.8440 hc        1 BXQ      0.077000
     61 H25        -5.4960    5.7940    2.1560 hc        1 BXQ      0.077000
     62 H26        -4.1810    6.6420    2.0380 hc        1 BXQ      0.077000
     63 H27        -5.2280    5.2520    5.7080 hc        1 BXQ      0.077000
     64 H28        -5.8090    6.6790    5.1850 hc        1 BXQ      0.077000
     65 H29        -6.3450    5.2550    4.5390 hc        1 BXQ      0.077000
     66 H30        -2.7580    6.1010    5.1410 hc        1 BXQ      0.077000
     67 H31        -2.5820    6.8000    3.6600 hc        1 BXQ      0.077000
     68 H32        -3.5720    7.4820    4.7470 hc        1 BXQ      0.077000
     69 H33        -1.8780   -1.0610    0.1300 ho        1 BXQ      0.225000
     70 H34         3.4060   -5.4300   -6.0310 hn        1 BXQ      0.210500
     71 H35         2.8410   -4.2400   -6.8910 hn        1 BXQ      0.210500
@<TRIPOS>BOND
     1    1    2 1   
     2    2    3 1   
     3    2    4 1   
     4    2    5 1   
     5    5    6 1   
     6    5    7 1   
     7    5   38 1   
     8    6   39 1   
     9    7    8 1   
    10    7   40 1   
    11    7   41 1   
    12    8    9 1   
    13    8   13 1   
    14    9   10 1   
    15    9   37 1   
    16   10   36 1   
    17   11   12 1   
    18   11   42 1   
    19   12   14 1   
    20   13   43 1   
    21   14   15 1   
    22   14   44 1   
    23   14   45 1   
    24   15   16 1   
    25   15   20 1   
    26   15   46 1   
    27   16   17 1   
    28   16   35 1   
    29   16   47 1   
    30   17   18 1   
    31   17   23 1   
    32   17   48 1   
    33   18   19 1   
    34   18   49 1   
    35   18   50 1   
    36   19   21 1   
    37   19   22 1   
    38   20   51 1   
    39   20   52 1   
    40   23   24 1   
    41   23   53 1   
    42   24   25 1   
    43   24   54 1   
    44   24   55 1   
    45   25   26 1   
    46   25   30 1   
    47   26   27 1   
    48   26   56 1   
    49   27   31 1   
    50   28   29 1   
    51   28   57 1   
    52   29   58 1   
    53   30   59 1   
    54   31   32 1   
    55   31   33 1   
    56   31   34 1   
    57   32   60 1   
    58   32   61 1   
    59   32   62 1   
    60   33   63 1   
    61   33   64 1   
    62   33   65 1   
    63   34   66 1   
    64   34   67 1   
    65   34   68 1   
    66   35   69 1   
    67   37   70 1   
    68   37   71 1   
@<TRIPOS>SUBSTRUCTURE
     1 BXQ         1 TEMP              0 ****  ****    0 ROOT
