@<TRIPOS>MOLECULE
BXR
   26    27     1     0     0
SMALL
bcc


@<TRIPOS>ATOM
      1 C1         -0.0720   -0.1670   -0.0020 ca        1 BXR     -0.116000
      2 C2          1.3140   -0.1460   -0.0940 ca        1 BXR     -0.086000
      3 C3          2.0890   -0.0670    1.0690 ca        1 BXR      0.030400
      4 C4          1.4680   -0.0110    2.3190 ca        1 BXR     -0.107000
      5 C5          0.0730   -0.0290    2.4340 ca        1 BXR     -0.089300
      6 C6         -0.7080   -0.1000    1.2570 ca        1 BXR      0.003800
      7 Cl7         3.7740   -0.0410    0.9640 cl        1 BXR     -0.024400
      8 N8         -2.1320   -0.0950    1.2900 na        1 BXR     -0.001500
      9 C9         -2.9980    0.4390    0.3080 cc        1 BXR      0.425400
     10 N10        -4.2600    0.1580    0.7330 nd        1 BXR     -0.338000
     11 N11        -4.1390   -0.5010    1.8830 nd        1 BXR     -0.025000
     12 N12        -2.9190   -0.6700    2.2320 nc        1 BXR     -0.306800
     13 C13        -0.5080    0.0570    3.8040 c3        1 BXR     -0.049100
     14 C14        -0.8660   -1.3380    4.3250 c3        1 BXR      0.113800
     15 N15        -2.1500   -1.3770    5.0840 nz        1 BXR     -0.836600
     16 H1         -0.6660   -0.2400   -0.9280 ha        1 BXR      0.163000
     17 H2          1.7970   -0.1940   -1.0850 ha        1 BXR      0.179000
     18 H4          2.0870    0.0570    3.2300 ha        1 BXR      0.162000
     19 H9         -2.6830    0.9800   -0.5930 h5        1 BXR      0.109100
     20 H13        -1.3900    0.7540    3.8060 hc        1 BXR      0.084200
     21 H13A        0.2470    0.5150    4.5020 hc        1 BXR      0.084200
     22 H14        -0.9590   -2.0690    3.4680 hx        1 BXR      0.113700
     23 H14A       -0.0540   -1.7050    5.0180 hx        1 BXR      0.113700
     24 HN15       -2.1080   -0.7410    5.8850 hn        1 BXR      0.465800
     25 HN1A       -2.3230   -2.3290    5.4190 hn        1 BXR      0.465800
     26 H153       -2.9340   -1.0920    4.4810 hn        1 BXR      0.465800
@<TRIPOS>BOND
     1    1    2 ar  
     2    1    6 ar  
     3    1   16 1   
     4    2    3 ar  
     5    2   17 1   
     6    3    4 ar  
     7    3    7 1   
     8    4    5 ar  
     9    4   18 1   
    10    5    6 ar  
    11    5   13 1   
    12    6    8 1   
    13    8    9 1   
    14    8   12 1   
    15    9   10 2   
    16    9   19 1   
    17   10   11 1   
    18   11   12 2   
    19   13   14 1   
    20   13   20 1   
    21   13   21 1   
    22   14   15 1   
    23   14   22 1   
    24   14   23 1   
    25   15   24 1   
    26   15   25 1   
    27   15   26 1   
@<TRIPOS>SUBSTRUCTURE
     1 BXR         1 TEMP              0 ****  ****    0 ROOT
