@<TRIPOS>MOLECULE
BXR
   25    22     1     0     0
SMALL
bcc


@<TRIPOS>ATOM
      1 C1          0.5200   -0.3470   -2.3910 c1        1 BXR     -0.101000
      2 C2          1.9050   -0.3730   -2.4090 c1        1 BXR     -0.117000
      3 C3          2.6140   -0.4000   -1.2170 c1        1 BXR     -0.054000
      4 C4          1.9350   -0.3990   -0.0070 c1        1 BXR     -0.120000
      5 C5          0.5490   -0.3720    0.0100 c1        1 BXR     -0.057000
      6 C6         -0.1590   -0.3460   -1.1810 c2        1 BXR      0.057000
      7 CL7         4.3550   -0.4890   -1.2400 cl        1 BXR      0.002000
      8 N8         -1.5750   -0.3840   -1.1640 n3        1 BXR     -0.152000
      9 C9         -2.3950    0.6570   -1.3860 c1        1 BXR     -0.088000
     10 N10        -3.6610    0.2100   -1.3160 n2        1 BXR     -0.114000
     11 N11        -3.6220   -1.1080   -1.0500 n2        1 BXR     -0.044000
     12 N12        -2.3340   -1.4750   -0.9570 n2        1 BXR     -0.014000
     13 C13        -0.1920   -0.3710    1.3330 c2        1 BXR     -0.142000
     14 C14         0.3170    0.7640    2.1950 c3        1 BXR     -0.079000
     15 N15        -0.5060    0.8870    3.3520 n3        1 BXR     -0.356000
     16 H1          0.0210   -0.3280   -3.2300 ha        1 BXR      0.165000
     17 H2          2.3820   -0.3740   -3.2590 ha        1 BXR      0.159000
     18 H4          2.4340   -0.4170    0.8310 ha        1 BXR      0.154000
     19 H9         -2.1210    1.5740   -1.5660 DU        1 BXR      0.242000
     20 H13        -0.0420   -1.2210    1.7910 ha        1 BXR      0.107000
     21 H13A       -1.1490   -0.2530    1.1700 ha        1 BXR      0.107000
     22 H14         1.2380    0.5790    2.4680 h1        1 BXR      0.069500
     23 H14A        0.2890    1.5990    1.6850 h1        1 BXR      0.069500
     24 HN15       -0.7730    1.7580    3.4450 hn        1 BXR      0.153000
     25 HN1A       -0.0310    0.6320    4.0920 hn        1 BXR      0.153000
@<TRIPOS>BOND
     1    1    6 1   
     2    1   16 1   
     3    2    3 1   
     4    2   17 1   
     5    3    7 1   
     6    4    5 1   
     7    4   18 1   
     8    5    6 1   
     9    6    8 1   
    10    8    9 1   
    11    8   12 1   
    12    9   10 1   
    13   10   11 1   
    14   11   12 1   
    15   13   14 1   
    16   13   20 1   
    17   13   21 1   
    18   14   15 1   
    19   14   22 1   
    20   14   23 1   
    21   15   24 1   
    22   15   25 1   
@<TRIPOS>SUBSTRUCTURE
     1 BXR         1 TEMP              0 ****  ****    0 ROOT
