@<TRIPOS>MOLECULE
BXR
   26    27     1     0     0
SMALL
bcc


@<TRIPOS>ATOM
      1 C1         -0.0720   -0.1780   -0.0030 ca        1 BXR     -0.116000
      2 C2          1.3140   -0.1520   -0.0950 ca        1 BXR     -0.086000
      3 C3          2.0880   -0.0640    1.0670 ca        1 BXR      0.030400
      4 C4          1.4670   -0.0030    2.3170 ca        1 BXR     -0.107000
      5 C5          0.0720   -0.0250    2.4320 ca        1 BXR     -0.089300
      6 C6         -0.7090   -0.1060    1.2560 ca        1 BXR      0.003800
      7 CL7         3.7730   -0.0320    0.9630 cl        1 BXR     -0.024400
      8 N8         -2.1330   -0.1060    1.2880 na        1 BXR     -0.001500
      9 C9         -3.0000    0.4180    0.3020 cc        1 BXR      0.425400
     10 N10        -4.2620    0.1350    0.7290 nd        1 BXR     -0.338000
     11 N11        -4.1380   -0.5160    1.8830 nd        1 BXR     -0.025000
     12 N12        -2.9170   -0.6780    2.2340 nc        1 BXR     -0.306800
     13 C13        -0.5100    0.0670    3.8010 c3        1 BXR     -0.049100
     14 C14        -0.8630   -1.3260    4.3310 c3        1 BXR      0.113800
     15 N15        -2.1460   -1.3650    5.0890 n4        1 BXR     -0.836600
     16 H1         -0.6660   -0.2590   -0.9290 ha        1 BXR      0.163000
     17 H2          1.7980   -0.2050   -1.0860 ha        1 BXR      0.179000
     18 H4          2.0850    0.0740    3.2280 ha        1 BXR      0.162000
     19 H9         -2.6870    0.9540   -0.6020 h5        1 BXR      0.109100
     20 H13        -1.3940    0.7610    3.7990 hc        1 BXR      0.084200
     21 H13A        0.2430    0.5320    4.4970 hc        1 BXR      0.084200
     22 H14        -0.0500   -1.6860    5.0260 hx        1 BXR      0.113700
     23 H14A       -0.9530   -2.0620    3.4780 hx        1 BXR      0.113700
     24 HN15       -2.3170   -2.3170    5.4300 hn        1 BXR      0.465800
     25 HN1A       -2.1070   -0.7250    5.8870 hn        1 BXR      0.465800
     26 H153       -2.9320   -1.0870    4.4850 hn        1 BXR      0.465800
@<TRIPOS>BOND
     1    1    2 ar  
     2    1    6 ar  
     3    1   16 1   
     4    2    3 ar  
     5    2   17 1   
     6    3    4 ar  
     7    3    7 1   
     8    4    5 ar  
     9    4   18 1   
    10    5    6 ar  
    11    5   13 1   
    12    6    8 1   
    13    8    9 1   
    14    8   12 1   
    15    9   10 2   
    16    9   19 1   
    17   10   11 1   
    18   11   12 2   
    19   13   14 1   
    20   13   20 1   
    21   13   21 1   
    22   14   15 1   
    23   14   22 1   
    24   14   23 1   
    25   15   24 1   
    26   15   25 1   
    27   15   26 1   
@<TRIPOS>SUBSTRUCTURE
     1 BXR         1 TEMP              0 ****  ****    0 ROOT
