@<TRIPOS>MOLECULE
BXR
   25    26     1     0     0
SMALL
bcc


@<TRIPOS>ATOM
      1 C1          0.6860   -1.7540    0.4590 ca        1 BXR     -0.118000
      2 C2          2.0470   -1.4800    0.4580 ca        1 BXR     -0.120000
      3 C3          2.4930   -0.2010    0.1080 ca        1 BXR      0.029400
      4 C4          1.5810    0.7910   -0.2450 ca        1 BXR     -0.122000
      5 C5          0.2020    0.5330   -0.2590 ca        1 BXR     -0.032300
      6 C6         -0.2470   -0.7560    0.1010 ca        1 BXR     -0.005200
      7 CL7         4.1550    0.1410    0.1120 cl        1 BXR     -0.072400
      8 N8         -1.6290   -1.1010    0.1090 na        1 BXR     -0.016500
      9 C9         -2.2030   -2.2330   -0.5110 cc        1 BXR      0.389400
     10 N10        -3.5210   -2.1990   -0.1920 nd        1 BXR     -0.372000
     11 N11        -3.7010   -1.1170    0.5740 nd        1 BXR     -0.049000
     12 N12        -2.6240   -0.4590    0.7730 nc        1 BXR     -0.178800
     13 C13        -0.7020    1.6440   -0.6700 c3        1 BXR     -0.047100
     14 C14        -0.9780    2.5760    0.5170 c3        1 BXR      0.161800
     15 N15        -1.8120    3.6980    0.1580 n3        1 BXR     -0.915800
     16 H1          0.3410   -2.7610    0.7480 ha        1 BXR      0.150000
     17 H2          2.7660   -2.2660    0.7380 ha        1 BXR      0.158000
     18 H4          1.9360    1.7990   -0.5200 ha        1 BXR      0.162000
     19 H9         -1.6590   -2.9550   -1.1270 h5        1 BXR      0.089100
     20 H13        -0.2080    2.2310   -1.4930 hc        1 BXR      0.065200
     21 H13A       -1.6660    1.2570   -1.0910 hc        1 BXR      0.065200
     22 H14        -1.4140    1.9590    1.3580 h1        1 BXR      0.036700
     23 H14A        0.0060    2.9890    0.8810 h1        1 BXR      0.036700
     24 HN15       -2.6780    3.3890   -0.2390 hn        1 BXR      0.353300
     25 HN1A       -2.0030    4.2560    0.9660 hn        1 BXR      0.353300
@<TRIPOS>BOND
     1    1    2 ar  
     2    1    6 ar  
     3    1   16 1   
     4    2    3 ar  
     5    2   17 1   
     6    3    4 ar  
     7    3    7 1   
     8    4    5 ar  
     9    4   18 1   
    10    5    6 ar  
    11    5   13 1   
    12    6    8 1   
    13    8    9 1   
    14    8   12 1   
    15    9   10 2   
    16    9   19 1   
    17   10   11 1   
    18   11   12 2   
    19   13   14 1   
    20   13   20 1   
    21   13   21 1   
    22   14   15 1   
    23   14   22 1   
    24   14   23 1   
    25   15   24 1   
    26   15   25 1   
@<TRIPOS>SUBSTRUCTURE
     1 BXR         1 TEMP              0 ****  ****    0 ROOT
