@<TRIPOS>MOLECULE
BXR
   26    27     1     0     0
SMALL
bcc


@<TRIPOS>ATOM
      1 C1         -0.0640   -0.1490    0.0030 ca        1 BXR     -0.116000
      2 C2          1.3220   -0.1140   -0.0830 ca        1 BXR     -0.086000
      3 C3          2.0920   -0.0310    1.0830 ca        1 BXR      0.030400
      4 C4          1.4640    0.0130    2.3310 ca        1 BXR     -0.107000
      5 C5          0.0690   -0.0210    2.4390 ca        1 BXR     -0.089300
      6 C6         -0.7060   -0.0950    1.2590 ca        1 BXR      0.003800
      7 CL7         3.7770    0.0130    0.9870 cl        1 BXR     -0.024400
      8 N8         -2.1300   -0.1050    1.2850 na        1 BXR     -0.001500
      9 C9         -2.9970    0.4240    0.3010 cc        1 BXR      0.425400
     10 N10        -4.2580    0.1280    0.7190 nd        1 BXR     -0.338000
     11 N11        -4.1350   -0.5340    1.8680 nd        1 BXR     -0.025000
     12 N12        -2.9150   -0.6920    2.2220 nc        1 BXR     -0.306800
     13 C13        -0.5200    0.0550    3.8070 c3        1 BXR     -0.049100
     14 C14        -0.8650   -1.3460    4.3210 c3        1 BXR      0.113800
     15 N15        -2.1510   -1.4020    5.0740 n4        1 BXR     -0.836600
     16 H1         -0.6530   -0.2250   -0.9270 ha        1 BXR      0.163000
     17 H2          1.8110   -0.1530   -1.0730 ha        1 BXR      0.179000
     18 H4          2.0780    0.0840    3.2450 ha        1 BXR      0.162000
     19 H9         -2.6840    0.9710   -0.5960 h5        1 BXR      0.109100
     20 H13        -1.4080    0.7430    3.8080 hc        1 BXR      0.084200
     21 H13A        0.2280    0.5170    4.5100 hc        1 BXR      0.084200
     22 H14        -0.9460   -2.0750    3.4610 hx        1 BXR      0.113700
     23 H14A       -0.0520   -1.7080    5.0170 hx        1 BXR      0.113700
     24 HN15       -2.1210   -0.7680    5.8770 hn        1 BXR      0.465800
     25 HN1A       -2.3160   -2.3570    5.4050 hn        1 BXR      0.465800
     26 H153       -2.9360   -1.1240    4.4680 hn        1 BXR      0.465800
@<TRIPOS>BOND
     1    1    2 ar  
     2    1    6 ar  
     3    1   16 1   
     4    2    3 ar  
     5    2   17 1   
     6    3    4 ar  
     7    3    7 1   
     8    4    5 ar  
     9    4   18 1   
    10    5    6 ar  
    11    5   13 1   
    12    6    8 1   
    13    8    9 1   
    14    8   12 1   
    15    9   10 2   
    16    9   19 1   
    17   10   11 1   
    18   11   12 2   
    19   13   14 1   
    20   13   20 1   
    21   13   21 1   
    22   14   15 1   
    23   14   22 1   
    24   14   23 1   
    25   15   24 1   
    26   15   25 1   
    27   15   26 1   
@<TRIPOS>SUBSTRUCTURE
     1 BXR         1 TEMP              0 ****  ****    0 ROOT
