@<TRIPOS>MOLECULE
BXW
   20    19     1     0     0
SMALL
bcc


@<TRIPOS>ATOM
      1 O19        -0.6350    0.4700    1.0860 o         1 BXW     -0.331500
      2 C20         0.6320    0.4780    1.0870 c2        1 BXW      0.193000
      3 C21         1.3830    0.4890    2.3900 c2        1 BXW     -0.456000
      4 O22         1.2670    0.4380   -0.0090 o         1 BXW     -0.331500
      5 C23         1.0620    1.7470    1.7870 c2        1 BXW      0.098000
      6 C24         0.3610    1.7860    0.5610 c1        1 BXW     -0.433000
      7 C25         0.9990   -0.7170    1.7610 c1        1 BXW      0.100000
      8 C26         0.3100   -0.6830    0.5570 c1        1 BXW     -0.509000
      9 C27        -0.0180    0.6030   -0.0610 c1        1 BXW      0.313000
     10 N28        -0.9030    0.5940   -1.4230 n         1 BXW     -0.311000
     11 C29        -1.5000   -0.6820   -1.8530 c2        1 BXW      0.335000
     12 C30        -0.6830   -1.9140   -1.7430 c3        1 BXW     -0.215000
     13 S31        -0.1000   -2.0920   -0.2920 ss        1 BXW      0.209000
     14 O32        -2.7020   -0.7620   -2.0330 o         1 BXW     -0.404000
     15 H23         1.3300    2.5850    2.2260 ha        1 BXW      0.084000
     16 H24         0.1350    2.6510    0.1510 ha        1 BXW      0.112000
     17 H25         1.2230   -1.5800    2.1750 ha        1 BXW      0.109000
     18 HN28       -0.8450    1.2940   -2.0120 hn        1 BXW      0.198000
     19 H30        -0.0200   -2.0380   -2.4580 h1        1 BXW      0.119000
     20 H30A       -1.2970   -2.6660   -1.8960 h1        1 BXW      0.119000
@<TRIPOS>BOND
     1    1    2 1   
     2    2    3 1   
     3    2    4 1   
     4    3    5 1   
     5    3    7 1   
     6    5    6 1   
     7    5   15 1   
     8    6   16 1   
     9    7   17 1   
    10    8    9 1   
    11    8   13 1   
    12    9   10 1   
    13   10   11 1   
    14   10   18 1   
    15   11   12 1   
    16   11   14 1   
    17   12   13 1   
    18   12   19 1   
    19   12   20 1   
@<TRIPOS>SUBSTRUCTURE
     1 BXW         1 TEMP              0 ****  ****    0 ROOT
