@<TRIPOS>MOLECULE
BXW
   20    21     1     0     0
SMALL
bcc


@<TRIPOS>ATOM
      1 O19         4.3280    0.7190    0.0410 o         1 BXW     -0.824800
      2 C20         3.4780   -0.2150    0.0310 c         1 BXW      0.911200
      3 C21         2.0050    0.1720   -0.0080 ca        1 BXW     -0.135600
      4 O22         3.7620   -1.4450    0.0520 o         1 BXW     -0.824800
      5 C23         1.6290    1.5190   -0.0290 ca        1 BXW     -0.075000
      6 C24         0.2900    1.8880   -0.0610 ca        1 BXW     -0.188000
      7 C25         1.0140   -0.8080   -0.0120 ca        1 BXW     -0.058000
      8 C26        -0.3400   -0.4640   -0.0560 ca        1 BXW     -0.072100
      9 C27        -0.7160    0.8970   -0.0830 ca        1 BXW      0.031600
     10 N28        -2.0700    1.2830   -0.1440 n         1 BXW     -0.459100
     11 C29        -3.1450    0.4580    0.1080 c         1 BXW      0.704500
     12 C30        -2.9060   -0.9580    0.5610 c3        1 BXW     -0.114300
     13 S31        -1.4830   -1.7200   -0.1290 ss        1 BXW     -0.179000
     14 O32        -4.3030    0.9120   -0.0210 o         1 BXW     -0.669500
     15 H23         2.4270    2.2810   -0.0180 ha        1 BXW      0.160000
     16 H24         0.0170    2.9530   -0.0740 ha        1 BXW      0.115000
     17 H25         1.3250   -1.8680    0.0190 ha        1 BXW      0.168000
     18 HN28       -2.2580    2.2280   -0.3940 hn        1 BXW      0.323500
     19 H30        -2.8550   -0.9480    1.6800 h1        1 BXW      0.093200
     20 H30A       -3.7830   -1.5850    0.2620 h1        1 BXW      0.093200
@<TRIPOS>BOND
     1    1    2 1   
     2    2    3 1   
     3    2    4 1   
     4    3    5 ar  
     5    3    7 ar  
     6    5    6 ar  
     7    5   15 1   
     8    6    9 ar  
     9    6   16 1   
    10    7    8 ar  
    11    7   17 1   
    12    8    9 ar  
    13    8   13 1   
    14    9   10 1   
    15   10   11 1   
    16   10   18 1   
    17   11   12 1   
    18   11   14 2   
    19   12   13 1   
    20   12   19 1   
    21   12   20 1   
@<TRIPOS>SUBSTRUCTURE
     1 BXW         1 TEMP              0 ****  ****    0 ROOT
