@<TRIPOS>MOLECULE
BXW
   20    21     1     0     0
SMALL
bcc


@<TRIPOS>ATOM
      1 O19         0.0700   -0.0980   -0.0090 o         1 BXW     -0.824800
      2 C20         1.3310   -0.0440   -0.0510 c         1 BXW      0.911200
      3 C21         2.0800   -0.0120    1.2760 ca        1 BXW     -0.135600
      4 O22         2.0130   -0.0150   -1.1120 o         1 BXW     -0.824800
      5 C23         1.3760   -0.0390    2.4840 ca        1 BXW     -0.075000
      6 C24         2.0450   -0.0060    3.7020 ca        1 BXW     -0.188000
      7 C25         3.4720    0.0560    1.3020 ca        1 BXW     -0.058000
      8 C26         4.1690    0.0780    2.5130 ca        1 BXW     -0.072100
      9 C27         3.4560    0.0450    3.7320 ca        1 BXW      0.031600
     10 N28         4.1240    0.0480    4.9730 n         1 BXW     -0.459100
     11 C29         5.4500    0.3730    5.1630 c         1 BXW      0.704500
     12 C30         6.2750    0.8400    3.9930 c3        1 BXW     -0.114300
     13 S31         5.8680    0.0900    2.4590 ss        1 BXW     -0.179000
     14 O32         5.9370    0.2970    6.3120 o         1 BXW     -0.669500
     15 H23         0.2750   -0.0850    2.4430 ha        1 BXW      0.160000
     16 H24         1.4720   -0.0250    4.6400 ha        1 BXW      0.115000
     17 H25         4.0130    0.0910    0.3400 ha        1 BXW      0.168000
     18 HN28        3.5910   -0.2100    5.7730 hn        1 BXW      0.323500
     19 H30         6.1760    1.9540    3.9360 h1        1 BXW      0.093200
     20 H30A        7.3510    0.6000    4.1920 h1        1 BXW      0.093200
@<TRIPOS>BOND
     1    1    2 1   
     2    2    3 1   
     3    2    4 1   
     4    3    5 ar  
     5    3    7 ar  
     6    5    6 ar  
     7    5   15 1   
     8    6    9 ar  
     9    6   16 1   
    10    7    8 ar  
    11    7   17 1   
    12    8    9 ar  
    13    8   13 1   
    14    9   10 1   
    15   10   11 1   
    16   10   18 1   
    17   11   12 1   
    18   11   14 2   
    19   12   13 1   
    20   12   19 1   
    21   12   20 1   
@<TRIPOS>SUBSTRUCTURE
     1 BXW         1 TEMP              0 ****  ****    0 ROOT
