@<TRIPOS>MOLECULE
BXW
   20    21     1     0     0
SMALL
bcc


@<TRIPOS>ATOM
      1 O19         0.0650   -0.1010   -0.0120 o         1 BXW     -0.824800
      2 C20         1.3260   -0.0510   -0.0530 c         1 BXW      0.911200
      3 C21         2.0740   -0.0160    1.2740 ca        1 BXW     -0.135600
      4 O22         2.0100   -0.0260   -1.1140 o         1 BXW     -0.824800
      5 C23         1.3700   -0.0390    2.4820 ca        1 BXW     -0.075000
      6 C24         2.0380   -0.0040    3.7000 ca        1 BXW     -0.188000
      7 C25         3.4660    0.0480    1.3020 ca        1 BXW     -0.058000
      8 C26         4.1620    0.0720    2.5130 ca        1 BXW     -0.072100
      9 C27         3.4480    0.0440    3.7320 ca        1 BXW      0.031600
     10 N28         4.1150    0.0490    4.9730 ns        1 BXW     -0.459100
     11 C29         5.4420    0.3710    5.1630 c         1 BXW      0.704500
     12 C30         6.2690    0.8340    3.9930 c3        1 BXW     -0.114300
     13 S31         5.8620    0.0800    2.4600 ss        1 BXW     -0.179000
     14 O32         5.9270    0.2980    6.3140 o         1 BXW     -0.669500
     15 H23         0.2680   -0.0820    2.4400 ha        1 BXW      0.160000
     16 H24         1.4640   -0.0190    4.6380 ha        1 BXW      0.115000
     17 H25         4.0080    0.0800    0.3400 ha        1 BXW      0.168000
     18 HN28        3.5810   -0.2050    5.7740 hn        1 BXW      0.323500
     19 H30         7.3440    0.5920    4.1930 h1        1 BXW      0.093200
     20 H30A        6.1730    1.9480    3.9330 h1        1 BXW      0.093200
@<TRIPOS>BOND
     1    1    2 1   
     2    2    3 1   
     3    2    4 1   
     4    3    5 ar  
     5    3    7 ar  
     6    5    6 ar  
     7    5   15 1   
     8    6    9 ar  
     9    6   16 1   
    10    7    8 ar  
    11    7   17 1   
    12    8    9 ar  
    13    8   13 1   
    14    9   10 1   
    15   10   11 1   
    16   10   18 1   
    17   11   12 1   
    18   11   14 2   
    19   12   13 1   
    20   12   19 1   
    21   12   20 1   
@<TRIPOS>SUBSTRUCTURE
     1 BXW         1 TEMP              0 ****  ****    0 ROOT
