@<TRIPOS>MOLECULE
BXX
   20    20     1     0     0
SMALL
bcc


@<TRIPOS>ATOM
      1 O2          2.2930    0.7890   -0.8300 oh        1 BXX     -0.581800
      2 C2          1.4340    0.7080    0.2770 c3        1 BXX      0.095100
      3 C1          1.1490   -0.7320    0.7550 c3        1 BXX      0.296900
      4 O4         -0.2290   -0.8330    1.0790 os        1 BXX     -0.435600
      5 C3          0.0280    1.2890   -0.0280 c3        1 BXX      0.084100
      6 O3         -0.2040    2.4860    0.6860 oh        1 BXX     -0.584800
      7 C4         -0.9790    0.2430    0.4920 c3        1 BXX      0.139100
      8 C5         -1.8490   -0.3090   -0.6390 c3        1 BXX      0.117400
      9 O5         -3.0350   -0.8040   -0.0420 oh        1 BXX     -0.590800
     10 HO2         2.0350    0.1060   -1.4650 ho        1 BXX      0.426000
     11 H2          1.9400    1.3000    1.0890 h1        1 BXX      0.099700
     12 O1          1.3440   -1.6160   -0.3250 oh        1 BXX     -0.640800
     13 H1          1.7340   -1.0460    1.6590 h2        1 BXX      0.085700
     14 H3         -0.0830    1.4690   -1.1310 h1        1 BXX      0.058700
     15 HO3         0.4290    3.1350    0.3520 ho        1 BXX      0.412000
     16 H4         -1.6210    0.6560    1.3180 h1        1 BXX      0.115700
     17 H5         -2.1110    0.5110   -1.3610 h1        1 BXX      0.034200
     18 H5A        -1.3010   -1.1280   -1.1770 h1        1 BXX      0.034200
     19 HO5        -3.4940   -1.3120   -0.7210 ho        1 BXX      0.402000
     20 H10         0.8710   -2.4330   -0.1190 ho        1 BXX      0.434000
@<TRIPOS>BOND
     1    1    2 1   
     2    1   10 1   
     3    2    3 1   
     4    2    5 1   
     5    2   11 1   
     6    3    4 1   
     7    3   12 1   
     8    3   13 1   
     9    4    7 1   
    10    5    6 1   
    11    5    7 1   
    12    5   14 1   
    13    6   15 1   
    14    7    8 1   
    15    7   16 1   
    16    8    9 1   
    17    8   17 1   
    18    8   18 1   
    19    9   19 1   
    20   12   20 1   
@<TRIPOS>SUBSTRUCTURE
     1 BXX         1 TEMP              0 ****  ****    0 ROOT
