@<TRIPOS>MOLECULE
BXX
   20    20     1     0     0
SMALL
bcc


@<TRIPOS>ATOM
      1 O2         -2.3810   -1.1120   -0.2280 oh        1 BXX     -0.581800
      2 C2         -0.8820   -1.1210   -0.2760 c3        1 BXX      0.095100
      3 C1         -0.2820   -1.1150    1.2050 c3        1 BXX      0.296900
      4 O4          0.7680   -0.0260    1.2210 os        1 BXX     -0.435600
      5 C3         -0.4640   -0.0800   -0.7940 c3        1 BXX      0.084100
      6 O3         -0.2100   -0.2980   -2.2450 oh        1 BXX     -0.584800
      7 C4          0.9470    0.2790   -0.0200 c3        1 BXX      0.139100
      8 C5          1.2530    1.7420   -0.1510 c3        1 BXX      0.117400
      9 O5          2.4040    2.0460    0.5860 oh        1 BXX     -0.590800
     10 HO2        -2.7000   -1.9140   -0.5360 ho        1 BXX      0.426000
     11 H2         -0.5600   -1.9040   -0.7740 h1        1 BXX      0.099700
     12 O1         -1.2050   -0.8570    2.0600 oh        1 BXX     -0.640800
     13 H1          0.1290   -1.9800    1.4040 h2        1 BXX      0.085700
     14 H3         -1.1010    0.6320   -0.6710 h1        1 BXX      0.058700
     15 HO3        -0.7470    0.2370   -2.7260 ho        1 BXX      0.412000
     16 H4          1.6830   -0.2540   -0.3960 h1        1 BXX      0.115700
     17 H5          0.4960    2.2680    0.1920 h1        1 BXX      0.034200
     18 H5A         1.4020    1.9630   -1.0980 h1        1 BXX      0.034200
     19 HO5         2.5900    2.9090    0.5020 ho        1 BXX      0.402000
     20 H10        -1.1390   -1.4160    2.7440 ho        1 BXX      0.434000
@<TRIPOS>BOND
     1    1    2 1   
     2    1   10 1   
     3    2    3 1   
     4    2    5 1   
     5    2   11 1   
     6    3    4 1   
     7    3   12 1   
     8    3   13 1   
     9    4    7 1   
    10    5    6 1   
    11    5    7 1   
    12    5   14 1   
    13    6   15 1   
    14    7    8 1   
    15    7   16 1   
    16    8    9 1   
    17    8   17 1   
    18    8   18 1   
    19    9   19 1   
    20   12   20 1   
@<TRIPOS>SUBSTRUCTURE
     1 BXX         1 TEMP              0 ****  ****    0 ROOT
