@<TRIPOS>MOLECULE
BXY
   20    20     1     0     0
SMALL
bcc


@<TRIPOS>ATOM
      1 O5         -2.6690    0.6130   -1.3570 oh        1 BXY     -0.592800
      2 C5         -1.2580    0.6130   -1.3570 c3        1 BXY      0.126400
      3 C4         -0.7980    0.6130   -0.0550 c3        1 BXY      0.097100
      4 C3          0.7900    0.6530   -0.0310 c3        1 BXY      0.120100
      5 O3          1.2720    2.0000    0.4610 oh        1 BXY     -0.588800
      6 C2          1.1140   -0.2260    0.7550 c3        1 BXY      0.048100
      7 O2          2.3840   -0.8610    0.3150 oh        1 BXY     -0.589800
      8 C1         -0.1140   -1.3360    0.7320 c3        1 BXY      0.310900
      9 O4         -1.1880   -0.6770    0.6420 os        1 BXY     -0.450600
     10 HO5        -2.9650    0.8040   -2.1720 ho        1 BXY      0.415000
     11 H5         -0.9330    1.4100   -1.8170 h1        1 BXY      0.054700
     12 H5A        -0.9330   -0.1840   -1.8170 h1        1 BXY      0.054700
     13 H4         -1.1600    1.3790    0.4300 h1        1 BXY      0.096700
     14 H3          1.1490    0.4660   -0.9190 h1        1 BXY      0.076700
     15 HO3         1.8300    2.3500   -0.1330 ho        1 BXY      0.414000
     16 H2          1.2160    0.1450    1.6520 h1        1 BXY      0.072700
     17 HO2         2.9450   -0.9080    1.0010 ho        1 BXY      0.415000
     18 O1         -0.1070   -2.0860    1.9170 oh        1 BXY     -0.604800
     19 H1         -0.0170   -1.9270   -0.0390 h2        1 BXY      0.101700
     20 H10        -0.5580   -2.8400    1.7930 ho        1 BXY      0.424000
@<TRIPOS>BOND
     1    1    2 1   
     2    1   10 1   
     3    2    3 1   
     4    2   11 1   
     5    2   12 1   
     6    3    4 1   
     7    3    9 1   
     8    3   13 1   
     9    4    5 1   
    10    4    6 1   
    11    4   14 1   
    12    5   15 1   
    13    6    7 1   
    14    6    8 1   
    15    6   16 1   
    16    7   17 1   
    17    8    9 1   
    18    8   18 1   
    19    8   19 1   
    20   18   20 1   
@<TRIPOS>SUBSTRUCTURE
     1 BXY         1 TEMP              0 ****  ****    0 ROOT
