@<TRIPOS>MOLECULE
BXY
   20    20     1     0     0
SMALL
bcc


@<TRIPOS>ATOM
      1 O5          3.2250   -0.3870    0.6010 oh        1 BXY     -0.592800
      2 C5          2.1270    0.4740    0.8050 c3        1 BXY      0.126400
      3 C4          1.0130    0.1970   -0.2050 c3        1 BXY      0.097100
      4 C3         -0.1890    1.1390   -0.0100 c3        1 BXY      0.120100
      5 O3         -0.3300    1.8960   -1.1960 oh        1 BXY     -0.588800
      6 C2         -1.4060    0.2130    0.2060 c3        1 BXY      0.048100
      7 O2         -2.0140    0.5870    1.4260 oh        1 BXY     -0.589800
      8 C1         -0.8230   -1.2180    0.2710 c3        1 BXY      0.310900
      9 O4          0.5700   -1.1560   -0.0110 os        1 BXY     -0.450600
     10 HO5         2.8880   -1.2920    0.6380 ho        1 BXY      0.415000
     11 H5          1.7360    0.3620    1.8520 h1        1 BXY      0.054700
     12 H5A         2.5320    1.5100    0.6530 h1        1 BXY      0.054700
     13 H4          1.4100    0.2550   -1.2550 h1        1 BXY      0.096700
     14 H3         -0.0470    1.8140    0.8770 h1        1 BXY      0.076700
     15 HO3        -1.0040    2.5640   -1.0210 ho        1 BXY      0.414000
     16 H2         -2.1370    0.2990   -0.6430 h1        1 BXY      0.072700
     17 HO2        -2.7690   -0.0010    1.5530 ho        1 BXY      0.415000
     18 O1         -1.3490   -2.0650   -0.7120 oh        1 BXY     -0.604800
     19 H1         -0.9850   -1.7230    1.2610 h2        1 BXY      0.101700
     20 H10        -0.9260   -1.8550   -1.5550 ho        1 BXY      0.424000
@<TRIPOS>BOND
     1    1    2 1   
     2    1   10 1   
     3    2    3 1   
     4    2   11 1   
     5    2   12 1   
     6    3    4 1   
     7    3    9 1   
     8    3   13 1   
     9    4    5 1   
    10    4    6 1   
    11    4   14 1   
    12    5   15 1   
    13    6    7 1   
    14    6    8 1   
    15    6   16 1   
    16    7   17 1   
    17    8    9 1   
    18    8   18 1   
    19    8   19 1   
    20   18   20 1   
@<TRIPOS>SUBSTRUCTURE
     1 BXY         1 TEMP              0 ****  ****    0 ROOT
