@<TRIPOS>MOLECULE
BXZ
   27    29     1     0     0
SMALL
bcc


@<TRIPOS>ATOM
      1 C1          3.3080   -1.8510   -0.9170 ca        1 BXZ     -0.233000
      2 C2          2.1420   -1.1080   -0.7630 ca        1 BXZ     -0.019000
      3 C3          2.2200    0.1120   -0.1010 ca        1 BXZ     -0.255900
      4 C4          3.4850    0.5620    0.3900 ca        1 BXZ      0.081100
      5 C5          4.6650   -0.1490    0.2570 ca        1 BXZ     -0.152000
      6 C6          4.5420   -1.3790   -0.4150 ca        1 BXZ      0.162100
      7 O1          5.7030   -2.0980   -0.5560 oh        1 BXZ     -0.487100
      8 O2          3.2920    1.8190    0.9990 os        1 BXZ     -0.003600
      9 N1          2.0080    2.1490    0.9200 nc        1 BXZ     -0.409200
     10 C7          1.3040    1.2000    0.2770 cd        1 BXZ      0.434500
     11 C8         -0.1260    1.2080    0.0280 ca        1 BXZ     -0.234900
     12 C9         -0.8470    0.0320    0.2750 ca        1 BXZ     -0.008000
     13 C10        -2.2220   -0.0420    0.0650 ca        1 BXZ     -0.159900
     14 C11        -2.9020    1.1020   -0.4060 ca        1 BXZ      0.205100
     15 C12        -2.2080    2.2890   -0.6650 ca        1 BXZ     -0.205000
     16 C13        -0.8220    2.3420   -0.4460 ca        1 BXZ      0.218100
     17 O3         -0.2460    3.5460   -0.7420 oh        1 BXZ     -0.482100
     18 O4         -4.2490    1.1510   -0.6470 oh        1 BXZ     -0.482100
     19 BR1        -3.1110   -1.6510    0.4200 br        1 BXZ     -0.079100
     20 H1          3.2740   -2.8190   -1.4380 ha        1 BXZ      0.143000
     21 H2          1.1830   -1.4760   -1.1590 ha        1 BXZ      0.151000
     22 H5          5.6290    0.2050    0.6390 ha        1 BXZ      0.177000
     23 HO1         5.4980   -2.9180   -1.0310 ho        1 BXZ      0.427000
     24 H9         -0.2990   -0.8500    0.6500 ha        1 BXZ      0.154000
     25 H12        -2.7430    3.1760   -1.0340 ha        1 BXZ      0.178000
     26 HO3         0.7090    3.5000   -0.5890 ho        1 BXZ      0.444000
     27 HO4        -4.6370    0.2880   -0.4240 ho        1 BXZ      0.436000
@<TRIPOS>BOND
     1    1    2 ar  
     2    1    6 ar  
     3    1   20 1   
     4    2    3 ar  
     5    2   21 1   
     6    3    4 ar  
     7    3   10 1   
     8    4    5 ar  
     9    4    8 1   
    10    5    6 ar  
    11    5   22 1   
    12    6    7 1   
    13    7   23 1   
    14    8    9 1   
    15    9   10 2   
    16   10   11 1   
    17   11   12 ar  
    18   11   16 ar  
    19   12   13 ar  
    20   12   24 1   
    21   13   14 ar  
    22   13   19 1   
    23   14   15 ar  
    24   14   18 1   
    25   15   16 ar  
    26   15   25 1   
    27   16   17 1   
    28   17   26 1   
    29   18   27 1   
@<TRIPOS>SUBSTRUCTURE
     1 BXZ         1 TEMP              0 ****  ****    0 ROOT
