@<TRIPOS>MOLECULE
BXZ
   27    21     1     0     0
SMALL
bcc


@<TRIPOS>ATOM
      1 C1         -3.3760   -0.0680   -1.9590 c1        1 BXZ     -0.219500
      2 C2         -1.9940   -0.0440   -1.8180 c1        1 BXZ     -0.121500
      3 C3         -1.4180    0.0010   -0.5350 c1        1 BXZ     -0.064000
      4 C4         -2.2210    0.0200    0.5770 c1        1 BXZ     -0.064000
      5 C5         -3.6220   -0.0040    0.4340 c1        1 BXZ     -0.121500
      6 C6         -4.1900   -0.0480   -0.8320 c1        1 BXZ      0.141500
      7 O1         -5.5910    0.0950   -0.7460 oh        1 BXZ     -0.241500
      8 O2         -1.4080    0.0630    1.6870 o         1 BXZ     -0.009700
      9 N1         -0.0810    0.0700    1.2510 n2        1 BXZ     -0.037300
     10 C7         -0.0840    0.0320   -0.1050 c1        1 BXZ     -0.018000
     11 C8          1.2920    0.1230    0.1380 c1        1 BXZ     -0.092000
     12 C9          1.9000    1.3740    0.2340 c1        1 BXZ     -0.013000
     13 C10         3.2510    1.4680    0.5560 c1        1 BXZ     -0.300000
     14 C11         3.9940    0.3150    0.7820 c1        1 BXZ      0.141500
     15 C12         3.3870   -0.9350    0.6870 c1        1 BXZ     -0.219500
     16 C13         2.0350   -1.0300    0.3650 c1        1 BXZ      0.165000
     17 O3          1.4210   -2.3060    0.2450 oh        1 BXZ     -0.222000
     18 O4          5.3660    0.4110    1.1290 oh        1 BXZ     -0.241500
     19 BR1         4.0980    3.1850    0.6390 br        1 BXZ      0.063000
     20 H1         -3.7770   -0.0990   -2.8520 ha        1 BXZ      0.160000
     21 H2         -1.4190   -0.0580   -2.6160 ha        1 BXZ      0.154500
     22 H5         -4.1970    0.0100    1.2300 ha        1 BXZ      0.154500
     23 HO1        -5.9850   -0.6220   -1.0980 ho        1 BXZ      0.230500
     24 H9          1.3770    2.1860    0.0740 ha        1 BXZ      0.158000
     25 H12         3.9140   -1.7540    0.8480 ha        1 BXZ      0.160000
     26 HO3         1.8800   -2.8040   -0.3330 ho        1 BXZ      0.228000
     27 HO4         5.4480    0.4190    2.0180 ho        1 BXZ      0.230500
@<TRIPOS>BOND
     1    1    6 1   
     2    1   20 1   
     3    2    3 1   
     4    2   21 1   
     5    4    5 1   
     6    5   22 1   
     7    6    7 1   
     8    7   23 1   
     9    8    9 2   
    10    9   10 1   
    11   10   11 1   
    12   11   16 1   
    13   12   13 1   
    14   12   24 1   
    15   13   19 1   
    16   14   15 1   
    17   14   18 1   
    18   15   25 1   
    19   16   17 1   
    20   17   26 1   
    21   18   27 1   
@<TRIPOS>SUBSTRUCTURE
     1 BXZ         1 TEMP              0 ****  ****    0 ROOT
