@<TRIPOS>MOLECULE
BXZ
   27    29     1     0     0
SMALL
bcc


@<TRIPOS>ATOM
      1 C1         -0.0160   -0.0580    0.0210 ca        1 BXZ     -0.234000
      2 C2          1.3750   -0.0590   -0.0360 ca        1 BXZ     -0.024000
      3 C3          2.0820   -0.0610    1.1600 ca        1 BXZ     -0.251900
      4 C4          1.3670   -0.0670    2.3980 ca        1 BXZ      0.080100
      5 C5         -0.0130   -0.0650    2.4930 ca        1 BXZ     -0.151000
      6 C6         -0.6920   -0.0600    1.2600 ca        1 BXZ      0.157100
      7 O1         -2.0640   -0.0570    1.3370 oh        1 BXZ     -0.490100
      8 O2          2.3130   -0.0760    3.4430 os        1 BXZ     -0.009600
      9 N1          3.5380   -0.0760    2.9290 nc        1 BXZ     -0.366200
     10 C7          3.4910   -0.0720    1.5860 cd        1 BXZ      0.435500
     11 C8          4.6320   -0.0630    0.6870 ca        1 BXZ     -0.174900
     12 C9          4.6590    0.8410   -0.3780 ca        1 BXZ     -0.014000
     13 C10         5.7350    0.8970   -1.2660 ca        1 BXZ     -0.159900
     14 C11         6.8210    0.0190   -1.0770 ca        1 BXZ      0.211100
     15 C12         6.8180   -0.9030   -0.0200 ca        1 BXZ     -0.261000
     16 C13         5.7260   -0.9430    0.8550 ca        1 BXZ      0.210100
     17 O3          5.6640   -1.8430    1.8840 oh        1 BXZ     -0.468100
     18 O4          7.9330   -0.0180   -1.8750 oh        1 BXZ     -0.485100
     19 BR1         5.6920    2.1370   -2.6670 br        1 BXZ     -0.078100
     20 H1         -0.6000   -0.0560   -0.9110 ha        1 BXZ      0.140000
     21 H2          1.8990   -0.0600   -1.0030 ha        1 BXZ      0.147000
     22 H5         -0.5520   -0.0690    3.4470 ha        1 BXZ      0.175000
     23 HO1        -2.4170   -0.0600    0.4340 ho        1 BXZ      0.425000
     24 H9          3.8020    1.5260   -0.5080 ha        1 BXZ      0.157000
     25 H12         7.6740   -1.5800    0.1060 ha        1 BXZ      0.162000
     26 HO3         6.4950   -2.3440    1.9010 ho        1 BXZ      0.429000
     27 HO4         7.8440    0.6610   -2.5650 ho        1 BXZ      0.437000
@<TRIPOS>BOND
     1    1    2 ar  
     2    1    6 ar  
     3    1   20 1   
     4    2    3 ar  
     5    2   21 1   
     6    3    4 ar  
     7    3   10 1   
     8    4    5 ar  
     9    4    8 1   
    10    5    6 ar  
    11    5   22 1   
    12    6    7 1   
    13    7   23 1   
    14    8    9 1   
    15    9   10 2   
    16   10   11 1   
    17   11   12 ar  
    18   11   16 ar  
    19   12   13 ar  
    20   12   24 1   
    21   13   14 ar  
    22   13   19 1   
    23   14   15 ar  
    24   14   18 1   
    25   15   16 ar  
    26   15   25 1   
    27   16   17 1   
    28   17   26 1   
    29   18   27 1   
@<TRIPOS>SUBSTRUCTURE
     1 BXZ         1 TEMP              0 ****  ****    0 ROOT
