@<TRIPOS>MOLECULE
BXZ
   27    29     1     0     0
SMALL
bcc


@<TRIPOS>ATOM
      1 C1         -0.0160   -0.0770    0.0220 ca        1 BXZ     -0.234000
      2 C2          1.3750   -0.0740   -0.0350 ca        1 BXZ     -0.024000
      3 C3          2.0830   -0.0580    1.1590 ca        1 BXZ     -0.251900
      4 C4          1.3680   -0.0510    2.3980 ca        1 BXZ      0.080100
      5 C5         -0.0130   -0.0540    2.4930 ca        1 BXZ     -0.151000
      6 C6         -0.6920   -0.0670    1.2610 ca        1 BXZ      0.157100
      7 O1         -2.0640   -0.0690    1.3380 oh        1 BXZ     -0.490100
      8 O2          2.3140   -0.0430    3.4430 os        1 BXZ     -0.009600
      9 N1          3.5390   -0.0450    2.9280 nc        1 BXZ     -0.366200
     10 C7          3.4920   -0.0580    1.5850 cd        1 BXZ      0.435500
     11 C8          4.6320   -0.0550    0.6860 ca        1 BXZ     -0.174900
     12 C9          4.6550    0.8350   -0.3900 ca        1 BXZ     -0.014000
     13 C10         5.7310    0.8840   -1.2790 ca        1 BXZ     -0.159900
     14 C11         6.8200    0.0140   -1.0790 ca        1 BXZ      0.211100
     15 C12         6.8210   -0.8960   -0.0110 ca        1 BXZ     -0.261000
     16 C13         5.7300   -0.9290    0.8650 ca        1 BXZ      0.210100
     17 O3          5.6710   -1.8170    1.9050 oh        1 BXZ     -0.468100
     18 O4          7.9320   -0.0290   -1.8780 oh        1 BXZ     -0.485100
     19 Br1         5.6820    2.1070   -2.6950 br        1 BXZ     -0.078100
     20 H1         -0.6010   -0.0900   -0.9100 ha        1 BXZ      0.140000
     21 H2          1.8980   -0.0850   -1.0030 ha        1 BXZ      0.147000
     22 H5         -0.5510   -0.0480    3.4480 ha        1 BXZ      0.175000
     23 HO1        -2.4170   -0.0840    0.4360 ho        1 BXZ      0.425000
     24 H9          3.7960    1.5150   -0.5280 ha        1 BXZ      0.157000
     25 H12         7.6800   -1.5680    0.1230 ha        1 BXZ      0.162000
     26 HO3         6.5040   -2.3140    1.9280 ho        1 BXZ      0.429000
     27 HO4         7.8400    0.6410   -2.5760 ho        1 BXZ      0.437000
@<TRIPOS>BOND
     1    1    2 ar  
     2    1    6 ar  
     3    1   20 1   
     4    2    3 ar  
     5    2   21 1   
     6    3    4 ar  
     7    3   10 1   
     8    4    5 ar  
     9    4    8 1   
    10    5    6 ar  
    11    5   22 1   
    12    6    7 1   
    13    7   23 1   
    14    8    9 1   
    15    9   10 2   
    16   10   11 1   
    17   11   12 ar  
    18   11   16 ar  
    19   12   13 ar  
    20   12   24 1   
    21   13   14 ar  
    22   13   19 1   
    23   14   15 ar  
    24   14   18 1   
    25   15   16 ar  
    26   15   25 1   
    27   16   17 1   
    28   17   26 1   
    29   18   27 1   
@<TRIPOS>SUBSTRUCTURE
     1 BXZ         1 TEMP              0 ****  ****    0 ROOT
