@<TRIPOS>MOLECULE
BY1
   23    23     1     0     0
SMALL
bcc


@<TRIPOS>ATOM
      1 C12        -0.1340    0.0640    0.1510 ce        1 BY1     -0.401100
      2 C13         1.1850    0.1900   -0.0190 cf        1 BY1      0.124300
      3 C14         1.8080    0.2530   -1.2950 ch        1 BY1      0.159500
      4 N04         2.3320    0.3080   -2.3330 n1        1 BY1     -0.322800
      5 H1         -0.7860   -0.0040   -0.7410 h4        1 BY1      0.183000
      6 H4          1.8810    0.2480    0.8450 ha        1 BY1      0.175000
      7 S1         -0.9280   -0.0390    1.6340 sy        1 BY1      1.436200
      8 O2         -1.8630   -1.0790    1.5630 o         1 BY1     -0.652800
      9 O1          0.0320   -0.0860    2.6570 o         1 BY1     -0.652800
     10 C1         -1.7050    1.4380    1.6310 ca        1 BY1     -0.399500
     11 C2         -2.9620    1.5860    1.0270 ca        1 BY1     -0.009500
     12 C3         -3.6240    2.8080    1.0390 ca        1 BY1     -0.159500
     13 C4         -3.0430    3.9190    1.6630 ca        1 BY1     -0.002300
     14 C5         -1.7910    3.7800    2.2760 ca        1 BY1     -0.159500
     15 C6         -1.1360    2.5540    2.2600 ca        1 BY1     -0.009500
     16 C7         -3.7510    5.2190    1.6900 c3        1 BY1     -0.070800
     17 H2         -3.4350    0.7090    0.5500 ha        1 BY1      0.153500
     18 H3         -4.6110    2.9030    0.5590 ha        1 BY1      0.144000
     19 H5         -1.3270    4.6440    2.7760 ha        1 BY1      0.144000
     20 H6         -0.1570    2.4480    2.7610 ha        1 BY1      0.153500
     21 H7         -3.0260    6.0700    1.7200 hc        1 BY1      0.055367
     22 H8         -4.4040    5.3390    0.7910 hc        1 BY1      0.055367
     23 H9         -4.3970    5.2770    2.6030 hc        1 BY1      0.055367
@<TRIPOS>BOND
     1    1    2 2   
     2    1    5 1   
     3    1    7 1   
     4    2    3 1   
     5    2    6 1   
     6    3    4 3   
     7    7    8 2   
     8    7    9 2   
     9    7   10 1   
    10   10   11 ar  
    11   10   15 ar  
    12   11   12 ar  
    13   11   17 1   
    14   12   13 ar  
    15   12   18 1   
    16   13   14 ar  
    17   13   16 1   
    18   14   15 ar  
    19   14   19 1   
    20   15   20 1   
    21   16   21 1   
    22   16   22 1   
    23   16   23 1   
@<TRIPOS>SUBSTRUCTURE
     1 BY1         1 TEMP              0 ****  ****    0 ROOT
