@<TRIPOS>MOLECULE
BY1
   23    23     1     0     0
SMALL
bcc


@<TRIPOS>ATOM
      1 C12        -0.0990    0.0980    0.1200 ce        1 BY1     -0.401100
      2 C13         1.2170    0.2460   -0.0530 cf        1 BY1      0.124300
      3 C14         1.8360    0.3240   -1.3300 ch        1 BY1      0.159500
      4 N04         2.3560    0.3900   -2.3690 n1        1 BY1     -0.322800
      5 H1         -0.7520    0.0210   -0.7700 h4        1 BY1      0.183000
      6 H4          1.9150    0.3140    0.8090 ha        1 BY1      0.175000
      7 S1         -0.8870   -0.0230    1.6050 sy        1 BY1      1.436200
      8 O2         -1.8040   -1.0790    1.5340 o         1 BY1     -0.652800
      9 O1          0.0760   -0.0560    2.6250 o         1 BY1     -0.652800
     10 C1         -1.6900    1.4400    1.6070 ca        1 BY1     -0.399500
     11 C2         -2.9510    1.5670    1.0070 ca        1 BY1     -0.009500
     12 C3         -3.6340    2.7770    1.0230 ca        1 BY1     -0.159500
     13 C4         -3.0710    3.8980    1.6490 ca        1 BY1     -0.002300
     14 C5         -1.8150    3.7780    2.2590 ca        1 BY1     -0.159500
     15 C6         -1.1390    2.5640    2.2370 ca        1 BY1     -0.009500
     16 C7         -3.8010    5.1850    1.6810 c3        1 BY1     -0.070800
     17 H2         -3.4100    0.6840    0.5280 ha        1 BY1      0.153500
     18 H3         -4.6230    2.8570    0.5460 ha        1 BY1      0.144000
     19 H5         -1.3650    4.6490    2.7590 ha        1 BY1      0.144000
     20 H6         -0.1570    2.4740    2.7360 ha        1 BY1      0.153500
     21 H7         -4.4460    5.2290    2.5950 hc        1 BY1      0.055367
     22 H8         -4.4580    5.2960    0.7830 hc        1 BY1      0.055367
     23 H9         -3.0910    6.0480    1.7110 hc        1 BY1      0.055367
@<TRIPOS>BOND
     1    1    2 2   
     2    1    5 1   
     3    1    7 1   
     4    2    3 1   
     5    2    6 1   
     6    3    4 3   
     7    7    8 2   
     8    7    9 2   
     9    7   10 1   
    10   10   11 ar  
    11   10   15 ar  
    12   11   12 ar  
    13   11   17 1   
    14   12   13 ar  
    15   12   18 1   
    16   13   14 ar  
    17   13   16 1   
    18   14   15 ar  
    19   14   19 1   
    20   15   20 1   
    21   16   21 1   
    22   16   22 1   
    23   16   23 1   
@<TRIPOS>SUBSTRUCTURE
     1 BY1         1 TEMP              0 ****  ****    0 ROOT
