@<TRIPOS>MOLECULE
BYA
   25    25     1     0     0
SMALL
bcc


@<TRIPOS>ATOM
      1 C2          1.2100    1.2300   -0.1680 c         1 BYA      0.940600
      2 C4          2.1410   -0.0470   -0.0560 c3        1 BYA     -0.296400
      3 C5          2.4380   -0.2240    1.4040 c3        1 BYA      0.135800
      4 N6          3.2420   -1.4820    1.6740 n4        1 BYA     -0.681800
      5 C7          4.1820   -1.3350    2.8300 c         1 BYA      0.565700
      6 C9          5.3890   -0.5240    2.6470 ca        1 BYA     -0.194600
      7 C14         5.6500    0.2400    1.4980 ca        1 BYA     -0.065000
      8 C13         7.4830    0.2240    3.6140 ca        1 BYA     -0.133500
      9 C12         7.7400    0.9800    2.4700 ca        1 BYA     -0.064000
     10 C11         6.8230    0.9870    1.4170 ca        1 BYA     -0.133500
     11 C10         6.3130   -0.5250    3.7090 ca        1 BYA     -0.065000
     12 O8          3.8570   -1.9440    3.8480 o         1 BYA     -0.465100
     13 O3          1.4760    2.0070   -1.1090 o         1 BYA     -0.782800
     14 O1          0.3170    1.3210    0.7090 o         1 BYA     -0.782800
     15 H4          1.5660   -0.9020   -0.4830 hc        1 BYA      0.051700
     16 H4A         3.0600    0.1280   -0.6630 hc        1 BYA      0.051700
     17 H5          1.4700   -0.2910    1.9860 hx        1 BYA      0.115700
     18 H5A         3.0270    0.6530    1.7940 hx        1 BYA      0.115700
     19 HN6         2.5930   -2.2530    1.8630 hn        1 BYA      0.447300
     20 H14         4.9410    0.2880    0.6540 ha        1 BYA      0.159500
     21 H13         8.2020    0.2210    4.4490 ha        1 BYA      0.159500
     22 H12         8.6640    1.5770    2.3990 ha        1 BYA      0.154000
     23 H11         7.0190    1.5930    0.5170 ha        1 BYA      0.159500
     24 H10         6.1010   -1.1170    4.6150 ha        1 BYA      0.159500
     25 H62         3.7800   -1.7080    0.8310 hn        1 BYA      0.447300
@<TRIPOS>BOND
     1    1    2 1   
     2    1   13 1   
     3    1   14 1   
     4    2    3 1   
     5    2   15 1   
     6    2   16 1   
     7    3    4 1   
     8    3   17 1   
     9    3   18 1   
    10    4    5 1   
    11    4   19 1   
    12    4   25 1   
    13    5    6 1   
    14    5   12 2   
    15    6    7 ar  
    16    6   11 ar  
    17    7   10 ar  
    18    7   20 1   
    19    8    9 ar  
    20    8   11 ar  
    21    8   21 1   
    22    9   10 ar  
    23    9   22 1   
    24   10   23 1   
    25   11   24 1   
@<TRIPOS>SUBSTRUCTURE
     1 BYA         1 TEMP              0 ****  ****    0 ROOT
