@<TRIPOS>MOLECULE
BYA
   25    25     1     0     0
SMALL
bcc


@<TRIPOS>ATOM
      1 C2          3.0260    0.7400   -0.6660 c         1 BYA      0.626100
      2 C4          1.9120    0.2440    0.2050 c3        1 BYA     -0.194400
      3 C5          2.4300   -0.2600    1.5560 c3        1 BYA      0.089000
      4 N6          3.1310   -1.5070    1.4710 ns        1 BYA     -0.586900
      5 C7          4.3450   -1.7740    2.0980 c         1 BYA      0.670700
      6 C9          5.2260   -0.6590    2.5330 ca        1 BYA     -0.146600
      7 C14         5.6100    0.3540    1.6490 ca        1 BYA     -0.093500
      8 C13         6.5910    0.3300    4.2650 ca        1 BYA     -0.133500
      9 C12         6.9680    1.3450    3.3850 ca        1 BYA     -0.108000
     10 C11         6.4820    1.3540    2.0780 ca        1 BYA     -0.133500
     11 C10         5.7260   -0.6770    3.8410 ca        1 BYA     -0.093500
     12 O8          4.6700   -2.9690    2.2440 o         1 BYA     -0.585100
     13 O3          3.3270    1.9160   -0.8720 o         1 BYA     -0.492000
     14 O1          3.8220   -0.1500   -1.3290 oh        1 BYA     -0.581100
     15 H4          1.2090    1.0990    0.4000 hc        1 BYA      0.083200
     16 H4A         1.3420   -0.5570   -0.3340 hc        1 BYA      0.083200
     17 H5          1.5340   -0.3730    2.2360 h1        1 BYA      0.064700
     18 H5A         3.1020    0.5290    2.0030 h1        1 BYA      0.064700
     19 HN6         2.5700   -2.3060    1.2670 hn        1 BYA      0.309500
     20 H14         5.2340    0.3610    0.6110 ha        1 BYA      0.150000
     21 H13         6.9810    0.3190    5.2940 ha        1 BYA      0.142500
     22 H12         7.6540    2.1370    3.7220 ha        1 BYA      0.137000
     23 H11         6.7840    2.1490    1.3800 ha        1 BYA      0.142500
     24 H10         5.4430   -1.4950    4.5210 ha        1 BYA      0.150000
     25 H62         3.5680   -1.0570   -1.1080 ho        1 BYA      0.435000
@<TRIPOS>BOND
     1    1    2 1   
     2    1   13 2   
     3    1   14 1   
     4    2    3 1   
     5    2   15 1   
     6    2   16 1   
     7    3    4 1   
     8    3   17 1   
     9    3   18 1   
    10    4    5 1   
    11    4   19 1   
    12    5    6 1   
    13    5   12 2   
    14    6    7 ar  
    15    6   11 ar  
    16    7   10 ar  
    17    7   20 1   
    18    8    9 ar  
    19    8   11 ar  
    20    8   21 1   
    21    9   10 ar  
    22    9   22 1   
    23   10   23 1   
    24   11   24 1   
    25   14   25 1   
@<TRIPOS>SUBSTRUCTURE
     1 BYA         1 TEMP              0 ****  ****    0 ROOT
