@<TRIPOS>MOLECULE
BYA
   24    24     1     0     0
SMALL
bcc


@<TRIPOS>ATOM
      1 C2         -4.1090    0.4170    0.1590 c         1 BYA      0.913600
      2 C4         -2.6300    0.7020   -0.1810 c3        1 BYA     -0.223400
      3 C5         -1.7650   -0.5090    0.1350 c3        1 BYA      0.082000
      4 N6         -0.3660   -0.1990    0.3400 n         1 BYA     -0.540900
      5 C7          0.6520   -0.7080   -0.4220 c         1 BYA      0.652700
      6 C9          2.0210   -0.1360   -0.1980 ca        1 BYA     -0.125600
      7 C14         3.1080   -1.0150   -0.1310 ca        1 BYA     -0.096500
      8 C13         4.3950   -0.5180    0.0630 ca        1 BYA     -0.144000
      9 C12         4.6040    0.8560    0.1800 ca        1 BYA     -0.127000
     10 C11         3.5230    1.7340    0.1010 ca        1 BYA     -0.144000
     11 C10         2.2320    1.2410   -0.0870 ca        1 BYA     -0.096500
     12 O8          0.4970   -1.6520   -1.2290 o         1 BYA     -0.627100
     13 O3         -4.9820    0.8840   -0.6240 o         1 BYA     -0.842800
     14 O1         -4.3670   -0.2370    1.2090 o         1 BYA     -0.842800
     15 H4         -2.5440    0.9780   -1.2600 hc        1 BYA      0.025700
     16 H4A        -2.3250    1.5890    0.4300 hc        1 BYA      0.025700
     17 H5         -2.1520   -0.9840    1.0860 h1        1 BYA      0.074700
     18 H5A        -1.8510   -1.2650   -0.6960 h1        1 BYA      0.074700
     19 HN6        -0.1760    0.6010    0.8990 hn        1 BYA      0.296500
     20 H14         2.9300   -2.0960   -0.2440 ha        1 BYA      0.146500
     21 H13         5.2470   -1.2110    0.1190 ha        1 BYA      0.126000
     22 H12         5.6200    1.2480    0.3330 ha        1 BYA      0.122000
     23 H11         3.6870    2.8180    0.1850 ha        1 BYA      0.126000
     24 H10         1.3870    1.9420   -0.1620 ha        1 BYA      0.146500
@<TRIPOS>BOND
     1    1    2 1   
     2    1   13 1   
     3    1   14 1   
     4    2    3 1   
     5    2   15 1   
     6    2   16 1   
     7    3    4 1   
     8    3   17 1   
     9    3   18 1   
    10    4    5 1   
    11    4   19 1   
    12    5    6 1   
    13    5   12 2   
    14    6    7 ar  
    15    6   11 ar  
    16    7    8 ar  
    17    7   20 1   
    18    8    9 ar  
    19    8   21 1   
    20    9   10 ar  
    21    9   22 1   
    22   10   11 ar  
    23   10   23 1   
    24   11   24 1   
@<TRIPOS>SUBSTRUCTURE
     1 BYA         1 TEMP              0 ****  ****    0 ROOT
