@<TRIPOS>MOLECULE
BYA
   24    21     1     0     0
SMALL
bcc


@<TRIPOS>ATOM
      1 C2         -3.6420    2.8320   -0.3120 c1        1 BYA      0.333000
      2 C4         -2.5870    1.9570   -0.9650 c2        1 BYA     -0.252000
      3 C5         -2.2170    0.8120   -0.0130 c3        1 BYA     -0.035000
      4 N6         -0.9620    0.2350   -0.4090 n         1 BYA     -0.349000
      5 C7         -0.4220   -0.8910    0.3250 c2        1 BYA      0.325000
      6 C9          1.1010   -1.1820    0.2930 c2        1 BYA     -0.107000
      7 C14         1.6080   -2.2940    0.9380 c2        1 BYA     -0.086000
      8 C13         2.9660   -2.5060    0.9750 c1        1 BYA     -0.145000
      9 C12         3.8250   -1.6060    0.3660 c1        1 BYA     -0.135500
     10 C11         3.3270   -0.5080   -0.2710 c1        1 BYA     -0.135500
     11 C10         1.9570   -0.2890   -0.3100 c1        1 BYA     -0.107000
     12 O8         -1.1900   -1.6610    0.9330 o         1 BYA     -0.387000
     13 O3         -3.3040    3.7030    0.5220 o         1 BYA     -0.577500
     14 O1         -4.8450    2.7530   -0.6850 o         1 BYA     -0.577500
     15 H4         -1.7780    2.5010   -1.1610 ha        1 BYA      0.065500
     16 H4A        -2.9360    1.5930   -1.7870 ha        1 BYA      0.065500
     17 H5         -2.1400    1.1640    0.9130 h1        1 BYA      0.113500
     18 H5A        -2.9170    0.1260   -0.0430 h1        1 BYA      0.113500
     19 HN6        -0.5340    0.5380   -1.1700 hn        1 BYA      0.210000
     20 H14         1.0190   -2.8640    1.4500 ha        1 BYA      0.153000
     21 H13         3.3270   -3.2930    1.4300 ha        1 BYA      0.126000
     22 H12         4.7960   -1.7570    0.3970 ha        1 BYA      0.124000
     23 H11         3.9390    0.1280   -0.7010 ha        1 BYA      0.124000
     24 H10         1.6100    0.5090   -0.7140 ha        1 BYA      0.142000
@<TRIPOS>BOND
     1    1   13 1   
     2    1   14 1   
     3    2    3 1   
     4    2   15 1   
     5    2   16 1   
     6    3    4 1   
     7    3   17 1   
     8    3   18 1   
     9    4    5 1   
    10    4   19 1   
    11    5    6 1   
    12    5   12 1   
    13    6    7 1   
    14    6   11 1   
    15    7    8 1   
    16    7   20 1   
    17    8   21 1   
    18    9   10 1   
    19    9   22 1   
    20   10   23 1   
    21   11   24 1   
@<TRIPOS>SUBSTRUCTURE
     1 BYA         1 TEMP              0 ****  ****    0 ROOT
