@<TRIPOS>MOLECULE
BYD
   24    24     1     0     0
SMALL
bcc


@<TRIPOS>ATOM
      1 CAA         0.1200   -0.1910   -0.0750 ca        1 BYD     -0.060000
      2 CAB         1.5080   -0.2020    0.0760 ca        1 BYD     -0.060000
      3 CAC         2.0770   -0.1950    1.3620 ca        1 BYD     -0.129600
      4 CAD         1.2550   -0.1850    2.4950 ca        1 BYD     -0.060000
      5 CAE        -0.1330   -0.1790    2.3440 ca        1 BYD     -0.060000
      6 CAF        -0.7020   -0.1780    1.0580 ca        1 BYD     -0.129600
      7 CAG        -2.1720   -0.2160    0.9960 c         1 BYD      0.548700
      8 CAK         3.5460   -0.2510    1.4240 c         1 BYD      0.548700
      9 NAI        -2.8340    0.3170   -0.2820 n4        1 BYD     -0.454300
     10 NAL         4.2150    0.2870    2.6970 n4        1 BYD     -0.454300
     11 OAH        -2.9560   -0.6020    1.8450 o         1 BYD     -0.359100
     12 OAJ        -4.0770    0.8040   -0.0630 oh        1 BYD     -0.335300
     13 OAM         4.3250   -0.6570    0.5800 o         1 BYD     -0.359100
     14 OAN         5.4640    0.7540    2.4730 oh        1 BYD     -0.335300
     15 HAA        -0.2880   -0.2210   -1.0990 ha        1 BYD      0.185500
     16 HAB         2.1580   -0.2290   -0.8210 ha        1 BYD      0.185500
     17 HAD         1.6630   -0.2100    3.5190 ha        1 BYD      0.185500
     18 HAE        -0.7830   -0.1880    3.2410 ha        1 BYD      0.185500
     19 HAI        -2.2930    1.1250   -0.6580 hn        1 BYD      0.491800
     20 HAL         4.2420   -0.4530    3.4260 hn        1 BYD      0.491800
     21 HAJ        -4.5910    0.1650    0.4930 ho        1 BYD      0.496000
     22 HAN         5.9700    0.1030    1.9230 ho        1 BYD      0.496000
     23 HAI2       -2.8700   -0.4300   -1.0030 hn        1 BYD      0.491800
     24 HAL2        3.6850    1.1050    3.0640 hn        1 BYD      0.491800
@<TRIPOS>BOND
     1    1    2 ar  
     2    1    6 ar  
     3    1   15 1   
     4    2    3 ar  
     5    2   16 1   
     6    3    4 ar  
     7    3    8 1   
     8    4    5 ar  
     9    4   17 1   
    10    5    6 ar  
    11    5   18 1   
    12    6    7 1   
    13    7    9 1   
    14    7   11 2   
    15    8   10 1   
    16    8   13 2   
    17    9   12 1   
    18    9   19 1   
    19    9   23 1   
    20   10   14 1   
    21   10   20 1   
    22   10   24 1   
    23   12   21 1   
    24   14   22 1   
@<TRIPOS>SUBSTRUCTURE
     1 BYD         1 TEMP              0 ****  ****    0 ROOT
