@<TRIPOS>MOLECULE
BYD
   24    24     1     0     0
SMALL
bcc


@<TRIPOS>ATOM
      1 CAA         0.1730   -0.1100   -0.1560 ca        1 BYD     -0.060500
      2 CAB         1.5520   -0.2560   -0.0080 ca        1 BYD     -0.060500
      3 CAC         2.1490   -0.0670    1.2530 ca        1 BYD     -0.129100
      4 CAD         1.3640    0.2750    2.3590 ca        1 BYD     -0.060500
      5 CAE        -0.0160    0.4260    2.2090 ca        1 BYD     -0.060500
      6 CAF        -0.6140    0.2310    0.9520 ca        1 BYD     -0.129100
      7 CAG        -2.0660    0.4550    0.8800 c         1 BYD      0.553700
      8 CAK         3.6130   -0.1860    1.3060 c         1 BYD      0.553700
      9 NAI        -2.8220   -0.2140   -0.2770 ny        1 BYD     -0.457800
     10 NAL         4.2560   -0.5290    2.6680 ny        1 BYD     -0.457800
     11 OAH        -2.7730    1.0960    1.6370 o         1 BYD     -0.356600
     12 OAJ        -4.1190   -0.4620    0.0170 oh        1 BYD     -0.346300
     13 OAM         4.4230   -0.0760    0.4040 o         1 BYD     -0.356600
     14 OAN         4.1590    0.4990    3.5420 oh        1 BYD     -0.346300
     15 HAA        -0.2550   -0.2420   -1.1640 ha        1 BYD      0.189000
     16 HAB         2.1750   -0.5070   -0.8880 ha        1 BYD      0.189000
     17 HAD         1.8080    0.4610    3.3550 ha        1 BYD      0.189000
     18 HAE        -0.6340    0.7130    3.0820 ha        1 BYD      0.189000
     19 HAI        -2.4110   -1.1490   -0.4830 hn        1 BYD      0.491800
     20 HAL         3.7390   -1.3160    3.1120 hn        1 BYD      0.491800
     21 HAJ        -4.5200    0.3350    0.4490 ho        1 BYD      0.495000
     22 HAN         4.8830    1.1480    3.3660 ho        1 BYD      0.495000
     23 HAI2       -2.7630    0.3770   -1.1300 hn        1 BYD      0.491800
     24 HAL2        5.2450   -0.8200    2.5210 hn        1 BYD      0.491800
@<TRIPOS>BOND
     1    1    2 ar  
     2    1    6 ar  
     3    1   15 1   
     4    2    3 ar  
     5    2   16 1   
     6    3    4 ar  
     7    3    8 1   
     8    4    5 ar  
     9    4   17 1   
    10    5    6 ar  
    11    5   18 1   
    12    6    7 1   
    13    7    9 1   
    14    7   11 2   
    15    8   10 1   
    16    8   13 2   
    17    9   12 1   
    18    9   19 1   
    19    9   23 1   
    20   10   14 1   
    21   10   20 1   
    22   10   24 1   
    23   12   21 1   
    24   14   22 1   
@<TRIPOS>SUBSTRUCTURE
     1 BYD         1 TEMP              0 ****  ****    0 ROOT
