@<TRIPOS>MOLECULE
BYE
   36    38     1     0     0
SMALL
bcc


@<TRIPOS>ATOM
      1 C2         -0.1130    0.3210   -0.0700 ca        1 BYE      0.032400
      2 C3          1.2790    0.4740   -0.0830 ca        1 BYE     -0.118000
      3 C4          2.0060    0.4070    1.1010 ca        1 BYE     -0.113000
      4 C5          1.3510    0.1790    2.3120 ca        1 BYE     -0.120000
      5 F5         -5.2090    6.2690    6.1380 f         1 BYE     -0.238967
      6 C6         -0.0290    0.0130    2.3450 ca        1 BYE     -0.139000
      7 F6         -3.0880    5.8580    5.9060 f         1 BYE     -0.238967
      8 C7         -0.7810    0.0860    1.1530 ca        1 BYE      0.011800
      9 F7         -4.3060    4.5980    7.1860 f         1 BYE     -0.238967
     10 N8         -2.1920   -0.0740    1.2040 na        1 BYE      0.136300
     11 N9         -2.9000   -0.9640    0.4570 nc        1 BYE     -0.483800
     12 C10        -4.2010   -0.8570    0.8030 cd        1 BYE      0.391200
     13 C11        -3.0490    0.6290    2.0720 cc        1 BYE      0.159300
     14 C12        -4.3720    0.1430    1.8290 cd        1 BYE     -0.377900
     15 N13        -2.7890    1.6150    3.0030 na        1 BYE     -0.718600
     16 C14        -3.9210    2.1360    3.6800 cc        1 BYE      0.675200
     17 N15        -5.1540    1.7310    3.5130 nd        1 BYE     -0.681100
     18 C16        -5.4890    0.7020    2.5730 c         1 BYE      0.745100
     19 O17        -6.6690    0.3500    2.4390 o         1 BYE     -0.527100
     20 C18        -3.5990    3.2070    4.7110 c3        1 BYE     -0.124700
     21 C19        -4.6420    4.3100    4.7610 c3        1 BYE     -0.083700
     22 C20        -4.6800    5.1270    3.4920 c3        1 BYE     -0.107100
     23 C21        -4.3140    5.2440    5.9740 c3        1 BYE      0.617900
     24 CL1        -0.9580    0.4330   -1.5330 cl        1 BYE     -0.046400
     25 H1          1.7970    0.6490   -1.0400 ha        1 BYE      0.158000
     26 H2          3.1000    0.5290    1.0800 ha        1 BYE      0.147000
     27 H3          1.9280    0.1180    3.2480 ha        1 BYE      0.146000
     28 H4         -0.5290   -0.1970    3.3040 ha        1 BYE      0.149000
     29 H5         -4.9830   -1.4680    0.3430 h4        1 BYE      0.067100
     30 H6         -1.8790    1.9890    3.1290 hn        1 BYE      0.461800
     31 H7         -2.5970    3.6730    4.5070 hc        1 BYE      0.080200
     32 H8         -3.5450    2.6990    5.7150 hc        1 BYE      0.080200
     33 H9         -5.6610    3.8750    4.9680 hc        1 BYE      0.121700
     34 H10        -5.4430    5.9400    3.5840 hc        1 BYE      0.058367
     35 H11        -4.9570    4.4760    2.6280 hc        1 BYE      0.058367
     36 H12        -3.6850    5.5950    3.2940 hc        1 BYE      0.058367
@<TRIPOS>BOND
     1    1    2 ar  
     2    1    8 ar  
     3    1   24 1   
     4    2    3 ar  
     5    2   25 1   
     6    3    4 ar  
     7    3   26 1   
     8    4    6 ar  
     9    4   27 1   
    10    5   23 1   
    11    6    8 ar  
    12    6   28 1   
    13    7   23 1   
    14    8   10 1   
    15    9   23 1   
    16   10   11 1   
    17   10   13 1   
    18   11   12 2   
    19   12   14 1   
    20   12   29 1   
    21   13   14 2   
    22   13   15 1   
    23   14   18 1   
    24   15   16 1   
    25   15   30 1   
    26   16   17 2   
    27   16   20 1   
    28   17   18 1   
    29   18   19 2   
    30   20   21 1   
    31   20   31 1   
    32   20   32 1   
    33   21   22 1   
    34   21   23 1   
    35   21   33 1   
    36   22   34 1   
    37   22   35 1   
    38   22   36 1   
@<TRIPOS>SUBSTRUCTURE
     1 BYE         1 TEMP              0 ****  ****    0 ROOT
