@<TRIPOS>MOLECULE
BYE
   36    38     1     0     0
SMALL
bcc


@<TRIPOS>ATOM
      1 C2         -0.1080    0.3240   -0.0670 ca        1 BYE      0.032400
      2 C3          1.2830    0.4800   -0.0790 ca        1 BYE     -0.118000
      3 C4          2.0100    0.4160    1.1060 ca        1 BYE     -0.113000
      4 C5          1.3550    0.1890    2.3160 ca        1 BYE     -0.120000
      5 F5         -5.2210    6.2680    6.1290 f         1 BYE     -0.238967
      6 C6         -0.0240    0.0190    2.3490 ca        1 BYE     -0.139000
      7 F6         -3.0990    5.8600    5.9010 f         1 BYE     -0.238967
      8 C7         -0.7750    0.0890    1.1570 ca        1 BYE      0.011800
      9 F7         -4.3160    4.6000    7.1810 f         1 BYE     -0.238967
     10 N8         -2.1860   -0.0750    1.2070 na        1 BYE      0.136300
     11 N9         -2.8920   -0.9680    0.4610 nc        1 BYE     -0.483800
     12 C10        -4.1940   -0.8640    0.8060 cd        1 BYE      0.391200
     13 C11        -3.0460    0.6270    2.0740 cc        1 BYE      0.159300
     14 C12        -4.3670    0.1370    1.8310 cd        1 BYE     -0.377900
     15 N13        -2.7890    1.6140    3.0040 na        1 BYE     -0.718600
     16 C14        -3.9220    2.1330    3.6800 cc        1 BYE      0.675200
     17 N15        -5.1540    1.7250    3.5120 nd        1 BYE     -0.681100
     18 C16        -5.4860    0.6950    2.5740 c         1 BYE      0.745100
     19 O17        -6.6650    0.3390    2.4390 o         1 BYE     -0.527100
     20 C18        -3.6030    3.2070    4.7100 c3        1 BYE     -0.124700
     21 C19        -4.6490    4.3080    4.7570 c3        1 BYE     -0.083700
     22 C20        -4.6870    5.1230    3.4860 c3        1 BYE     -0.107100
     23 C21        -4.3240    5.2440    5.9680 c3        1 BYE      0.618900
     24 Cl1        -0.9520    0.4310   -1.5300 cl        1 BYE     -0.046400
     25 H1          1.8020    0.6550   -1.0350 ha        1 BYE      0.158000
     26 H2          3.1040    0.5410    1.0850 ha        1 BYE      0.147000
     27 H3          1.9320    0.1300    3.2520 ha        1 BYE      0.146000
     28 H4         -0.5240   -0.1910    3.3080 ha        1 BYE      0.149000
     29 H5         -4.9730   -1.4770    0.3460 h4        1 BYE      0.067100
     30 H6         -1.8800    1.9910    3.1300 hn        1 BYE      0.461800
     31 H7         -2.6020    3.6740    4.5070 hc        1 BYE      0.080200
     32 H8         -3.5500    2.7000    5.7140 hc        1 BYE      0.080200
     33 H9         -5.6670    3.8710    4.9630 hc        1 BYE      0.121700
     34 H10        -3.6920    5.5920    3.2880 hc        1 BYE      0.058367
     35 H11        -4.9600    4.4700    2.6230 hc        1 BYE      0.058367
     36 H12        -5.4500    5.9340    3.5750 hc        1 BYE      0.058367
@<TRIPOS>BOND
     1    1    2 ar  
     2    1    8 ar  
     3    1   24 1   
     4    2    3 ar  
     5    2   25 1   
     6    3    4 ar  
     7    3   26 1   
     8    4    6 ar  
     9    4   27 1   
    10    5   23 1   
    11    6    8 ar  
    12    6   28 1   
    13    7   23 1   
    14    8   10 1   
    15    9   23 1   
    16   10   11 1   
    17   10   13 1   
    18   11   12 2   
    19   12   14 1   
    20   12   29 1   
    21   13   14 2   
    22   13   15 1   
    23   14   18 1   
    24   15   16 1   
    25   15   30 1   
    26   16   17 2   
    27   16   20 1   
    28   17   18 1   
    29   18   19 2   
    30   20   21 1   
    31   20   31 1   
    32   20   32 1   
    33   21   22 1   
    34   21   23 1   
    35   21   33 1   
    36   22   34 1   
    37   22   35 1   
    38   22   36 1   
@<TRIPOS>SUBSTRUCTURE
     1 BYE         1 TEMP              0 ****  ****    0 ROOT
