@<TRIPOS>MOLECULE
BYE
   36    30     1     0     0
SMALL
bcc


@<TRIPOS>ATOM
      1 C2          3.4250   -2.3630    0.3250 c1        1 BYE     -0.073000
      2 C3          4.8100   -2.3390    0.2740 c1        1 BYE     -0.111750
      3 C4          5.4540   -1.9160   -0.8780 c1        1 BYE     -0.111750
      4 C5          4.7130   -1.5170   -1.9790 c1        1 BYE     -0.111750
      5 F5         -4.7800    3.1190    2.2320 f         1 BYE     -0.168000
      6 C6          3.3290   -1.5420   -1.9290 c1        1 BYE     -0.111750
      7 F6         -2.7440    3.3620    2.9910 f         1 BYE     -0.168000
      8 C7          2.6840   -1.9640   -0.7770 c1        1 BYE      0.057000
      9 F7         -3.6000    1.3610    2.7770 f         1 BYE     -0.168000
     10 N8          1.2740   -1.8310   -0.7340 n3        1 BYE     -0.106000
     11 N9          0.8780   -3.0720   -1.1710 n2        1 BYE     -0.065000
     12 C10        -0.4730   -3.1130   -1.1510 c1        1 BYE     -0.071000
     13 C11         0.1520   -1.1070   -0.4440 c1        1 BYE      0.116000
     14 C12        -0.9300   -1.8900   -0.6990 c1        1 BYE     -0.299000
     15 N13        -0.0310    0.2430    0.0780 n2        1 BYE     -0.276000
     16 C14        -1.3600    0.7570    0.2990 c1        1 BYE      0.147000
     17 N15        -2.4930   -0.0540    0.0200 n1        1 BYE     -0.244000
     18 C16        -2.3190   -1.3530   -0.4690 c1        1 BYE      0.345000
     19 O17        -3.2850   -2.0630   -0.6640 o         1 BYE     -0.292000
     20 C18        -1.5470    2.1450    0.8740 c2        1 BYE     -0.133000
     21 C19        -3.0150    2.5130    0.8380 c3        1 BYE     -0.132000
     22 C20        -3.1820    3.8560    0.1600 c3        1 BYE     -0.223000
     23 C21        -3.5500    2.5910    2.2500 c3        1 BYE      0.403000
     24 CL1         2.6150   -2.9360    1.7590 cl        1 BYE      0.004000
     25 H1          5.3320   -2.6190    1.0500 ha        1 BYE      0.153250
     26 H2          6.4290   -1.8980   -0.9130 ha        1 BYE      0.153250
     27 H3          5.1670   -1.2190   -2.7910 ha        1 BYE      0.153250
     28 H4          2.8070   -1.2610   -2.7050 ha        1 BYE      0.153250
     29 H5         -1.0280   -3.8730   -1.4110 DU        1 BYE      0.202000
     30 H6          0.6950    0.7640    0.2570 hn        1 BYE      0.268000
     31 H7         -1.0360    2.7900    0.3450 ha        1 BYE      0.135500
     32 H8         -1.2300    2.1600    1.8000 ha        1 BYE      0.135500
     33 H9         -3.5080    1.8330    0.3400 hc        1 BYE      0.135000
     34 H10        -4.1340    4.0870    0.1230 hc        1 BYE      0.101333
     35 H11        -2.6980    4.5400    0.6680 hc        1 BYE      0.101333
     36 H12        -2.8210    3.8090   -0.7500 hc        1 BYE      0.101333
@<TRIPOS>BOND
     1    1    8 1   
     2    1   24 1   
     3    2    3 1   
     4    2   25 1   
     5    3   26 1   
     6    4    6 1   
     7    4   27 1   
     8    5   23 1   
     9    6   28 1   
    10    7   23 1   
    11    8   10 1   
    12    9   23 1   
    13   10   11 1   
    14   10   13 1   
    15   11   12 1   
    16   12   14 1   
    17   13   14 1   
    18   15   16 1   
    19   15   30 1   
    20   16   17 1   
    21   18   19 1   
    22   20   21 1   
    23   20   31 1   
    24   20   32 1   
    25   21   22 1   
    26   21   23 1   
    27   21   33 1   
    28   22   34 1   
    29   22   35 1   
    30   22   36 1   
@<TRIPOS>SUBSTRUCTURE
     1 BYE         1 TEMP              0 ****  ****    0 ROOT
