@<TRIPOS>MOLECULE
BYE
   36    38     1     0     0
SMALL
bcc


@<TRIPOS>ATOM
      1 C2         -3.9250    0.7920    0.7370 ca        1 BYE      0.032400
      2 C3         -4.5270    2.0440    0.9160 ca        1 BYE     -0.118000
      3 C4         -4.1730    3.1190    0.1070 ca        1 BYE     -0.113000
      4 C5         -3.2170    2.9540   -0.8960 ca        1 BYE     -0.120000
      5 F5          6.0620    0.5820    0.8330 f         1 BYE     -0.238967
      6 C6         -2.6170    1.7160   -1.0980 ca        1 BYE     -0.139000
      7 F6          4.6280    2.2120    0.7590 f         1 BYE     -0.238967
      8 C7         -2.9600    0.6190   -0.2810 ca        1 BYE      0.011800
      9 F7          5.2950    1.2690   -1.0770 f         1 BYE     -0.238967
     10 N8         -2.3290   -0.6370   -0.4910 na        1 BYE      0.136300
     11 N9         -2.9850   -1.8130   -0.6860 nc        1 BYE     -0.483800
     12 C10        -2.0610   -2.7770   -0.8900 cd        1 BYE      0.391200
     13 C11        -0.9370   -0.8310   -0.5810 cc        1 BYE      0.159300
     14 C12        -0.7300   -2.2230   -0.8360 cd        1 BYE     -0.377900
     15 N13         0.1130    0.0560   -0.4580 na        1 BYE     -0.718600
     16 C14         1.4110   -0.5060   -0.5670 cc        1 BYE      0.675200
     17 N15         1.6690   -1.7670   -0.8070 nd        1 BYE     -0.681100
     18 C16         0.6250   -2.7350   -0.9610 c         1 BYE      0.745100
     19 O17         0.9110   -3.9200   -1.1830 o         1 BYE     -0.527100
     20 C18         2.5450    0.5000   -0.4430 c3        1 BYE     -0.124700
     21 C19         3.7440   -0.0540    0.3080 c3        1 BYE     -0.083700
     22 C20         3.4380   -0.3330    1.7600 c3        1 BYE     -0.107100
     23 C21         4.9100    0.9860    0.2100 c3        1 BYE      0.618900
     24 CL1        -4.3720   -0.4800    1.7600 cl        1 BYE     -0.046400
     25 H1         -5.2850    2.1730    1.7050 ha        1 BYE      0.158000
     26 H2         -4.6520    4.0980    0.2580 ha        1 BYE      0.147000
     27 H3         -2.9430    3.8030   -1.5410 ha        1 BYE      0.146000
     28 H4         -1.8870    1.5930   -1.9140 ha        1 BYE      0.149000
     29 H5         -2.3330   -3.8210   -1.0700 h4        1 BYE      0.067100
     30 H6         -0.0310    1.0100   -0.2250 hn        1 BYE      0.461800
     31 H7          2.8570    0.7810   -1.4870 hc        1 BYE      0.080200
     32 H8          2.1990    1.4340    0.0770 hc        1 BYE      0.080200
     33 H9          4.1190   -0.9920   -0.1920 hc        1 BYE      0.121700
     34 H10         4.3530   -0.7150    2.2760 hc        1 BYE      0.058367
     35 H11         3.0990    0.5970    2.2770 hc        1 BYE      0.058367
     36 H12         2.6360   -1.1070    1.8390 hc        1 BYE      0.058367
@<TRIPOS>BOND
     1    1    2 ar  
     2    1    8 ar  
     3    1   24 1   
     4    2    3 ar  
     5    2   25 1   
     6    3    4 ar  
     7    3   26 1   
     8    4    6 ar  
     9    4   27 1   
    10    5   23 1   
    11    6    8 ar  
    12    6   28 1   
    13    7   23 1   
    14    8   10 1   
    15    9   23 1   
    16   10   11 1   
    17   10   13 1   
    18   11   12 2   
    19   12   14 1   
    20   12   29 1   
    21   13   14 2   
    22   13   15 1   
    23   14   18 1   
    24   15   16 1   
    25   15   30 1   
    26   16   17 2   
    27   16   20 1   
    28   17   18 1   
    29   18   19 2   
    30   20   21 1   
    31   20   31 1   
    32   20   32 1   
    33   21   22 1   
    34   21   23 1   
    35   21   33 1   
    36   22   34 1   
    37   22   35 1   
    38   22   36 1   
@<TRIPOS>SUBSTRUCTURE
     1 BYE         1 TEMP              0 ****  ****    0 ROOT
