@<TRIPOS>MOLECULE
BYE
   36    38     1     0     0
SMALL
bcc


@<TRIPOS>ATOM
      1 C2         -0.1160    0.3330   -0.0770 ca        1 BYE      0.032400
      2 C3          1.2760    0.4870   -0.0900 ca        1 BYE     -0.118000
      3 C4          2.0040    0.4160    1.0930 ca        1 BYE     -0.113000
      4 C5          1.3510    0.1830    2.3030 ca        1 BYE     -0.120000
      5 F5         -5.2070    6.2610    6.1470 f         1 BYE     -0.238967
      6 C6         -0.0290    0.0150    2.3370 ca        1 BYE     -0.139000
      7 F6         -3.0860    5.8460    5.9200 f         1 BYE     -0.238967
      8 C7         -0.7820    0.0930    1.1460 ca        1 BYE      0.011800
      9 F7         -4.3090    4.5860    7.1940 f         1 BYE     -0.238967
     10 N8         -2.1930   -0.0690    1.1980 na        1 BYE      0.136300
     11 N9         -2.9010   -0.9560    0.4480 nc        1 BYE     -0.483800
     12 C10        -4.2020   -0.8520    0.7960 cd        1 BYE      0.391200
     13 C11        -3.0500    0.6310    2.0690 cc        1 BYE      0.159300
     14 C12        -4.3730    0.1440    1.8250 cd        1 BYE     -0.377900
     15 N13        -2.7900    1.6130    3.0040 na        1 BYE     -0.718600
     16 C14        -3.9210    2.1300    3.6840 cc        1 BYE      0.675200
     17 N15        -5.1550    1.7250    3.5160 nd        1 BYE     -0.681100
     18 C16        -5.4900    0.7000    2.5730 c         1 BYE      0.745100
     19 O17        -6.6700    0.3470    2.4380 o         1 BYE     -0.527100
     20 C18        -3.5990    3.1990    4.7190 c3        1 BYE     -0.124700
     21 C19        -4.6410    4.3030    4.7690 c3        1 BYE     -0.083700
     22 C20        -4.6740    5.1230    3.5010 c3        1 BYE     -0.107100
     23 C21        -4.3140    5.2340    5.9840 c3        1 BYE      0.618900
     24 CL1        -0.9620    0.4500   -1.5380 cl        1 BYE     -0.046400
     25 H1          1.7930    0.6660   -1.0470 ha        1 BYE      0.158000
     26 H2          3.0980    0.5390    1.0710 ha        1 BYE      0.147000
     27 H3          1.9290    0.1190    3.2380 ha        1 BYE      0.146000
     28 H4         -0.5280   -0.1990    3.2960 ha        1 BYE      0.149000
     29 H5         -4.9840   -1.4610    0.3340 h4        1 BYE      0.067100
     30 H6         -1.8800    1.9870    3.1310 hn        1 BYE      0.461800
     31 H7         -3.5500    2.6880    5.7210 hc        1 BYE      0.080200
     32 H8         -2.5960    3.6630    4.5190 hc        1 BYE      0.080200
     33 H9         -5.6610    3.8700    4.9720 hc        1 BYE      0.121700
     34 H10        -4.9490    4.4740    2.6350 hc        1 BYE      0.058367
     35 H11        -3.6780    5.5880    3.3050 hc        1 BYE      0.058367
     36 H12        -5.4350    5.9370    3.5920 hc        1 BYE      0.058367
@<TRIPOS>BOND
     1    1    2 ar  
     2    1    8 ar  
     3    1   24 1   
     4    2    3 ar  
     5    2   25 1   
     6    3    4 ar  
     7    3   26 1   
     8    4    6 ar  
     9    4   27 1   
    10    5   23 1   
    11    6    8 ar  
    12    6   28 1   
    13    7   23 1   
    14    8   10 1   
    15    9   23 1   
    16   10   11 1   
    17   10   13 1   
    18   11   12 2   
    19   12   14 1   
    20   12   29 1   
    21   13   14 2   
    22   13   15 1   
    23   14   18 1   
    24   15   16 1   
    25   15   30 1   
    26   16   17 2   
    27   16   20 1   
    28   17   18 1   
    29   18   19 2   
    30   20   21 1   
    31   20   31 1   
    32   20   32 1   
    33   21   22 1   
    34   21   23 1   
    35   21   33 1   
    36   22   34 1   
    37   22   35 1   
    38   22   36 1   
@<TRIPOS>SUBSTRUCTURE
     1 BYE         1 TEMP              0 ****  ****    0 ROOT
