@<TRIPOS>MOLECULE
BYH
   39    39     1     0     0
SMALL
bcc


@<TRIPOS>ATOM
      1 CAA         3.0590    1.9930   -3.0990 c2        1 BYH     -0.640000
      2 CAC         1.8230    7.7630   -8.6960 cu        1 BYH     -0.126000
      3 CAD         2.7500    6.8480   -8.4770 cu        1 BYH     -0.155000
      4 CAE         3.3170    0.2260    1.7440 c1        1 BYH      0.201000
      5 CAF         2.9950   -0.9290    1.1910 c2        1 BYH     -0.430000
      6 CAG         1.3060    6.4070   -8.3320 cx        1 BYH     -0.126000
      7 CAH         3.6750    6.1930   -7.5580 c3        1 BYH      0.028000
      8 CAI         4.2910    1.5850   -0.2540 c2        1 BYH     -0.147000
      9 CAJ         3.2210   -1.4250   -0.1360 c2        1 BYH     -0.044000
     10 CAK         4.9940    3.9180   -2.4500 c1        1 BYH     -1.333000
     11 NAM         0.1660    5.7520   -6.2370 n2        1 BYH     -0.270000
     12 NAN         3.0460    5.1910   -5.3640 n2        1 BYH      0.136000
     13 SAO         3.7040    3.9950   -2.8400 ss        1 BYH      1.576000
     14 CAP         3.3480    4.7010   -4.3300 c1        1 BYH     -0.537000
     15 CAQ         4.1720   -0.2100   -3.4420 c2        1 BYH     -0.105000
     16 CAR         1.2500    5.9370   -6.8960 c2        1 BYH      0.093000
     17 CAS         2.6750    5.7160   -6.4980 c2        1 BYH     -0.346000
     18 CAT         4.0290    0.7220   -1.2430 c2        1 BYH     -0.084000
     19 CAU         3.6760   -0.7090   -1.1890 c2        1 BYH     -0.072000
     20 NAV         4.1240    1.1100   -2.6750 n4        1 BYH      0.117000
     21 NAW         3.8380   -1.2660   -2.5190 n         1 BYH     -0.102000
     22 HAA         2.1370    1.8860   -2.5030 hx        1 BYH      0.126500
     23 HAAA        5.0200    1.6140   -2.8300 hn        1 BYH      0.271000
     24 HAAB        2.8850    1.9430   -4.1910 hx        1 BYH      0.126500
     25 HAD         4.4320    6.9000   -7.1330 hc        1 BYH      0.095500
     26 HAE         4.2980    1.3210    0.8280 ha        1 BYH      0.190000
     27 HAF         2.4600   -1.6390    1.8690 ha        1 BYH      0.205000
     28 HAG         0.7280    5.8060   -9.0470 hc        1 BYH      0.138000
     29 HAH         4.2100    5.3290   -8.0270 hc        1 BYH      0.095500
     30 HAI         4.5540    2.6430   -0.4580 ha        1 BYH      0.190000
     31 HAJ         2.9810   -2.5000   -0.2670 ha        1 BYH      0.153000
     32 HAK         6.0220    3.9290   -2.1930 ha        1 BYH      0.189000
     33 HAKA        2.9760   -4.8190   -0.4260 ha        1 BYH      0.001500
     34 HNAM        0.2770    5.3990   -5.3110 hn        1 BYH      0.128000
     35 SAB         4.5190   -0.2790   -4.9250 s         1 BYH      0.255000
     36 CAL         3.7200   -2.5120   -2.9270 c1        1 BYH     -0.063000
     37 HAC         1.5300    8.7460   -8.9990 ha        1 BYH      0.192000
     38 HAL         3.4610   -3.2600   -2.1480 ha        1 BYH      0.068000
     39 HALA        2.3430   -4.7170   -0.6440 ha        1 BYH      0.001500
@<TRIPOS>BOND
     1    1   20 1   
     2    1   22 1   
     3    1   24 1   
     4    2    3 1   
     5    2    6 1   
     6    2   37 1   
     7    3    6 1   
     8    3    7 1   
     9    4    5 1   
    10    5    9 1   
    11    5   27 1   
    12    6   16 1   
    13    6   28 1   
    14    7   17 1   
    15    7   25 1   
    16    7   29 1   
    17    8   18 1   
    18    8   26 1   
    19    8   30 1   
    20    9   19 1   
    21    9   31 1   
    22   10   13 1   
    23   10   32 1   
    24   11   16 1   
    25   11   34 1   
    26   12   14 1   
    27   12   17 1   
    28   13   14 1   
    29   15   20 1   
    30   15   21 1   
    31   15   35 1   
    32   16   17 1   
    33   18   19 1   
    34   18   20 1   
    35   19   21 1   
    36   20   23 1   
    37   21   36 1   
    38   33   39 1   
    39   36   38 1   
@<TRIPOS>SUBSTRUCTURE
     1 BYH         1 TEMP              0 ****  ****    0 ROOT
