@<TRIPOS>MOLECULE
BYH
   39    40     1     0     0
SMALL
bcc


@<TRIPOS>ATOM
      1 CAA         0.3980   -1.0690    0.4070 c3        1 BYH     -0.054000
      2 CAC         4.8270    7.2570   -8.7960 cu        1 BYH     -0.111000
      3 CAD         4.7680    7.2790   -7.4770 cu        1 BYH     -0.161000
      4 CAE         4.9090    0.3560    0.7790 c1        1 BYH      0.230000
      5 CAF         5.2710    0.4950   -0.4900 c2        1 BYH     -0.453000
      6 CAG         5.3030    6.0130   -8.1160 cx        1 BYH     -0.133000
      7 CAH         4.0200    7.0710   -6.2450 c3        1 BYH     -0.005000
      8 CAI         1.8960   -1.1060    0.3350 c2        1 BYH     -0.144000
      9 CAJ         4.3590    0.3440   -1.6010 c2        1 BYH     -0.046000
     10 CAK         2.8600    1.6210   -4.0100 c3        1 BYH     -0.558000
     11 NAM         4.1720    3.8100   -8.1270 n2        1 BYH     -0.216000
     12 NAN         2.8890    4.9860   -5.5540 n2        1 BYH      0.018000
     13 SAO         1.7990    2.5550   -5.0740 ss        1 BYH      1.052000
     14 CAP         2.4220    3.7940   -5.4330 c1        1 BYH     -0.751000
     15 CAQ         0.8570   -0.8970   -2.0030 c2        1 BYH      0.035000
     16 CAR         4.3370    4.9690   -7.6160 c2        1 BYH      0.024000
     17 CAS         3.6650    5.5770   -6.3950 c2        1 BYH     -0.133000
     18 CAT         2.4830    0.0740    0.0150 c2        1 BYH     -0.196000
     19 CAU         3.0460    0.1420   -1.3420 c2        1 BYH     -0.069000
     20 NAV        -0.0320   -0.5600   -0.9150 n         1 BYH     -0.263000
     21 NAW         1.9900    0.0110   -2.3230 n         1 BYH     -0.118000
     22 HAA        -0.0320   -2.0990    0.5380 h1        1 BYH      0.122000
     23 HAAA       -0.1840    0.4340   -0.8640 hn        1 BYH      0.177000
     24 HAAB       -0.0050   -0.4020    1.2140 h1        1 BYH      0.122000
     25 HAD         3.1010    7.7060   -6.1810 hc        1 BYH      0.116000
     26 HAE         2.3610   -2.0790    0.1170 ha        1 BYH      0.148000
     27 HAF         6.3200    0.7480   -0.7420 ha        1 BYH      0.194000
     28 HAG         6.3540    5.6960   -8.1720 hc        1 BYH      0.143000
     29 HAH         4.6410    7.2380   -5.3280 hc        1 BYH      0.116000
     30 HAI         2.1860    1.0340    0.4690 ha        1 BYH      0.151000
     31 HAJ         4.7720    0.4040   -2.6190 ha        1 BYH      0.150000
     32 HAK         3.4220    2.2400   -3.2670 h1        1 BYH      0.132000
     33 HAKA        5.5920    3.2180   -2.5100 ha        1 BYH      0.000500
     34 HNAM        3.5130    3.2200   -7.6600 hn        1 BYH      0.137000
     35 SAB         0.6090   -2.1400   -2.9010 s         1 BYH      0.128000
     36 CAL         1.8900    0.6700   -3.4560 c1        1 BYH     -0.117000
     37 HAC         4.7290    7.7360   -9.7480 ha        1 BYH      0.198000
     38 HAL         5.5230    2.6260   -2.1870 ha        1 BYH      0.000500
     39 HALA        3.6210    1.0630   -4.6150 h1        1 BYH      0.132000
@<TRIPOS>BOND
     1    1    8 1   
     2    1   20 1   
     3    1   22 1   
     4    1   24 1   
     5    2    3 1   
     6    2    6 1   
     7    2   37 1   
     8    3    6 1   
     9    3    7 1   
    10    4    5 1   
    11    5    9 1   
    12    5   27 1   
    13    6   16 1   
    14    6   28 1   
    15    7   17 1   
    16    7   25 1   
    17    7   29 1   
    18    8   18 1   
    19    8   26 1   
    20    9   19 1   
    21    9   31 1   
    22   10   13 1   
    23   10   32 1   
    24   10   36 1   
    25   10   39 1   
    26   11   16 1   
    27   11   34 1   
    28   12   14 1   
    29   12   17 1   
    30   13   14 1   
    31   15   20 1   
    32   15   21 1   
    33   15   35 1   
    34   16   17 1   
    35   18   19 1   
    36   18   30 1   
    37   19   21 1   
    38   20   23 1   
    39   21   36 1   
    40   33   38 1   
@<TRIPOS>SUBSTRUCTURE
     1 BYH         1 TEMP              0 ****  ****    0 ROOT
