@<TRIPOS>MOLECULE
BYH
   39    34     1     0     0
SMALL
bcc


@<TRIPOS>ATOM
      1 CAA         0.9600    0.0070    5.6790 c3        1 BYH     -0.074000
      2 SAB         2.8640    0.6560    3.1240 s         1 BYH     -0.251000
      3 CAC        -0.9410    2.9480   -6.4970 c1        1 BYH     -0.128750
      4 CAD        -0.4340    1.7420   -6.9720 c1        1 BYH     -0.128750
      5 CAE        -2.2840   -2.8830    4.1370 c1        1 BYH     -0.128750
      6 CAF        -2.1380   -3.2040    2.7840 c1        1 BYH     -0.128750
      7 CAG        -0.8260    3.2680   -5.1500 c1        1 BYH     -0.103500
      8 CAH         0.1870    0.8580   -6.0970 c1        1 BYH     -0.103500
      9 CAI        -1.3930   -2.0000    4.7440 c1        1 BYH     -0.123000
     10 CAJ        -1.1050   -2.6420    2.0430 c1        1 BYH     -0.116000
     11 CAK         0.9160    0.1400    0.0500 c3        1 BYH     -0.317000
     12 CAL         1.4070   -1.0730    0.8040 c3        1 BYH     -0.012000
     13 NAM         0.1070    2.4590   -2.9390 n2        1 BYH     -0.196500
     14 NAN         0.9090    0.5520   -3.6840 n2        1 BYH     -0.196500
     15 SAO         1.6670    0.1850   -1.5490 ss        1 BYH      0.297000
     16 CAP         0.7880    1.3370   -2.5840 c2        1 BYH     -0.152000
     17 CAQ         1.4600   -0.2590    3.1940 c1        1 BYH      0.107000
     18 CAR        -0.1930    2.3670   -4.2590 c1        1 BYH     -0.043000
     19 CAS         0.3030    1.1870   -4.7220 c1        1 BYH     -0.043000
     20 CAT        -0.3560   -1.4350    4.0010 c1        1 BYH     -0.001000
     21 CAU        -0.2110   -1.7560    2.6500 c1        1 BYH     -0.003000
     22 NAV         0.6830   -0.4980    4.3500 n2        1 BYH     -0.205000
     23 NAW         0.9200   -1.0280    2.1380 n3        1 BYH     -0.204000
     24 HAA         1.8370    0.4410    5.6870 h1        1 BYH      0.103667
     25 HAAA        0.9560   -0.7410    6.3230 h1        1 BYH      0.103667
     26 HAAB        0.2660    0.6640    5.9330 h1        1 BYH      0.103667
     27 HAC        -1.3800    3.5740   -7.1140 ha        1 BYH      0.136000
     28 HAD        -0.5140    1.5170   -7.9200 ha        1 BYH      0.136000
     29 HAE        -3.0070   -3.2770    4.6550 ha        1 BYH      0.136000
     30 HAF        -2.7620   -3.8220    2.3590 ha        1 BYH      0.136000
     31 HAG        -1.1840    4.1220   -4.8150 ha        1 BYH      0.140500
     32 HAH         0.5460    0.0040   -6.4320 ha        1 BYH      0.140500
     33 HAI        -1.4950   -1.7760    5.6880 ha        1 BYH      0.143000
     34 HAJ        -1.0040   -2.8670    1.0960 ha        1 BYH      0.165000
     35 HAK        -0.0510    0.0920   -0.0470 h1        1 BYH      0.141500
     36 HAKA        1.1540    0.9490    0.5440 h1        1 BYH      0.141500
     37 HAL         2.3820   -1.0760    0.8150 h1        1 BYH      0.132500
     38 HALA        1.0800   -1.8890    0.3620 h1        1 BYH      0.132500
     39 HNAM       -0.1130    3.1600   -2.3790 DU        1 BYH      0.264000
@<TRIPOS>BOND
     1    1   22 1   
     2    1   24 1   
     3    1   25 1   
     4    1   26 1   
     5    2   17 1   
     6    3    4 1   
     7    3   27 1   
     8    4   28 1   
     9    5    6 1   
    10    5   29 1   
    11    6   30 1   
    12    7   18 1   
    13    7   31 1   
    14    8   19 1   
    15    8   32 1   
    16    9   20 1   
    17    9   33 1   
    18   10   21 1   
    19   10   34 1   
    20   11   12 1   
    21   11   15 1   
    22   11   35 1   
    23   11   36 1   
    24   12   23 1   
    25   12   37 1   
    26   12   38 1   
    27   13   16 1   
    28   13   18 1   
    29   14   16 1   
    30   14   19 1   
    31   15   16 1   
    32   17   23 1   
    33   20   22 1   
    34   21   23 1   
@<TRIPOS>SUBSTRUCTURE
     1 BYH         1 TEMP              0 ****  ****    0 ROOT
