@<TRIPOS>MOLECULE
BYH
   39    42     1     0     0
SMALL
bcc


@<TRIPOS>ATOM
      1 CAA         5.3340    1.2620   -1.6050 c3        1 BYH      0.081300
      2 CAC        -6.8360   -0.9240   -0.7880 ca        1 BYH     -0.113000
      3 CAD        -6.0310   -1.5780   -1.7380 ca        1 BYH     -0.151000
      4 CAE         4.3790   -2.9900   -0.2940 ca        1 BYH     -0.124000
      5 CAF         3.2520   -3.0730    0.5280 ca        1 BYH     -0.125000
      6 CAG        -6.2890   -0.1490    0.2240 ca        1 BYH     -0.134000
      7 CAH        -4.6470   -1.4840   -1.7160 ca        1 BYH     -0.072000
      8 CAI         4.8300   -1.7690   -0.7980 ca        1 BYH     -0.121000
      9 CAJ         2.5210   -1.9390    0.8870 ca        1 BYH     -0.118000
     10 CAK        -0.0070    0.5330    0.4430 c3        1 BYH     -0.051300
     11 NAM        -4.0230    0.6360    1.1250 na        1 BYH     -0.266300
     12 NAN        -2.7020   -0.4290   -0.4300 nc        1 BYH     -0.582100
     13 SAO        -1.3690    1.0350    1.4580 ss        1 BYH     -0.130300
     14 CAP        -2.7150    0.3740    0.6590 cd        1 BYH      0.402700
     15 CAQ         3.2800    1.5020   -0.1680 c         1 BYH      0.521400
     16 CAR        -4.8940   -0.0390    0.2650 ca        1 BYH     -0.068200
     17 CAS        -4.0510   -0.7100   -0.7110 ca        1 BYH      0.076400
     18 CAT         4.1170   -0.6230   -0.4540 ca        1 BYH     -0.004400
     19 CAU         2.9520   -0.7080    0.4000 ca        1 BYH     -0.009400
     20 NAV         4.2920    0.7350   -0.7840 n         1 BYH     -0.302000
     21 NAW         2.4790    0.6070    0.5880 n         1 BYH     -0.300000
     22 HAA         5.2050    2.3770   -1.6930 h1        1 BYH      0.065033
     23 HAAA        6.3330    1.0330   -1.1440 h1        1 BYH      0.065033
     24 HAAB        5.2850    0.7940   -2.6250 h1        1 BYH      0.065033
     25 HAD        -6.5180   -2.1800   -2.5200 ha        1 BYH      0.133000
     26 HAE         4.9270   -3.9090   -0.5530 ha        1 BYH      0.139000
     27 HAF         2.9280   -4.0560    0.9020 ha        1 BYH      0.140000
     28 HAG        -6.9240    0.3590    0.9620 ha        1 BYH      0.136000
     29 HAH        -4.0260   -1.9990   -2.4630 ha        1 BYH      0.147000
     30 HAI         5.7180   -1.7130   -1.4430 ha        1 BYH      0.145000
     31 HAJ         1.6350   -2.0170    1.5320 ha        1 BYH      0.147000
     32 HAK        -0.0600    1.0260   -0.5580 h1        1 BYH      0.097200
     33 HAKA       -0.0150   -0.5720    0.2770 h1        1 BYH      0.097200
     34 HNAM       -4.2690    1.2210    1.8770 hn        1 BYH      0.312700
     35 SAB         3.0940    3.0800   -0.2630 s         1 BYH     -0.514400
     36 CAL         1.2380    0.9670    1.2110 c3        1 BYH      0.101000
     37 HAC        -7.9290   -1.0320   -0.8530 ha        1 BYH      0.133000
     38 HAL         1.2360    2.0950    1.3270 h1        1 BYH      0.091200
     39 HALA        1.2250    0.4890    2.2350 h1        1 BYH      0.091200
@<TRIPOS>BOND
     1    1   20 1   
     2    1   22 1   
     3    1   23 1   
     4    1   24 1   
     5    2    3 ar  
     6    2    6 ar  
     7    2   37 1   
     8    3    7 ar  
     9    3   25 1   
    10    4    5 ar  
    11    4    8 ar  
    12    4   26 1   
    13    5    9 ar  
    14    5   27 1   
    15    6   16 ar  
    16    6   28 1   
    17    7   17 ar  
    18    7   29 1   
    19    8   18 ar  
    20    8   30 1   
    21    9   19 ar  
    22    9   31 1   
    23   10   13 1   
    24   10   32 1   
    25   10   33 1   
    26   10   36 1   
    27   11   14 1   
    28   11   16 1   
    29   11   34 1   
    30   12   14 2   
    31   12   17 1   
    32   13   14 1   
    33   15   20 1   
    34   15   21 1   
    35   15   35 2   
    36   16   17 ar  
    37   18   19 ar  
    38   18   20 1   
    39   19   21 1   
    40   21   36 1   
    41   36   38 1   
    42   36   39 1   
@<TRIPOS>SUBSTRUCTURE
     1 BYH         1 TEMP              0 ****  ****    0 ROOT
