@<TRIPOS>MOLECULE
BYM
   24    26     1     0     0
SMALL
bcc


@<TRIPOS>ATOM
      1 C1         -0.2490   -0.2380   -0.2540 c2        1 BYM      0.398000
      2 C3          1.4850   -0.4120    1.4020 c2        1 BYM      0.197000
      3 C8         -3.5120    0.8240    4.9810 c3        1 BYM      0.038000
      4 C9         -2.9650   -0.2510    5.8890 c2        1 BYM     -0.013000
      5 C11        -3.3360    0.6200    3.5440 c1        1 BYM     -0.009000
      6 C13        -1.7130   -0.6200    6.1490 c2        1 BYM     -0.221000
      7 C14        -5.2480   -0.2320    6.1400 c3        1 BYM      0.486000
      8 C15        -2.0890    0.5980    2.8970 c2        1 BYM     -0.336000
      9 C16        -0.8440    0.7360    3.4670 c1        1 BYM     -0.112000
     10 N2          1.0510   -0.7120    0.1230 ns        1 BYM     -0.384000
     11 S4          0.3250    0.8980    2.0590 s4        1 BYM      0.700000
     12 C5         -0.8560    0.4100    0.9030 c2        1 BYM     -0.582000
     13 O6          2.4860   -0.8250    1.9740 o         1 BYM     -0.219000
     14 O7         -0.6980   -0.4460   -1.3790 o         1 BYM     -0.250000
     15 O10        -4.9390    0.8340    5.2820 os        1 BYM     -0.277000
     16 O12        -4.0450   -0.8750    6.5310 os        1 BYM     -0.246000
     17 C18        -2.1000    0.3580    1.4430 c2        1 BYM      0.146000
     18 F19        -6.0500   -1.1300    5.5320 f         1 BYM     -0.130000
     19 H11        -3.1570    1.8550    5.2840 h1        1 BYM      0.158000
     20 H13        -0.8650   -0.1290    5.6480 ha        1 BYM      0.152500
     21 H16        -1.4790   -1.4190    6.8630 ha        1 BYM      0.152500
     22 HN2         1.5800   -1.3030   -0.4800 hn        1 BYM      0.276000
     23 H18        -3.0400    0.1210    0.9250 ha        1 BYM      0.203000
     24 F17        -5.8700    0.2410    7.2420 f         1 BYM     -0.130000
@<TRIPOS>BOND
     1    1   10 1   
     2    1   12 1   
     3    1   14 1   
     4    2   10 1   
     5    2   11 1   
     6    2   13 1   
     7    3    4 1   
     8    3    5 1   
     9    3   15 1   
    10    3   19 1   
    11    4    6 1   
    12    4   16 1   
    13    5    8 1   
    14    6   20 1   
    15    6   21 1   
    16    7   15 1   
    17    7   16 1   
    18    7   18 1   
    19    7   24 1   
    20    8    9 1   
    21    8   17 1   
    22    9   11 1   
    23   10   22 1   
    24   11   12 1   
    25   12   17 1   
    26   17   23 1   
@<TRIPOS>SUBSTRUCTURE
     1 BYM         1 TEMP              0 ****  ****    0 ROOT
