@<TRIPOS>MOLECULE
BYM
   24    26     1     0     0
SMALL
bcc


@<TRIPOS>ATOM
      1 C1         -0.2490   -0.2520   -0.2550 c2        1 BYM      0.398000
      2 C3          1.4810   -0.4680    1.4010 c2        1 BYM      0.197000
      3 C8         -3.4910    0.8560    4.9820 c3        1 BYM      0.038000
      4 C9         -2.9670   -0.2340    5.8870 c2        1 BYM     -0.013000
      5 C11        -3.3190    0.6540    3.5440 c1        1 BYM     -0.009000
      6 C13        -1.7240   -0.6290    6.1450 c2        1 BYM     -0.221000
      7 C14        -5.2500   -0.1690    6.1370 c3        1 BYM      0.486000
      8 C15        -2.0720    0.6090    2.8980 c2        1 BYM     -0.336000
      9 C16        -0.8250    0.7190    3.4690 c1        1 BYM     -0.112000
     10 N2          1.0420   -0.7540    0.1200 n         1 BYM     -0.384000
     11 S4          0.3470    0.8630    2.0630 s4        1 BYM      0.700000
     12 C5         -0.8430    0.4040    0.9040 c2        1 BYM     -0.582000
     13 O6          2.4730   -0.9040    1.9710 o         1 BYM     -0.219000
     14 O7         -0.7010   -0.4450   -1.3810 o         1 BYM     -0.250000
     15 O10        -4.9190    0.8940    5.2830 os        1 BYM     -0.277000
     16 O12        -4.0600   -0.8380    6.5250 os        1 BYM     -0.246000
     17 C18        -2.0880    0.3760    1.4430 c2        1 BYM      0.146000
     18 F19        -6.0700   -1.0470    5.5240 f         1 BYM     -0.130000
     19 H11        -3.1160    1.8780    5.2900 h1        1 BYM      0.158000
     20 H13        -0.8650   -0.1550    5.6460 ha        1 BYM      0.152500
     21 H16        -1.5060   -1.4370    6.8560 ha        1 BYM      0.152500
     22 HN2         1.5580   -1.3530   -0.4850 hn        1 BYM      0.276000
     23 H18        -3.0320    0.1600    0.9230 ha        1 BYM      0.203000
     24 F17        -5.8620    0.3130    7.2400 f         1 BYM     -0.130000
@<TRIPOS>BOND
     1    1   10 1   
     2    1   12 1   
     3    1   14 1   
     4    2   10 1   
     5    2   11 1   
     6    2   13 1   
     7    3    4 1   
     8    3    5 1   
     9    3   15 1   
    10    3   19 1   
    11    4    6 1   
    12    4   16 1   
    13    5    8 1   
    14    6   20 1   
    15    6   21 1   
    16    7   15 1   
    17    7   16 1   
    18    7   18 1   
    19    7   24 1   
    20    8    9 1   
    21    8   17 1   
    22    9   11 1   
    23   10   22 1   
    24   11   12 1   
    25   12   17 1   
    26   17   23 1   
@<TRIPOS>SUBSTRUCTURE
     1 BYM         1 TEMP              0 ****  ****    0 ROOT
