@<TRIPOS>MOLECULE
BYM
   24    26     1     0     0
SMALL
bcc


@<TRIPOS>ATOM
      1 C1         -0.2720   -0.2400   -0.2660 c2        1 BYM      0.398000
      2 C3          1.4720   -0.4290    1.3780 c2        1 BYM      0.197000
      3 C8         -3.4930    0.8390    4.9910 c3        1 BYM      0.038000
      4 C9         -2.9470   -0.2400    5.8940 c2        1 BYM     -0.013000
      5 C11        -3.3270    0.6360    3.5520 c1        1 BYM     -0.009000
      6 C13        -1.6970   -0.6180    6.1460 c2        1 BYM     -0.221000
      7 C14        -5.2290   -0.2050    6.1600 c3        1 BYM      0.486000
      8 C15        -2.0850    0.6060    2.8980 c2        1 BYM     -0.336000
      9 C16        -0.8350    0.7330    3.4600 c1        1 BYM     -0.112000
     10 N2          1.0280   -0.7250    0.1020 n         1 BYM     -0.384000
     11 S4          0.3260    0.8890    2.0450 s4        1 BYM      0.700000
     12 C5         -0.8660    0.4110    0.8950 c2        1 BYM     -0.582000
     13 O6          2.4740   -0.8510    1.9430 o         1 BYM     -0.219000
     14 O7         -0.7300   -0.4430   -1.3890 o         1 BYM     -0.250000
     15 O10        -4.9180    0.8590    5.3010 os        1 BYM     -0.277000
     16 O12        -4.0280   -0.8580    6.5420 os        1 BYM     -0.246000
     17 C18        -2.1070    0.3680    1.4430 c2        1 BYM      0.146000
     18 F19        -6.0410   -1.0970    5.5560 f         1 BYM     -0.130000
     19 H11        -3.1290    1.8680    5.2920 h1        1 BYM      0.158000
     20 H13        -0.8490   -0.1330    5.6390 ha        1 BYM      0.152500
     21 H16        -1.4640   -1.4200    6.8570 ha        1 BYM      0.152500
     22 HN2         1.5480   -1.3190   -0.5060 hn        1 BYM      0.276000
     23 H18        -3.0520    0.1380    0.9310 ha        1 BYM      0.203000
     24 F17        -5.8400    0.2720    7.2660 f         1 BYM     -0.130000
@<TRIPOS>BOND
     1    1   10 1   
     2    1   12 1   
     3    1   14 1   
     4    2   10 1   
     5    2   11 1   
     6    2   13 1   
     7    3    4 1   
     8    3    5 1   
     9    3   15 1   
    10    3   19 1   
    11    4    6 1   
    12    4   16 1   
    13    5    8 1   
    14    6   20 1   
    15    6   21 1   
    16    7   15 1   
    17    7   16 1   
    18    7   18 1   
    19    7   24 1   
    20    8    9 1   
    21    8   17 1   
    22    9   11 1   
    23   10   22 1   
    24   11   12 1   
    25   12   17 1   
    26   17   23 1   
@<TRIPOS>SUBSTRUCTURE
     1 BYM         1 TEMP              0 ****  ****    0 ROOT
