@<TRIPOS>MOLECULE
BYM
   24    21     1     0     0
SMALL
bcc


@<TRIPOS>ATOM
      1 C1          1.4420    0.5400   -3.5800 c1        1 BYM      0.345000
      2 C3          3.3340    1.3910   -2.1030 c1        1 BYM      0.187000
      3 C8         -1.6570    0.2010    1.6860 c1        1 BYM      0.016500
      4 C9         -1.1850   -0.8920    2.3900 c1        1 BYM      0.016500
      5 C11        -1.2840    0.3850    0.3470 c1        1 BYM     -0.086000
      6 C13        -0.3340   -1.8140    1.7650 c1        1 BYM     -0.086000
      7 C14        -2.5720    0.2820    3.7800 c3        1 BYM      0.484000
      8 C15        -0.4400   -0.5290   -0.2720 c1        1 BYM     -0.072000
      9 C16         0.0350   -1.6310    0.4380 c1        1 BYM     -0.093000
     10 N2          2.9400    1.1720   -3.5490 n1        1 BYM     -0.391000
     11 S4          2.1510    0.7880   -1.1650 ss        1 BYM      0.311000
     12 C5          0.9980    0.2730   -2.1230 c2        1 BYM     -0.357000
     13 O6          4.3770    1.8780   -1.7130 o         1 BYM     -0.270000
     14 O7          0.8030    0.2730   -4.5790 o         1 BYM     -0.295000
     15 O10        -2.4740    0.9710    2.5640 os        1 BYM     -0.211000
     16 O12        -1.7670   -0.8620    3.6920 os        1 BYM     -0.211000
     17 F17        -2.1170    1.0650    4.7670 f         1 BYM     -0.112000
     18 C18        -0.1160   -0.3820   -1.7420 c2        1 BYM      0.003000
     19 F19        -3.8440   -0.0890    3.9740 f         1 BYM     -0.112000
     20 H11        -1.6170    1.1560   -0.1500 ha        1 BYM      0.169500
     21 H13        -0.0010   -2.5850    2.2620 ha        1 BYM      0.169500
     22 H16         0.6270   -2.2730    0.0030 ha        1 BYM      0.156000
     23 HN2         3.4300    1.4190   -4.2790 hn        1 BYM      0.272000
     24 H18        -0.7270   -0.7370   -2.4140 ha        1 BYM      0.166000
@<TRIPOS>BOND
     1    1   12 1   
     2    1   14 1   
     3    2   11 1   
     4    2   13 1   
     5    3    5 1   
     6    3   15 1   
     7    4    6 1   
     8    4   16 1   
     9    5   20 1   
    10    6   21 1   
    11    7   15 1   
    12    7   16 1   
    13    7   17 1   
    14    7   19 1   
    15    8    9 1   
    16    8   18 1   
    17    9   22 1   
    18   10   23 1   
    19   11   12 1   
    20   12   18 1   
    21   18   24 1   
@<TRIPOS>SUBSTRUCTURE
     1 BYM         1 TEMP              0 ****  ****    0 ROOT
