@<TRIPOS>MOLECULE
BYM
   24    26     1     0     0
SMALL
bcc


@<TRIPOS>ATOM
      1 C1          3.7740    1.3350    0.0570 c         1 BYM      0.706700
      2 C3          4.6790   -0.8550    0.0300 c         1 BYM      0.712100
      3 C8         -2.3250    0.6370    0.0840 ca        1 BYM      0.047100
      4 C9         -2.4680   -0.7130   -0.3400 ca        1 BYM      0.076100
      5 C11        -1.1000    1.2550    0.1690 ca        1 BYM     -0.071000
      6 C13        -1.3800   -1.4830   -0.6920 ca        1 BYM     -0.101000
      7 C14        -4.5300    0.1110    0.1160 c3        1 BYM      0.770200
      8 C15         0.0300    0.4680   -0.1810 ca        1 BYM     -0.083800
      9 C16        -0.1230   -0.8590   -0.6010 ca        1 BYM     -0.093000
     10 N2          4.9210    0.5220    0.1000 n         1 BYM     -0.611500
     11 S4          2.9300   -1.1500   -0.1030 ss        1 BYM     -0.112200
     12 C5          2.5310    0.5110   -0.0550 cc        1 BYM     -0.135600
     13 O6          5.5700   -1.7060    0.0550 o         1 BYM     -0.545500
     14 O7          3.8290    2.5690    0.1100 o         1 BYM     -0.570500
     15 O10        -3.5890    1.1630    0.3690 os        1 BYM     -0.327900
     16 O12        -3.8200   -1.0570   -0.3270 os        1 BYM     -0.327900
     17 C18         1.3270    1.1080   -0.0880 cf        1 BYM      0.014800
     18 F19        -5.3880    0.4990   -0.8440 f         1 BYM     -0.183300
     19 H11        -0.9960    2.2990    0.4950 ha        1 BYM      0.169000
     20 H13        -1.4830   -2.5250   -1.0240 ha        1 BYM      0.170000
     21 H16         0.7610   -1.4520   -0.8970 ha        1 BYM      0.156000
     22 HN2         5.8350    0.9030    0.1790 hn        1 BYM      0.358500
     23 H18         1.3040    2.2180   -0.0250 ha        1 BYM      0.166000
     24 F17        -5.1960   -0.1770    1.2480 f         1 BYM     -0.183300
@<TRIPOS>BOND
     1    1   10 1   
     2    1   12 1   
     3    1   14 2   
     4    2   10 1   
     5    2   11 1   
     6    2   13 2   
     7    3    4 ar  
     8    3    5 ar  
     9    3   15 1   
    10    4    6 ar  
    11    4   16 1   
    12    5    8 ar  
    13    5   19 1   
    14    6    9 ar  
    15    6   20 1   
    16    7   15 1   
    17    7   16 1   
    18    7   18 1   
    19    7   24 1   
    20    8    9 ar  
    21    8   17 1   
    22    9   21 1   
    23   10   22 1   
    24   11   12 1   
    25   12   17 2   
    26   17   23 1   
@<TRIPOS>SUBSTRUCTURE
     1 BYM         1 TEMP              0 ****  ****    0 ROOT
