@<TRIPOS>MOLECULE
BYP
   53    55     1     0     0
SMALL
bcc


@<TRIPOS>ATOM
      1 C22         0.3630    1.2940    5.7750 c3        1 BYP      0.094400
      2 N1         -0.9090   -1.1160   -0.9880 nb        1 BYP     -0.758000
      3 C2         -1.7380   -1.3600   -2.0060 ca        1 BYP      0.515200
      4 C6          0.3550   -0.6450   -1.3320 ca        1 BYP      0.911900
      5 C4         -0.0980   -0.6520   -3.6380 ca        1 BYP      0.749200
      6 C3         -1.4120   -1.1670   -3.3610 ca        1 BYP     -0.390500
      7 N5          0.7810   -0.3900   -2.6240 nb        1 BYP     -0.805000
      8 C11         4.0850    0.7510   -6.3290 ca        1 BYP     -0.140000
      9 C10         3.4170   -0.3300   -6.9030 ca        1 BYP     -0.116000
     10 C9          2.1670   -0.7180   -6.4330 ca        1 BYP     -0.138500
     11 C8          1.5570   -0.0130   -5.3700 ca        1 BYP      0.138600
     12 C12         3.4900    1.4510   -5.2820 ca        1 BYP     -0.116000
     13 C17         0.0180   -1.1570    3.0970 ca        1 BYP     -0.170500
     14 C16         0.3030   -1.3150    1.7490 ca        1 BYP     -0.097500
     15 C13         2.2350    1.0850   -4.8020 ca        1 BYP     -0.138500
     16 C15         0.9600   -0.2910    1.0320 ca        1 BYP      0.091600
     17 C18         0.3950    0.0260    3.7590 ca        1 BYP      0.122100
     18 C19         1.0530    1.0470    3.0660 ca        1 BYP     -0.170500
     19 C20         1.3270    0.8900    1.7100 ca        1 BYP     -0.097500
     20 O21         0.0750    0.0650    5.1030 os        1 BYP     -0.329900
     21 N7          0.2550   -0.3740   -4.9570 nh        1 BYP     -0.730300
     22 BR         -2.6540   -1.5630   -4.6820 br        1 BYP     -0.066100
     23 C23        -0.1990    1.1390    7.1980 c3        1 BYP      0.140100
     24 C24         0.6360    0.1050    7.9670 c3        1 BYP      0.134800
     25 N25         0.3790    0.0460    9.3980 n3        1 BYP     -0.739600
     26 C26        -1.0240    0.0010    9.7420 c3        1 BYP      0.152100
     27 C27         1.1520   -0.9970   10.0370 c3        1 BYP      0.152100
     28 O28        -0.2370    2.4180    7.8010 oh        1 BYP     -0.588800
     29 H221       -0.1470    2.1490    5.2600 h1        1 BYP      0.049200
     30 H222        1.4710    1.4650    5.7920 h1        1 BYP      0.049200
     31 H2         -2.7390   -1.7370   -1.7150 h4        1 BYP      0.039100
     32 H10         3.8810   -0.8860   -7.7320 ha        1 BYP      0.134000
     33 H9          1.6590   -1.5760   -6.8980 ha        1 BYP      0.141500
     34 H12         4.0120    2.3070   -4.8270 ha        1 BYP      0.134000
     35 H17        -0.4990   -1.9480    3.6590 ha        1 BYP      0.146500
     36 H16         0.0070   -2.2480    1.2440 ha        1 BYP      0.146000
     37 H13         1.7820    1.6590   -3.9800 ha        1 BYP      0.141500
     38 H19         1.3550    1.9750    3.5710 ha        1 BYP      0.146500
     39 H20         1.8410    1.7040    1.1770 ha        1 BYP      0.146000
     40 H7         -0.2960   -0.8380   -5.6500 hn        1 BYP      0.446800
     41 H23        -1.2760    0.8150    7.1380 h1        1 BYP      0.086700
     42 H241        1.7280    0.3660    7.8490 h1        1 BYP      0.045700
     43 H242        0.4660   -0.8890    7.4580 h1        1 BYP      0.045700
     44 H261       -1.1270   -0.0860   10.8550 h1        1 BYP      0.034867
     45 H262       -1.5010    0.9630    9.4130 h1        1 BYP      0.034867
     46 H263       -1.5720   -0.8580    9.2660 h1        1 BYP      0.034867
     47 H271        2.2380   -0.8460    9.7990 h1        1 BYP      0.034867
     48 H272        1.0130   -0.9190   11.1460 h1        1 BYP      0.034867
     49 H273        0.8580   -2.0320    9.7100 h1        1 BYP      0.034867
     50 H28         0.6180    2.5720    8.2220 ho        1 BYP      0.412000
     51 N14         1.3230   -0.4660   -0.3260 nh        1 BYP     -0.702300
     52 H11         5.0760    1.0490   -6.7020 ha        1 BYP      0.134000
     53 H14         2.1320    0.0530   -0.6060 hn        1 BYP      0.440800
@<TRIPOS>BOND
     1    1   20 1   
     2    1   23 1   
     3    1   29 1   
     4    1   30 1   
     5    2    3 ar  
     6    2    4 ar  
     7    3    6 ar  
     8    3   31 1   
     9    4    7 ar  
    10    4   51 1   
    11    5    6 ar  
    12    5    7 ar  
    13    5   21 1   
    14    6   22 1   
    15    8    9 ar  
    16    8   12 ar  
    17    8   52 1   
    18    9   10 ar  
    19    9   32 1   
    20   10   11 ar  
    21   10   33 1   
    22   11   15 ar  
    23   11   21 1   
    24   12   15 ar  
    25   12   34 1   
    26   13   14 ar  
    27   13   17 ar  
    28   13   35 1   
    29   14   16 ar  
    30   14   36 1   
    31   15   37 1   
    32   16   19 ar  
    33   16   51 1   
    34   17   18 ar  
    35   17   20 1   
    36   18   19 ar  
    37   18   38 1   
    38   19   39 1   
    39   21   40 1   
    40   23   24 1   
    41   23   28 1   
    42   23   41 1   
    43   24   25 1   
    44   24   42 1   
    45   24   43 1   
    46   25   26 1   
    47   25   27 1   
    48   26   44 1   
    49   26   45 1   
    50   26   46 1   
    51   27   47 1   
    52   27   48 1   
    53   27   49 1   
    54   28   50 1   
    55   51   53 1   
@<TRIPOS>SUBSTRUCTURE
     1 BYP         1 TEMP              0 ****  ****    0 ROOT
