@<TRIPOS>MOLECULE
BYP
   54    54     1     0     0
SMALL
bcc


@<TRIPOS>ATOM
      1 C22         1.1500   -0.9640    0.4110 cx        1 BYP     -0.242000
      2 N1         -6.7530   -1.2220   -4.0270 n7        1 BYP     -0.173000
      3 C2         -7.7520   -1.0280   -4.9110 c1        1 BYP     -0.058000
      4 C6         -6.9630   -1.0550   -2.6450 c2        1 BYP      0.193000
      5 C4         -9.2190   -0.4830   -3.0220 c2        1 BYP      0.221000
      6 C3         -9.0270   -0.6540   -4.4210 c2        1 BYP     -0.406000
      7 N5         -8.1660   -0.6730   -2.1340 n2        1 BYP     -0.294000
      8 C11       -11.3210    1.0200    1.5220 c1        1 BYP     -0.083000
      9 C10       -11.6450    1.8310    0.4010 c2        1 BYP     -0.227000
     10 C9        -11.3580    1.4640   -0.8790 c2        1 BYP     -0.032000
     11 C8        -10.7110    0.1880   -1.1640 c2        1 BYP     -0.010000
     12 C12       -10.7110   -0.2790    1.2680 c3        1 BYP     -0.209000
     13 C17        -2.6940   -1.4410   -3.6080 c3        1 BYP     -0.204000
     14 C16        -4.1120   -1.4250   -3.3150 c1        1 BYP     -0.128000
     15 C13       -10.4190   -0.6560   -0.1300 c2        1 BYP     -0.114000
     16 C15        -4.5780   -1.2560   -1.9810 c2        1 BYP     -0.047000
     17 C18        -1.7790   -1.2560   -2.4530 c2        1 BYP      0.060000
     18 C19        -2.2620   -1.0860   -1.1850 c2        1 BYP     -0.223000
     19 C20        -3.6640   -1.0820   -0.9450 c2        1 BYP     -0.047000
     20 O21        -0.4220   -1.2440   -2.6390 oh        1 BYP     -0.254000
     21 N7        -10.4650   -0.1430   -2.5150 n7        1 BYP     -0.261000
     22 Br        -10.3770   -0.4080   -5.6710 br        1 BYP      0.080000
     23 C23         1.8680    0.2520    0.9330 cx        1 BYP     -0.041000
     24 C24         0.4800   -0.0730    1.4200 cx        1 BYP     -0.242000
     25 N25         5.1300    2.0360    2.2290 n2        1 BYP      0.007000
     26 C26         5.7250    1.2330    1.2360 c3        1 BYP     -0.080000
     27 C27         4.5950    2.6630    3.0380 c1        1 BYP      0.195000
     28 O28         2.9620    0.1140    1.7990 oh        1 BYP     -0.368000
     29 H221        0.7880   -0.9660   -0.6360 hc        1 BYP      0.132000
     30 H222        1.4870   -1.9670    0.7290 hc        1 BYP      0.132000
     31 H2         -5.8250   -1.4720   -4.3540 hn        1 BYP      0.309000
     32 H9        -11.6060    2.1230   -1.7290 ha        1 BYP      0.135000
     33 H12       -11.3990   -1.0530    1.7280 hc        1 BYP      0.163500
     34 H17        -2.4810   -2.4320   -4.1180 hc        1 BYP      0.183000
     35 H16        -2.5060   -0.6400   -4.3860 hc        1 BYP      0.183000
     36 H13        -9.9510   -1.6390   -0.2950 ha        1 BYP      0.148000
     37 H19        -3.9900   -0.9410    0.1000 ha        1 BYP      0.143000
     38 H20        -1.5760   -0.9520   -0.3350 ha        1 BYP      0.149000
     39 H7        -11.1350    0.1840   -3.1800 hn        1 BYP      0.252000
     40 H23        -0.2440   -1.4090   -3.5780 ho        1 BYP      0.233000
     41 H241        2.0630    1.1280    0.2860 h1        1 BYP      0.144000
     42 H242       -0.3610    0.5690    1.1010 hc        1 BYP      0.132000
     43 H261        6.0200    1.8860    0.3660 h1        1 BYP      0.174333
     44 H262        6.6340    0.7280    1.6710 h1        1 BYP      0.174333
     45 H263        4.9630    0.4590    0.9090 h1        1 BYP      0.174333
     46 H271       -2.1230    0.8340    3.4800 ha        1 BYP      0.000000
     47 H272       -1.5920    0.6860    3.0880 ha        1 BYP      0.000000
     48 H273        4.1010    3.2590    3.8000 ha        1 BYP      0.352000
     49 H28         2.8380   -0.7010    2.3030 ho        1 BYP      0.224000
     50 H11        -9.7570   -0.3220    1.8750 hc        1 BYP      0.163500
     51 H251        0.3420   -0.4440    2.4520 hc        1 BYP      0.132000
     52 N14        -5.9520   -1.3360   -1.6940 n7        1 BYP     -0.236000
     53 H10       -12.1390    2.7950    0.6040 ha        1 BYP      0.151000
     54 H14        -6.2010   -1.1460   -0.7440 hn        1 BYP      0.237000
@<TRIPOS>BOND
     1    1   23 1   
     2    1   24 1   
     3    1   29 1   
     4    1   30 1   
     5    2    3 1   
     6    2    4 1   
     7    2   31 1   
     8    3    6 1   
     9    4    7 1   
    10    4   52 1   
    11    5    6 1   
    12    5    7 1   
    13    5   21 1   
    14    6   22 1   
    15    8    9 1   
    16    8   12 1   
    17    9   10 1   
    18    9   53 1   
    19   10   11 1   
    20   10   32 1   
    21   11   15 1   
    22   11   21 1   
    23   12   15 1   
    24   12   33 1   
    25   12   50 1   
    26   13   14 1   
    27   13   17 1   
    28   13   34 1   
    29   13   35 1   
    30   14   16 1   
    31   15   36 1   
    32   16   19 1   
    33   16   52 1   
    34   17   18 1   
    35   17   20 1   
    36   18   19 1   
    37   18   38 1   
    38   19   37 1   
    39   20   40 1   
    40   21   39 1   
    41   23   24 1   
    42   23   28 1   
    43   23   41 1   
    44   24   42 1   
    45   24   51 1   
    46   25   26 1   
    47   25   27 1   
    48   26   43 1   
    49   26   44 1   
    50   26   45 1   
    51   27   48 1   
    52   28   49 1   
    53   46   47 1   
    54   52   54 1   
@<TRIPOS>SUBSTRUCTURE
     1 BYP         1 TEMP              0 ****  ****    0 ROOT
