@<TRIPOS>MOLECULE
BYP
   53    46     1     0     0
SMALL
bcc


@<TRIPOS>ATOM
      1 C22         3.8990    0.5610    1.9450 c3        1 BYP      0.088400
      2 N1         -2.8730   -1.8140   -0.0310 n1        1 BYP     -0.571300
      3 C2         -3.6960   -2.7400   -0.5670 c1        1 BYP      0.086500
      4 C6         -3.2610   -0.4870    0.0130 c1        1 BYP      0.565100
      5 C4         -5.2920   -1.0410   -1.0190 c1        1 BYP      0.565100
      6 C3         -4.9090   -2.3650   -1.0640 c1        1 BYP     -0.107200
      7 N5         -4.4660   -0.1170   -0.4820 n1        1 BYP     -0.571300
      8 C11        -7.5380   -0.2380   -5.5590 c1        1 BYP     -0.065833
      9 C10        -7.5840   -1.5010   -4.9550 c1        1 BYP     -0.065833
     10 C9         -7.2190   -1.6470   -3.6150 c1        1 BYP     -0.065833
     11 C8         -6.8110   -0.5360   -2.8790 c1        1 BYP      0.079800
     12 C12        -7.1280    0.8770   -4.8200 c1        1 BYP     -0.065833
     13 C17         1.2470    0.2570   -0.0670 c1        1 BYP     -0.133500
     14 C16        -0.1210    0.4630   -0.2320 c1        1 BYP     -0.078000
     15 C13        -6.7650    0.7310   -3.4850 c1        1 BYP     -0.078000
     16 C15        -0.9900    0.2160    0.8170 c1        1 BYP      0.079800
     17 C18         1.7440   -0.1990    1.1610 c1        1 BYP      0.108600
     18 C19         0.8760   -0.4460    2.2080 c1        1 BYP     -0.065833
     19 C20        -0.4930   -0.2400    2.0430 c1        1 BYP     -0.065833
     20 O21         3.0940   -0.5120    1.2920 os        1 BYP     -0.324400
     21 N7         -6.5550   -0.6660   -1.4650 n3        1 BYP     -0.539900
     22 N14        -2.4210    0.4830    0.6570 n3        1 BYP     -0.539900
     23 BR         -6.1480   -3.7120   -1.7510 br        1 BYP     -0.132800
     24 C23         5.3590    0.3120    1.7000 c3        1 BYP      0.140100
     25 C24         6.1910    1.4360    2.3420 c3        1 BYP      0.174800
     26 N25         7.5490    1.0430    2.3940 n3        1 BYP     -0.740600
     27 C26         8.3170    1.8620    1.5290 c3        1 BYP      0.155100
     28 C27         8.0360    1.1620    3.7270 c3        1 BYP      0.155100
     29 O28         5.7160   -0.8950    2.2600 oh        1 BYP     -0.602800
     30 H221        3.7230    0.5590    2.9230 h1        1 BYP      0.051700
     31 H222        3.6530    1.4150    1.5780 h1        1 BYP      0.051700
     32 H2         -3.4170   -3.6960   -0.5980 ha        1 BYP      0.121500
     33 H11        -7.7990   -0.1340   -6.5150 ha        1 BYP      0.084667
     34 H10        -7.8810   -2.3090   -5.4920 ha        1 BYP      0.084667
     35 H9         -7.2510   -2.5270   -3.1920 ha        1 BYP      0.084667
     36 H12        -7.0950    1.7710   -5.2480 ha        1 BYP      0.084667
     37 H17         1.8900    0.4400   -0.8450 ha        1 BYP      0.082500
     38 H16        -0.4760    0.7890   -1.1120 ha        1 BYP      0.079500
     39 H13        -6.4760    1.5130   -2.9670 ha        1 BYP      0.079500
     40 H19         1.2270   -0.7680    3.0750 ha        1 BYP      0.084667
     41 H20        -1.0880   -0.4090    2.7610 ha        1 BYP      0.084667
     42 H7         -7.2370   -0.5810   -0.8720 hn        1 BYP      0.431800
     43 H14        -2.7610    1.2890    0.9000 hn        1 BYP      0.431800
     44 H23         5.5350    0.2880    0.7040 h1        1 BYP      0.068700
     45 H241        6.1100    2.2210    1.8260 h1        1 BYP      0.042200
     46 H242        5.8730    1.6030    3.2280 h1        1 BYP      0.042200
     47 H261        7.9800    1.7760    0.6170 h1        1 BYP      0.034200
     48 H262        8.2470    2.8290    1.8250 h1        1 BYP      0.034200
     49 H263        9.2480    1.5800    1.5580 h1        1 BYP      0.034200
     50 H271        9.0520    1.0570    3.7280 h1        1 BYP      0.034200
     51 H272        7.7940    2.0570    4.0930 h1        1 BYP      0.034200
     52 H273        7.6450    0.4780    4.2710 h1        1 BYP      0.034200
     53 H28         5.7460   -1.4880    1.6570 ho        1 BYP      0.416000
@<TRIPOS>BOND
     1    1   20 1   
     2    1   24 1   
     3    1   30 1   
     4    1   31 1   
     5    2    4 3   
     6    3    6 3   
     7    3   32 1   
     8    4   22 1   
     9    5    7 3   
    10    5   21 1   
    11    6   23 1   
    12    8   12 3   
    13    8   33 1   
    14    9   10 3   
    15    9   34 1   
    16   10   35 1   
    17   11   15 3   
    18   11   21 1   
    19   12   36 1   
    20   13   17 3   
    21   13   37 1   
    22   14   16 3   
    23   14   38 1   
    24   15   39 1   
    25   16   22 1   
    26   17   20 1   
    27   18   19 3   
    28   18   40 1   
    29   19   41 1   
    30   21   42 1   
    31   22   43 1   
    32   24   25 1   
    33   24   29 1   
    34   24   44 1   
    35   25   26 1   
    36   25   45 1   
    37   25   46 1   
    38   26   27 1   
    39   26   28 1   
    40   27   47 1   
    41   27   48 1   
    42   27   49 1   
    43   28   50 1   
    44   28   51 1   
    45   28   52 1   
    46   29   53 1   
@<TRIPOS>SUBSTRUCTURE
     1 BYP         1 TEMP              0 ****  ****    0 ROOT
